data_mof_unit_30616.cif
_audit_creation_date              2012-12-10T18:10:00-0500
_audit_creation_method            fapswitch 2.2
_symmetry_space_group_name_H-M    P1
_symmetry_Int_Tables_number       1
_space_group_crystal_system       triclinic
_cell_length_a                    18.13653
_cell_length_b                    18.480203
_cell_length_c                    59.848422
_cell_angle_alpha                 90.092365
_cell_angle_beta                  90.172793
_cell_angle_gamma                 90.072529
_cell_volume                      20059.0679802

loop_
_atom_site_label
_atom_site_type_symbol
_atom_type_description
_atom_site_fract_x
_atom_site_fract_y
_atom_site_fract_z
_atom_type_partial_charge
C1    C     C_R   0.500713 0.999997 0.810437 0.867172
C2    C     C_R   0.499383 0.000043 0.189730 0.933207
C3    C     C_R   0.000020 0.500307 0.810395 0.933310
C4    C     C_R   0.999595 0.498720 0.189310 0.902335
C5    C     C_R   0.001410 0.499831 0.310465 0.874890
C6    C     C_R   0.000474 0.500025 0.689527 0.913388
C7    C     C_R   0.499897 0.000514 0.310450 0.932557
C8    C     C_R   0.499511 0.000103 0.689347 0.926125
C9    C     C_R   0.487741 0.066464 0.558501 -0.204565
C10   C     C_R   0.446329 0.943134 0.439917 -0.182318
C11   C     C_R   0.951983 0.488044 0.558250 -0.188882
C12   C     C_R   0.089436 0.520629 0.440992 -0.189680
C13   C     C_R   0.449021 0.939930 0.558888 -0.195676
C14   C     C_R   0.460776 0.073871 0.440976 -0.169650
C15   C     C_R   0.084012 0.515312 0.559876 -0.181794
C16   C     C_R   0.970042 0.458774 0.440874 -0.201318
C17   C     C_R   0.982707 0.556361 0.058791 -0.209900
C18   C     C_R   0.949463 0.438713 0.939231 -0.199010
C19   C     C_R   0.454445 0.968187 0.058862 -0.216862
C20   C     C_R   0.592268 0.993834 0.940447 -0.191116
C21   C     C_R   0.958427 0.426540 0.058081 -0.179102
C22   C     C_R   0.963726 0.569580 0.941017 -0.181783
C23   C     C_R   0.581477 0.009667 0.060377 -0.178539
C24   C     C_R   0.461154 0.968042 0.941324 -0.198036
C25   C     C_R   0.497371 0.131767 0.546656 0.407781
C26   C     C_R   0.437935 0.876873 0.451297 0.356309
C27   C     C_R   0.888000 0.473729 0.545547 0.376752
C28   C     C_R   0.146549 0.555143 0.453051 0.388401
C29   C     C_R   0.420585 0.879312 0.547345 0.389771
C30   C     C_R   0.450270 0.139243 0.452588 0.364991
C31   C     C_R   0.151213 0.528750 0.548752 0.374799
C32   C     C_R   0.912423 0.424902 0.452829 0.408284
C33   C     C_R   0.985560 0.623082 0.047464 0.417459
C34   C     C_R   0.945671 0.371527 0.950278 0.370609
C35   C     C_R   0.392400 0.948304 0.046169 0.405227
C36   C     C_R   0.660141 0.996587 0.951582 0.386030
C37   C     C_R   0.937551 0.364300 0.045887 0.382664
C38   C     C_R   0.954805 0.634113 0.953252 0.366675
C39   C     C_R   0.649019 0.020751 0.049728 0.358685
C40   C     C_R   0.400854 0.938820 0.952823 0.370408
C41   C     C_R   0.496694 0.000558 0.664380 -0.344450
C42   C     C_R   0.498143 0.005591 0.335020 -0.390063
C43   C     C_R   0.002761 0.500414 0.664657 -0.339334
C44   C     C_R   0.009025 0.498357 0.335259 -0.403190
C45   C     C_R   0.997052 0.494058 0.164298 -0.380424
C46   C     C_R   0.998850 0.505479 0.834854 -0.376021
C47   C     C_R   0.501806 0.000309 0.165229 -0.378714
C48   C     C_R   0.504712 0.999464 0.835253 -0.398283
C49   C     C_R   0.953449 0.565077 0.988038 -0.059014
C50   C     C_R   0.944921 0.431236 0.010658 -0.076147
C51   C     C_R   0.467205 0.951489 0.988096 -0.072024
C52   C     C_R   0.597372 0.985327 0.013073 -0.053761
C53   C     C_R   0.949721 0.432179 0.986819 -0.076961
C54   C     C_R   0.965927 0.562694 0.011546 -0.083950
C55   C     C_R   0.599636 0.985337 0.988631 -0.049971
C56   C     C_R   0.462740 0.959691 0.011557 -0.086423
C57   C     C_R   0.452881 0.072725 0.487946 -0.062487
C58   C     C_R   0.433232 0.942094 0.511518 -0.067909
C59   C     C_R   0.967510 0.463514 0.488047 -0.082508
C60   C     C_R   0.089322 0.517622 0.512327 -0.059280
C61   C     C_R   0.438482 0.940321 0.487617 -0.046620
C62   C     C_R   0.466928 0.071179 0.511349 -0.075450
C63   C     C_R   0.087777 0.523991 0.488528 -0.072158
C64   C     C_R   0.960196 0.477929 0.511191 -0.082576
C65   C     C_R   0.952683 0.499786 0.975685 -0.048398
C66   C     C_R   0.959749 0.495506 0.022865 -0.050629
C67   C     C_R   0.532076 0.972432 0.976669 -0.042462
C68   C     C_R   0.527342 0.976435 0.023984 -0.046523
C69   C     C_R   0.447526 0.006690 0.476020 -0.054413
C70   C     C_R   0.455280 0.005652 0.523179 -0.057583
C71   C     C_R   0.028673 0.492075 0.476478 -0.052750
C72   C     C_R   0.023206 0.498898 0.523567 -0.048625
C73   C     C_R   0.939365 0.629973 0.976187 0.391907
C74   C     C_R   0.923248 0.369177 0.022877 0.382086
C75   C     C_R   0.408710 0.921296 0.975332 0.393805
C76   C     C_R   0.659370 0.996418 0.027740 0.357950
C77   C     C_R   0.954769 0.368305 0.973542 0.398276
C78   C     C_R   0.986614 0.624678 0.024151 0.408452
C79   C     C_R   0.663894 0.999162 0.975076 0.351911
C80   C     C_R   0.394190 0.956114 0.023047 0.406458
C81   C     C_R   0.440536 0.137666 0.475901 0.385702
C82   C     C_R   0.405005 0.884005 0.524374 0.406052
C83   C     C_R   0.916264 0.420370 0.476072 0.393898
C84   C     C_R   0.154590 0.526236 0.525286 0.385209
C85   C     C_R   0.439992 0.875006 0.474858 0.389899
C86   C     C_R   0.494536 0.132068 0.523280 0.382225
C87   C     C_R   0.140872 0.563681 0.476291 0.406143
C88   C     C_R   0.891280 0.474698 0.522224 0.404204
C89   C     C_R   0.639719 0.859709 0.749629 0.828327
C90   C     C_R   0.359980 0.140478 0.250279 0.845090
C91   C     C_R   0.140722 0.639687 0.750040 0.820905
C92   C     C_R   0.858714 0.360972 0.250164 0.824742
C93   C     C_R   0.359883 0.139975 0.749771 0.834034
C94   C     C_R   0.640633 0.860246 0.249990 0.831941
C95   C     C_R   0.859403 0.360265 0.750007 0.820784
C96   C     C_R   0.141522 0.638618 0.250442 0.839292
C97   C     C_R   0.640668 0.139603 0.250070 0.820716
C98   C     C_R   0.358462 0.861426 0.750347 0.840411
C99   C     C_R   0.139665 0.359689 0.249606 0.822782
C100  C     C_R   0.859916 0.640409 0.750289 0.838279
C101  C     C_R   0.359488 0.860199 0.250066 0.822655
C102  C     C_R   0.641502 0.138633 0.750382 0.838309
C103  C     C_R   0.859708 0.640035 0.249785 0.852164
C104  C     C_R   0.139917 0.359344 0.750417 0.840727
C105  C     C_R   0.763665 0.184170 0.762701 0.099454
C106  C     C_R   0.241021 0.810461 0.236452 0.109673
C107  C     C_R   0.759907 0.705881 0.730533 0.120946
C108  C     C_R   0.241570 0.297154 0.268650 0.108607
C109  C     C_R   0.236248 0.816350 0.762468 0.098029
C110  C     C_R   0.766527 0.181666 0.240966 0.107742
C111  C     C_R   0.241701 0.295522 0.731181 0.119578
C112  C     C_R   0.761047 0.706784 0.269380 0.112067
C113  C     C_R   0.706334 0.761039 0.269355 0.098629
C114  C     C_R   0.296299 0.240932 0.730829 0.091336
C115  C     C_R   0.819259 0.237651 0.240108 0.119182
C116  C     C_R   0.184379 0.759033 0.763541 0.106291
C117  C     C_R   0.291629 0.238801 0.269586 0.068763
C118  C     C_R   0.704783 0.760084 0.730286 0.090236
C119  C     C_R   0.188172 0.754452 0.236071 0.108734
C120  C     C_R   0.815825 0.241308 0.763629 0.103219
C121  C     C_R   0.259240 0.688320 0.264961 0.104386
C122  C     C_R   0.738101 0.313111 0.737805 0.101530
C123  C     C_R   0.261010 0.206999 0.230422 0.100522
C124  C     C_R   0.741948 0.797271 0.768547 0.108548
C125  C     C_R   0.732236 0.319472 0.259446 0.089618
C126  C     C_R   0.262676 0.686083 0.738298 0.100278
C127  C     C_R   0.740406 0.794162 0.230673 0.108816
C128  C     C_R   0.256112 0.200734 0.768389 0.106925
C129  C     C_R   0.206493 0.259462 0.769518 0.082209
C130  C     C_R   0.790381 0.735719 0.229886 0.093206
C131  C     C_R   0.315612 0.741995 0.737850 0.112021
C132  C     C_R   0.680487 0.262406 0.261052 0.109223
C133  C     C_R   0.791492 0.738527 0.769586 0.068573
C134  C     C_R   0.205585 0.260827 0.230221 0.098886
C135  C     C_R   0.685007 0.257289 0.737451 0.112049
C136  C     C_R   0.311598 0.745353 0.265632 0.102911
C137  C     C_R   0.803268 0.303976 0.750545 -0.115311
C138  C     C_R   0.198076 0.694256 0.250262 -0.110128
C139  C     C_R   0.696859 0.804894 0.749381 -0.133145
C140  C     C_R   0.302817 0.196125 0.250194 -0.109177
C141  C     C_R   0.197066 0.695863 0.750672 -0.116361
C142  C     C_R   0.801969 0.305386 0.249693 -0.119383
C143  C     C_R   0.302632 0.194591 0.749550 -0.134338
C144  C     C_R   0.697130 0.804359 0.250093 -0.105730
C145  C     C_R   0.802307 0.694821 0.249618 -0.120169
C146  C     C_R   0.197477 0.304123 0.750482 -0.104373
C147  C     C_R   0.697083 0.195441 0.250775 -0.124486
C148  C     C_R   0.301744 0.806074 0.749972 -0.106669
C149  C     C_R   0.196966 0.305096 0.249396 -0.128392
C150  C     C_R   0.802311 0.695555 0.750227 -0.107276
C151  C     C_R   0.303125 0.804175 0.250670 -0.115878
C152  C     C_R   0.698220 0.194063 0.750040 -0.106437
C153  C     C_R   0.500867 0.061888 0.581741 0.605901
C154  C     C_R   0.451184 0.946807 0.416346 0.625127
C155  C     C_R   0.950000 0.491146 0.581741 0.624007
C156  C     C_R   0.088159 0.519173 0.417401 0.630590
C157  C     C_R   0.457830 0.940207 0.582395 0.631382
C158  C     C_R   0.476975 0.072793 0.417981 0.623160
C159  C     C_R   0.079258 0.514008 0.583409 0.634237
C160  C     C_R   0.970712 0.461007 0.417357 0.617698
C161  C     C_R   0.994840 0.551637 0.082034 0.609836
C162  C     C_R   0.950592 0.444028 0.915702 0.632860
C163  C     C_R   0.450908 0.974821 0.082347 0.594677
C164  C     C_R   0.586990 0.001620 0.916956 0.612205
C165  C     C_R   0.966255 0.425861 0.081653 0.632095
C166  C     C_R   0.978180 0.569755 0.917929 0.642257
C167  C     C_R   0.573790 0.019194 0.083685 0.624770
C168  C     C_R   0.457821 0.980454 0.918134 0.635690
C169  C     C_R   0.425596 0.014291 0.629667 0.338005
C170  C     C_R   0.443134 0.059428 0.368148 0.405555
C171  C     C_R   0.032430 0.441002 0.629272 0.325205
C172  C     C_R   0.023971 0.429279 0.369772 0.367232
C173  C     C_R   0.556211 0.985859 0.627969 0.346952
C174  C     C_R   0.530104 0.959532 0.371825 0.374156
C175  C     C_R   0.983477 0.562822 0.629110 0.330474
C176  C     C_R   0.022868 0.560647 0.371085 0.354696
C177  C     C_R   0.925430 0.499057 0.129495 0.339633
C178  C     C_R   0.944055 0.559368 0.867979 0.379206
C179  C     C_R   0.557614 0.957886 0.130807 0.406908
C180  C     C_R   0.495405 0.933581 0.870485 0.365008
C181  C     C_R   0.057186 0.477414 0.127947 0.344324
C182  C     C_R   0.029941 0.458463 0.871549 0.378832
C183  C     C_R   0.454656 0.042531 0.129488 0.408141
C184  C     C_R   0.531859 0.060333 0.870650 0.361170
C185  C     C_R   0.428333 0.011757 0.653186 0.265610
C186  C     C_R   0.457410 0.061336 0.345165 0.302832
C187  C     C_R   0.036275 0.442784 0.652794 0.280568
C188  C     C_R   0.008047 0.431242 0.346888 0.308735
C189  C     C_R   0.560968 0.988495 0.651506 0.263373
C190  C     C_R   0.531733 0.952646 0.348449 0.316263
C191  C     C_R   0.973312 0.559513 0.652461 0.276788
C192  C     C_R   0.021130 0.562965 0.347633 0.305182
C193  C     C_R   0.927999 0.495291 0.152956 0.285481
C194  C     C_R   0.958778 0.561561 0.844966 0.278561
C195  C     C_R   0.559115 0.964123 0.154107 0.296627
C196  C     C_R   0.483935 0.936654 0.847344 0.322753
C197  C     C_R   0.062201 0.486841 0.151353 0.288775
C198  C     C_R   0.033319 0.452988 0.848201 0.304653
C199  C     C_R   0.447806 0.037129 0.152782 0.280024
C200  C     C_R   0.531184 0.060714 0.847173 0.305064
C201  C     C_R   0.489054 0.000246 0.617172 0.020223
C202  C     C_R   0.482082 0.010350 0.381937 -0.101536
C203  C     C_R   0.009612 0.502316 0.617588 -0.002088
C204  C     C_R   0.026504 0.493751 0.382159 -0.060512
C205  C     C_R   0.989333 0.486918 0.117018 0.012810
C206  C     C_R   0.981619 0.509126 0.881625 -0.076263
C207  C     C_R   0.507648 0.000227 0.118292 -0.093513
C208  C     C_R   0.516747 0.996172 0.882307 -0.059924
C209  C     C_R   0.464387 0.003917 0.546831 -0.196193
C210  C     C_R   0.451579 0.007702 0.452332 -0.212433
C211  C     C_R   0.019739 0.501046 0.547226 -0.204044
C212  C     C_R   0.029647 0.490109 0.452769 -0.204456
C213  C     C_R   0.967477 0.492685 0.046557 -0.196560
C214  C     C_R   0.955206 0.502562 0.951984 -0.212502
C215  C     C_R   0.521231 0.984470 0.047728 -0.204678
C216  C     C_R   0.528599 0.978788 0.952866 -0.211964
N1    N     N_R   0.484376 0.000096 0.593131 -0.292627
N2    N     N_R   0.470578 0.010002 0.405945 -0.324628
N3    N     N_R   0.013040 0.503005 0.593638 -0.298064
N4    N     N_R   0.028878 0.491011 0.406219 -0.308238
N5    N     N_R   0.985175 0.487564 0.092952 -0.288317
N6    N     N_R   0.969457 0.507860 0.905553 -0.319270
N7    N     N_R   0.510394 0.999063 0.094196 -0.317242
N8    N     N_R   0.520502 0.994554 0.906386 -0.310923
O1    O     O_3   0.500000 0.000000 0.750000 -0.479668
O2    O     O_3   0.500000 0.000000 0.250000 -0.483631
O3    O     O_3   1.000000 0.500000 0.750000 -0.488139
O4    O     O_3   0.000000 0.500000 0.250000 -0.478367
O5    O     O_R   0.500000 0.060550 0.799700 -0.612237
O6    O     O_R   0.500000 0.939450 0.200300 -0.632481
O7    O     O_R   0.939450 0.500000 0.799700 -0.634524
O8    O     O_R   0.060550 0.500000 0.200300 -0.624970
O9    O     O_R   0.500000 0.939450 0.799700 -0.613630
O10   O     O_R   0.500000 0.060550 0.200300 -0.632445
O11   O     O_R   0.060550 0.500000 0.799700 -0.634760
O12   O     O_R   0.939450 0.500000 0.200300 -0.618681
O13   O     O_R   1.000000 0.560550 0.299700 -0.619378
O14   O     O_R   0.000000 0.439450 0.700300 -0.608757
O15   O     O_R   0.439450 1.000000 0.299700 -0.635014
O16   O     O_R   0.560550 0.000000 0.700300 -0.624688
O17   O     O_R   0.000000 0.439450 0.299700 -0.615542
O18   O     O_R   0.000000 0.560550 0.700300 -0.605824
O19   O     O_R   0.560550 1.000000 0.299700 -0.635435
O20   O     O_R   0.439450 0.000000 0.700300 -0.620971
O21   O     O_R   0.585450 0.853690 0.762850 -0.625782
O22   O     O_R   0.414550 0.146310 0.237150 -0.650886
O23   O     O_R   0.146310 0.585450 0.762850 -0.649995
O24   O     O_R   0.853690 0.414550 0.237150 -0.653757
O25   O     O_R   0.414550 0.146310 0.762850 -0.626129
O26   O     O_R   0.585450 0.853690 0.237150 -0.648096
O27   O     O_R   0.853690 0.414550 0.762850 -0.651022
O28   O     O_R   0.146310 0.585450 0.237150 -0.648102
O29   O     O_R   0.585450 0.146310 0.237150 -0.639270
O30   O     O_R   0.414550 0.853690 0.762850 -0.658139
O31   O     O_R   0.146310 0.414550 0.237150 -0.663474
O32   O     O_R   0.853690 0.585450 0.762850 -0.642982
O33   O     O_R   0.414550 0.853690 0.237150 -0.641087
O34   O     O_R   0.585450 0.146310 0.762850 -0.660032
O35   O     O_R   0.853690 0.585450 0.237150 -0.660475
O36   O     O_R   0.146310 0.414550 0.762850 -0.646381
O37   O     O_R   0.085450 0.353690 0.262850 -0.627708
O38   O     O_R   0.914550 0.646310 0.737150 -0.648452
O39   O     O_R   0.646310 0.085450 0.262850 -0.651908
O40   O     O_R   0.353690 0.914550 0.737150 -0.656394
O41   O     O_R   0.914550 0.646310 0.262850 -0.645773
O42   O     O_R   0.085450 0.353690 0.737150 -0.647376
O43   O     O_R   0.353690 0.914550 0.262850 -0.651149
O44   O     O_R   0.646310 0.085450 0.737150 -0.651309
O45   O     O_R   0.085450 0.646310 0.737150 -0.636766
O46   O     O_R   0.914550 0.353690 0.262850 -0.661600
O47   O     O_R   0.646310 0.914550 0.737150 -0.673568
O48   O     O_R   0.353690 0.085450 0.262850 -0.641008
O49   O     O_R   0.914550 0.353690 0.737150 -0.637762
O50   O     O_R   0.085450 0.646310 0.262850 -0.664856
O51   O     O_R   0.353690 0.085450 0.737150 -0.675172
O52   O     O_R   0.646310 0.914550 0.262850 -0.643655
O53   O     O_2   0.530052 0.118499 0.592964 -0.550425
O54   O     O_2   0.436267 0.888005 0.403805 -0.548813
O55   O     O_2   0.885902 0.482160 0.592793 -0.547971
O56   O     O_2   0.145195 0.545957 0.405590 -0.546716
O57   O     O_2   0.439156 0.881756 0.594602 -0.555406
O58   O     O_2   0.500678 0.133676 0.407870 -0.531336
O59   O     O_2   0.139984 0.523286 0.596128 -0.558175
O60   O     O_2   0.913635 0.433781 0.405537 -0.556582
O61   O     O_2   0.016766 0.610432 0.093702 -0.557612
O62   O     O_2   0.933746 0.385949 0.902994 -0.526393
O63   O     O_2   0.388614 0.957543 0.093383 -0.527913
O64   O     O_2   0.647560 0.016202 0.904721 -0.530296
O65   O     O_2   0.954182 0.364609 0.093298 -0.571772
O66   O     O_2   0.002581 0.630733 0.908047 -0.536124
O67   O     O_2   0.629359 0.047355 0.095965 -0.533856
O68   O     O_2   0.392673 0.977846 0.907217 -0.547546
Zn1   Zn    Zn3+2 0.586770 0.000000 0.731050 0.934966
Zn2   Zn    Zn3+2 0.413230 0.000000 0.268950 0.945490
Zn3   Zn    Zn3+2 0.000000 0.586770 0.731050 0.963927
Zn4   Zn    Zn3+2 0.000000 0.413230 0.268950 0.949700
Zn5   Zn    Zn3+2 0.413230 0.000000 0.731050 0.933850
Zn6   Zn    Zn3+2 0.586770 0.000000 0.268950 0.943390
Zn7   Zn    Zn3+2 0.000000 0.413230 0.731050 0.963558
Zn8   Zn    Zn3+2 1.000000 0.586770 0.268950 0.948838
Zn9   Zn    Zn3+2 0.086770 0.500000 0.231050 0.945503
Zn10  Zn    Zn3+2 0.913230 0.500000 0.768950 0.943377
Zn11  Zn    Zn3+2 0.500000 0.086770 0.231050 0.950945
Zn12  Zn    Zn3+2 0.500000 0.913230 0.768950 0.955746
Zn13  Zn    Zn3+2 0.913230 0.500000 0.231050 0.944803
Zn14  Zn    Zn3+2 0.086770 0.500000 0.768950 0.943585
Zn15  Zn    Zn3+2 0.500000 0.913230 0.231050 0.955496
Zn16  Zn    Zn3+2 0.500000 0.086770 0.768950 0.955759
C217  C     C_3   0.776590 0.112465 0.774913 -0.399205
C218  C     C_3   0.806021 0.053731 0.759225 -0.849521
H1    H     H_    0.848913 0.075719 0.747916 0.264987
H2    H     H_    0.761377 0.030075 0.748917 0.280575
H3    H     H_    0.830519 0.009206 0.769227 0.228338
H4    H     H_    0.815785 0.117535 0.788948 0.214611
H5    H     H_    0.724947 0.093268 0.782897 0.169716
C219  C     C_3   0.227795 0.879535 0.223139 -0.393744
C220  C     C_3   0.174476 0.929091 0.235695 -0.880674
H6    H     H_    0.204766 0.959985 0.248751 0.277851
H7    H     H_    0.148131 0.967120 0.223805 0.245979
H8    H     H_    0.129807 0.898129 0.243994 0.257297
H9    H     H_    0.279363 0.909826 0.219752 0.183527
H10   H     H_    0.206019 0.867069 0.206239 0.207324
C221  C     C_3   0.773001 0.657005 0.710267 -0.406240
C222  C     C_3   0.748223 0.579269 0.714542 -0.889877
H11   H     H_    0.791277 0.548384 0.723568 0.256967
H12   H     H_    0.696854 0.579191 0.724519 0.271750
H13   H     H_    0.737531 0.551149 0.698440 0.236512
H14   H     H_    0.744205 0.675386 0.695140 0.213718
H15   H     H_    0.831951 0.657991 0.705515 0.230927
C223  C     C_3   0.238824 0.354633 0.287191 -0.400400
C224  C     C_3   0.191417 0.332081 0.307104 -0.777026
H16   H     H_    0.174636 0.380934 0.316653 0.234345
H17   H     H_    0.140818 0.303399 0.301483 0.286419
H18   H     H_    0.222991 0.296987 0.318653 0.240392
H19   H     H_    0.295025 0.369992 0.292798 0.181400
H20   H     H_    0.216848 0.406614 0.280763 0.186494
C225  C     C_3   0.222998 0.888591 0.774379 -0.394026
C226  C     C_3   0.192427 0.945951 0.758415 -0.851668
H21   H     H_    0.169065 0.991544 0.768203 0.228944
H22   H     H_    0.236207 0.968236 0.747589 0.280217
H23   H     H_    0.148410 0.923097 0.747579 0.263843
H24   H     H_    0.184458 0.883934 0.788532 0.211620
H25   H     H_    0.274706 0.908858 0.782189 0.169311
C227  C     C_3   0.786546 0.105886 0.232979 -0.398806
C228  C     C_3   0.831342 0.066710 0.251006 -0.849853
H26   H     H_    0.794218 0.047174 0.264431 0.280067
H27   H     H_    0.860712 0.019931 0.243652 0.247853
H28   H     H_    0.873475 0.102828 0.258622 0.251812
H29   H     H_    0.737284 0.073174 0.228696 0.185031
H30   H     H_    0.817645 0.107563 0.217092 0.205106
C229  C     C_3   0.231419 0.347081 0.711538 -0.414672
C230  C     C_3   0.257657 0.423397 0.717153 -0.896182
H31   H     H_    0.271123 0.453291 0.701606 0.236710
H32   H     H_    0.307727 0.420816 0.727794 0.275086
H33   H     H_    0.214199 0.454014 0.726016 0.261248
H34   H     H_    0.261363 0.330082 0.696544 0.221401
H35   H     H_    0.172830 0.347999 0.706290 0.231476
C231  C     C_3   0.773081 0.658664 0.289942 -0.393110
C232  C     C_3   0.736052 0.585133 0.286987 -0.922207
H36   H     H_    0.760207 0.555922 0.272594 0.269765
H37   H     H_    0.744526 0.551974 0.302235 0.246057
H38   H     H_    0.675905 0.591983 0.284186 0.262841
H39   H     H_    0.832420 0.651148 0.293567 0.230460
H40   H     H_    0.752372 0.682942 0.305584 0.218767
C233  C     C_3   0.657485 0.772618 0.289777 -0.422579
C234  C     C_3   0.696041 0.820150 0.307257 -0.775508
H41   H     H_    0.755701 0.807468 0.308593 0.236892
H42   H     H_    0.690309 0.878158 0.302842 0.292051
H43   H     H_    0.670801 0.811077 0.323866 0.267963
H44   H     H_    0.603902 0.797585 0.285308 0.185323
H45   H     H_    0.641063 0.720007 0.297171 0.200564
C235  C     C_3   0.348380 0.232012 0.710797 -0.375677
C236  C     C_3   0.408952 0.289539 0.710646 -0.888586
H46   H     H_    0.386420 0.343933 0.707143 0.273573
H47   H     H_    0.438119 0.290486 0.726988 0.259409
H48   H     H_    0.449433 0.276680 0.697354 0.246414
H49   H     H_    0.376741 0.179181 0.710534 0.219555
H50   H     H_    0.317603 0.231054 0.694772 0.196605
C237  C     C_3   0.890758 0.228097 0.226877 -0.396539
C238  C     C_3   0.878232 0.248272 0.202455 -0.908758
H51   H     H_    0.835316 0.213169 0.194798 0.263343
H52   H     H_    0.860232 0.305445 0.201304 0.260179
H53   H     H_    0.930055 0.241857 0.192892 0.248383
H54   H     H_    0.936327 0.261715 0.233559 0.208426
H55   H     H_    0.913003 0.172472 0.227940 0.217663
C239  C     C_3   0.117668 0.762066 0.779182 -0.393910
C240  C     C_3   0.053088 0.803791 0.769069 -0.854769
H56   H     H_    0.063573 0.862774 0.769614 0.263605
H57   H     H_    0.043109 0.786569 0.751532 0.278961
H58   H     H_    0.002367 0.792918 0.778868 0.223799
H59   H     H_    0.097579 0.707075 0.783390 0.183539
H60   H     H_    0.132765 0.784080 0.795805 0.188959
C241  C     C_3   0.331000 0.220015 0.291349 -0.363304
C242  C     C_3   0.285216 0.166853 0.305180 -0.749091
H61   H     H_    0.301455 0.171119 0.322980 0.252688
H62   H     H_    0.225355 0.178647 0.303881 0.241739
H63   H     H_    0.294427 0.110388 0.299610 0.284612
H64   H     H_    0.386102 0.196625 0.288131 0.185150
H65   H     H_    0.343254 0.268345 0.301583 0.191319
C243  C     C_3   0.653856 0.770155 0.709959 -0.375192
C244  C     C_3   0.594577 0.711484 0.708650 -0.889060
H66   H     H_    0.618557 0.657871 0.704907 0.273683
H67   H     H_    0.563849 0.708612 0.724649 0.259107
H68   H     H_    0.555174 0.724669 0.695036 0.245777
H69   H     H_    0.624211 0.822287 0.710071 0.220373
H70   H     H_    0.685708 0.773466 0.694218 0.197684
C245  C     C_3   0.122167 0.757035 0.220038 -0.391383
C246  C     C_3   0.141391 0.722258 0.197693 -0.897576
H71   H     H_    0.187378 0.751727 0.189560 0.258846
H72   H     H_    0.158055 0.665197 0.200236 0.270307
H73   H     H_    0.092581 0.723528 0.186457 0.243145
H74   H     H_    0.073385 0.729090 0.227063 0.196029
H75   H     H_    0.101994 0.812673 0.217084 0.220850
C247  C     C_3   0.883327 0.238218 0.779091 -0.394377
C248  C     C_3   0.946912 0.195624 0.768818 -0.850034
H76   H     H_    0.935786 0.136766 0.769424 0.263886
H77   H     H_    0.956148 0.212442 0.751239 0.278139
H78   H     H_    0.998274 0.206120 0.778440 0.223297
H79   H     H_    0.904219 0.293120 0.783150 0.184052
H80   H     H_    0.869050 0.216816 0.795802 0.191524
C249  C     C_3   0.267004 0.621046 0.279726 -0.404221
C250  C     C_3   0.295783 0.555729 0.266635 -0.863424
H81   H     H_    0.340892 0.571716 0.255156 0.267687
H82   H     H_    0.251267 0.529892 0.256772 0.274079
H83   H     H_    0.317323 0.514545 0.278460 0.229971
H84   H     H_    0.304363 0.629318 0.294069 0.215580
H85   H     H_    0.213245 0.607268 0.287494 0.176591
C251  C     C_3   0.723152 0.383952 0.725611 -0.387409
C252  C     C_3   0.672183 0.432242 0.739492 -0.869452
H86   H     H_    0.705067 0.464237 0.751694 0.278232
H87   H     H_    0.641571 0.469404 0.728304 0.242752
H88   H     H_    0.630811 0.400177 0.748896 0.256710
H89   H     H_    0.774311 0.414357 0.721812 0.186575
H90   H     H_    0.698839 0.373498 0.708886 0.207776
C253  C     C_3   0.273037 0.156998 0.210338 -0.365790
C254  C     C_3   0.248218 0.079807 0.215567 -0.880296
H91   H     H_    0.295646 0.046361 0.221079 0.250383
H92   H     H_    0.205631 0.079910 0.228856 0.266998
H93   H     H_    0.223690 0.054290 0.200534 0.244891
H94   H     H_    0.243680 0.174521 0.195170 0.201804
H95   H     H_    0.331699 0.157360 0.205170 0.238408
C255  C     C_3   0.740695 0.855758 0.786787 -0.396768
C256  C     C_3   0.693556 0.835005 0.806938 -0.794726
H96   H     H_    0.724793 0.799759 0.818530 0.247934
H97   H     H_    0.678132 0.884610 0.816327 0.231224
H98   H     H_    0.642203 0.807086 0.801593 0.283589
H99   H     H_    0.797335 0.870420 0.792169 0.182245
H100  H     H_    0.719447 0.907760 0.780134 0.186347
C257  C     C_3   0.712754 0.396010 0.267062 -0.380659
C258  C     C_3   0.681483 0.440538 0.247661 -0.828173
H101  H     H_    0.653405 0.489418 0.254244 0.237571
H102  H     H_    0.725792 0.458451 0.236246 0.281910
H103  H     H_    0.640960 0.408640 0.237795 0.259967
H104  H     H_    0.672353 0.396620 0.280826 0.205109
H105  H     H_    0.761593 0.423918 0.274237 0.176180
C259  C     C_3   0.278679 0.614306 0.726799 -0.388206
C260  C     C_3   0.330154 0.568305 0.741315 -0.866825
H106  H     H_    0.297435 0.536242 0.753448 0.278557
H107  H     H_    0.362625 0.531371 0.730564 0.242737
H108  H     H_    0.370010 0.601997 0.750888 0.256830
H109  H     H_    0.227953 0.582989 0.723117 0.185666
H110  H     H_    0.303041 0.623386 0.710052 0.206000
C261  C     C_3   0.739007 0.851571 0.212300 -0.379439
C262  C     C_3   0.780923 0.918492 0.220097 -0.925628
H111  H     H_    0.835361 0.903185 0.227160 0.272077
H112  H     H_    0.748968 0.947234 0.233077 0.274211
H113  H     H_    0.790512 0.955667 0.205926 0.250092
H114  H     H_    0.763979 0.834461 0.196404 0.214690
H115  H     H_    0.681693 0.866219 0.207696 0.230950
C263  C     C_3   0.256169 0.140877 0.786114 -0.398890
C264  C     C_3   0.302499 0.159886 0.806687 -0.803125
H116  H     H_    0.354784 0.186826 0.801832 0.283236
H117  H     H_    0.271368 0.195452 0.818183 0.248991
H118  H     H_    0.316198 0.109621 0.815962 0.230592
H119  H     H_    0.199211 0.126146 0.791038 0.184135
H120  H     H_    0.277550 0.089349 0.779142 0.187365
C265  C     C_3   0.165493 0.276811 0.791122 -0.391162
C266  C     C_3   0.209743 0.330123 0.805503 -0.757339
H121  H     H_    0.188387 0.330088 0.822835 0.261841
H122  H     H_    0.268962 0.315177 0.806043 0.244678
H123  H     H_    0.205460 0.385885 0.798891 0.285076
H124  H     H_    0.110139 0.299538 0.787616 0.177894
H125  H     H_    0.153653 0.228079 0.801157 0.198363
C267  C     C_3   0.832822 0.718189 0.208419 -0.378964
C268  C     C_3   0.906429 0.758194 0.207340 -0.883077
H126  H     H_    0.897699 0.817088 0.205214 0.270535
H127  H     H_    0.938891 0.748637 0.222804 0.251866
H128  H     H_    0.938675 0.738213 0.192847 0.244957
H129  H     H_    0.843488 0.659769 0.206564 0.234666
H130  H     H_    0.799564 0.728475 0.193225 0.186964
C269  C     C_3   0.385868 0.735318 0.723758 -0.397965
C270  C     C_3   0.375013 0.768996 0.700724 -0.907601
H131  H     H_    0.327029 0.744053 0.692078 0.258727
H132  H     H_    0.365974 0.828071 0.702278 0.272093
H133  H     H_    0.424923 0.760147 0.690406 0.246495
H134  H     H_    0.433704 0.761397 0.732078 0.207113
H135  H     H_    0.404318 0.678753 0.721603 0.221899
C271  C     C_3   0.610958 0.269199 0.275422 -0.392629
C272  C     C_3   0.546947 0.305424 0.263147 -0.838976
H136  H     H_    0.554292 0.364881 0.262758 0.258349
H137  H     H_    0.541838 0.284392 0.245824 0.281597
H138  H     H_    0.494667 0.294028 0.272116 0.224798
H139  H     H_    0.591739 0.215344 0.281172 0.180094
H140  H     H_    0.622861 0.297500 0.291374 0.187563
C273  C     C_3   0.830775 0.719770 0.791411 -0.359337
C274  C     C_3   0.784665 0.666965 0.805282 -0.756473
H141  H     H_    0.725193 0.680922 0.804645 0.241897
H142  H     H_    0.791178 0.610764 0.799133 0.282791
H143  H     H_    0.802812 0.668964 0.822969 0.260609
H144  H     H_    0.885814 0.696045 0.788272 0.187439
H145  H     H_    0.843156 0.768081 0.801648 0.190939
C275  C     C_3   0.154479 0.270280 0.209940 -0.377081
C276  C     C_3   0.095663 0.211138 0.208840 -0.891212
H146  H     H_    0.120172 0.156736 0.206932 0.279457
H147  H     H_    0.061794 0.212081 0.224258 0.258220
H148  H     H_    0.059346 0.220844 0.194209 0.244394
H149  H     H_    0.124543 0.322271 0.209946 0.218733
H150  H     H_    0.186291 0.273284 0.194188 0.192046
C277  C     C_3   0.615533 0.262883 0.722876 -0.400025
C278  C     C_3   0.627946 0.228376 0.700003 -0.900497
H151  H     H_    0.675366 0.254252 0.691450 0.257984
H152  H     H_    0.638849 0.169644 0.701767 0.274389
H153  H     H_    0.578014 0.235297 0.689463 0.244918
H154  H     H_    0.567503 0.236637 0.730930 0.205890
H155  H     H_    0.596846 0.319291 0.720498 0.221672
C279  C     C_3   0.374930 0.746136 0.282660 -0.394670
C280  C     C_3   0.439980 0.699899 0.275122 -0.866402
H156  H     H_    0.425687 0.641680 0.275421 0.269847
H157  H     H_    0.457278 0.715399 0.257996 0.274595
H158  H     H_    0.487301 0.708522 0.286637 0.225449
H159  H     H_    0.396049 0.801609 0.285678 0.190220
H160  H     H_    0.355947 0.729956 0.299497 0.195292
O69   O     O_3   0.627101 0.972387 0.661920 -0.617847
C281  C     C_3   0.671777 0.035047 0.662302 0.155769
H161  H     H_    0.640794 0.082899 0.668697 0.126114
H162  H     H_    0.692531 0.047020 0.645217 0.175416
C282  C     C_3   0.737516 0.021555 0.677789 -0.327945
H163  H     H_    0.717295 0.009928 0.694935 0.255550
H164  H     H_    0.768722 0.973637 0.671764 0.219454
C283  C     C_3   0.789174 0.086754 0.678667 -0.970235
H165  H     H_    0.811241 0.098582 0.661767 0.265658
H166  H     H_    0.836077 0.074962 0.690055 0.270950
H167  H     H_    0.759672 0.135081 0.685061 0.272035
O70   O     O_3   0.565669 0.893271 0.338898 -0.617494
C284  C     C_3   0.511545 0.840762 0.333175 0.082900
H168  H     H_    0.529100 0.814164 0.317461 0.150882
H169  H     H_    0.455793 0.863854 0.329657 0.112612
C285  C     C_3   0.505837 0.783121 0.351448 -0.291762
H170  H     H_    0.561265 0.759750 0.354716 0.229232
H171  H     H_    0.485371 0.808202 0.367098 0.276242
C286  C     C_3   0.452877 0.722632 0.344694 -1.010833
H172  H     H_    0.397004 0.744916 0.341478 0.271986
H173  H     H_    0.449032 0.682448 0.358417 0.273191
H174  H     H_    0.472982 0.694792 0.329429 0.269940
O71   O     O_3   0.938727 0.615993 0.663501 -0.607689
C287  C     C_3   0.863674 0.620689 0.656862 0.140710
H175  H     H_    0.829162 0.596172 0.670097 0.125369
H176  H     H_    0.849776 0.591161 0.641109 0.171269
C288  C     C_3   0.842851 0.700339 0.653945 -0.312113
H177  H     H_    0.847920 0.728937 0.670218 0.207039
H178  H     H_    0.881481 0.726236 0.641994 0.245908
C289  C     C_3   0.764345 0.708628 0.645029 -0.997623
H179  H     H_    0.759841 0.684325 0.628095 0.281698
H180  H     H_    0.750190 0.766956 0.643925 0.263761
H181  H     H_    0.724227 0.681645 0.656241 0.261668
O72   O     O_3   0.027747 0.629488 0.337202 -0.597208
C290  C     C_3   0.101397 0.639444 0.329851 0.156061
H182  H     H_    0.099315 0.673101 0.314491 0.174649
H183  H     H_    0.129440 0.587968 0.325024 0.089685
C291  C     C_3   0.147276 0.679594 0.347504 -0.313163
H184  H     H_    0.118473 0.730199 0.352425 0.241451
H185  H     H_    0.153827 0.645089 0.362551 0.267218
C292  C     C_3   0.223806 0.698465 0.338674 -1.032167
H186  H     H_    0.254444 0.648366 0.334369 0.265894
H187  H     H_    0.255240 0.728235 0.351725 0.281668
H188  H     H_    0.219448 0.733259 0.323605 0.268550
O73   O     O_3   0.364869 0.025820 0.665231 -0.624454
C293  C     C_3   0.321232 0.962495 0.666230 0.154700
H189  H     H_    0.354443 0.914961 0.671719 0.128850
H190  H     H_    0.296380 0.950660 0.649603 0.177397
C294  C     C_3   0.259203 0.974698 0.683072 -0.328608
H191  H     H_    0.283294 0.986668 0.699776 0.262585
H192  H     H_    0.225777 0.022102 0.677790 0.216214
C295  C     C_3   0.208960 0.908689 0.684915 -0.969693
H193  H     H_    0.183416 0.896201 0.668462 0.264320
H194  H     H_    0.164484 0.919921 0.697147 0.270663
H195  H     H_    0.240567 0.860968 0.690778 0.274601
O74   O     O_3   0.428968 0.117046 0.332455 -0.620704
C296  C     C_3   0.484111 0.170487 0.329212 0.111489
H196  H     H_    0.485983 0.183510 0.311143 0.130204
H197  H     H_    0.541274 0.153185 0.333811 0.110533
C297  C     C_3   0.464364 0.238766 0.342368 -0.296636
H198  H     H_    0.406471 0.254482 0.338712 0.221023
H199  H     H_    0.469170 0.227563 0.360550 0.262858
C298  C     C_3   0.515242 0.301597 0.336390 -1.012685
H200  H     H_    0.573608 0.287118 0.339839 0.271834
H201  H     H_    0.500634 0.349716 0.346582 0.273127
H202  H     H_    0.508993 0.315655 0.318444 0.265370
O75   O     O_3   0.073462 0.388539 0.664097 -0.607367
C299  C     C_3   0.149908 0.391798 0.659011 0.143231
H203  H     H_    0.179173 0.416325 0.673405 0.123758
H204  H     H_    0.164391 0.426153 0.644315 0.167458
C300  C     C_3   0.179018 0.315343 0.654752 -0.312325
H205  H     H_    0.172739 0.282099 0.670064 0.203469
H206  H     H_    0.146048 0.289302 0.641292 0.250155
C301  C     C_3   0.259958 0.316645 0.647714 -1.004282
H207  H     H_    0.265137 0.340209 0.630726 0.286791
H208  H     H_    0.282104 0.260684 0.647470 0.266014
H209  H     H_    0.293628 0.349344 0.659512 0.262227
O76   O     O_3   0.997092 0.366014 0.335928 -0.594228
C302  C     C_3   0.920532 0.353719 0.332829 0.155627
H210  H     H_    0.913804 0.322232 0.317117 0.172179
H211  H     H_    0.887945 0.404457 0.330566 0.095826
C303  C     C_3   0.888851 0.309248 0.352134 -0.317858
H212  H     H_    0.922594 0.259698 0.354572 0.241439
H213  H     H_    0.890629 0.341668 0.367760 0.276406
C304  C     C_3   0.809041 0.287430 0.347508 -0.992939
H214  H     H_    0.774164 0.336287 0.345285 0.264595
H215  H     H_    0.787461 0.255780 0.361828 0.281260
H216  H     H_    0.805605 0.253441 0.332210 0.264043
O77   O     O_3   0.130860 0.483549 0.161445 -0.616289
C305  C     C_3   0.159369 0.554363 0.164373 0.161073
H217  H     H_    0.191155 0.554481 0.180269 0.172256
H218  H     H_    0.115861 0.596729 0.166106 0.109651
C306  C     C_3   0.211861 0.574168 0.145325 -0.329476
H219  H     H_    0.253020 0.530259 0.143064 0.235251
H220  H     H_    0.180179 0.580503 0.129559 0.266215
C307  C     C_3   0.252129 0.645105 0.150108 -0.986826
H221  H     H_    0.211961 0.690169 0.151554 0.272858
H222  H     H_    0.290502 0.657319 0.136188 0.274039
H223  H     H_    0.284490 0.641015 0.165845 0.269654
O78   O     O_3   0.069408 0.394982 0.838600 -0.617944
C308  C     C_3   0.017532 0.340349 0.832921 0.121481
H224  H     H_    0.021069 0.330508 0.814661 0.127868
H225  H     H_    0.958721 0.354477 0.836481 0.115651
C309  C     C_3   0.036609 0.270594 0.845362 -0.296257
H226  H     H_    0.094642 0.255226 0.841870 0.215005
H227  H     H_    0.030893 0.279700 0.863631 0.268570
C310  C     C_3   0.985973 0.208531 0.838343 -1.003978
H228  H     H_    0.927472 0.222671 0.841597 0.272540
H229  H     H_    0.000028 0.159274 0.848053 0.273142
H230  H     H_    0.993053 0.196480 0.820302 0.266474
O79   O     O_3   0.386932 0.066444 0.163246 -0.625445
C311  C     C_3   0.327353 0.016781 0.161737 0.139052
H231  H     H_    0.314977 0.997025 0.178820 0.128260
H232  H     H_    0.338465 0.967607 0.151325 0.133178
C312  C     C_3   0.259664 0.055030 0.152068 -0.306738
H233  H     H_    0.246307 0.103275 0.162318 0.210189
H234  H     H_    0.271798 0.073726 0.134844 0.267002
C313  C     C_3   0.192889 0.004704 0.151311 -0.974617
H235  H     H_    0.204134 0.957677 0.140256 0.278949
H236  H     H_    0.144526 0.034472 0.144607 0.269733
H237  H     H_    0.179362 0.984822 0.168315 0.254985
O80   O     O_3   0.552360 0.123282 0.836204 -0.596140
C314  C     C_3   0.626197 0.116760 0.828762 0.144532
H238  H     H_    0.631741 0.150629 0.813531 0.169351
H239  H     H_    0.641363 0.060535 0.823700 0.085265
C315  C     C_3   0.680218 0.144899 0.846520 -0.305880
H240  H     H_    0.662240 0.199194 0.852364 0.244146
H241  H     H_    0.680744 0.107501 0.861029 0.261016
C316  C     C_3   0.758369 0.150528 0.837308 -1.026026
H242  H     H_    0.777545 0.096811 0.831350 0.267402
H243  H     H_    0.796235 0.169619 0.850692 0.281344
H244  H     H_    0.760167 0.189769 0.823280 0.261897
O81   O     O_3   0.862073 0.496087 0.164568 -0.614938
C317  C     C_3   0.839498 0.424160 0.169174 0.159149
H245  H     H_    0.813725 0.424307 0.185996 0.174482
H246  H     H_    0.886060 0.384676 0.169943 0.104102
C318  C     C_3   0.781885 0.398588 0.152131 -0.336332
H247  H     H_    0.736730 0.439053 0.151023 0.234398
H248  H     H_    0.807759 0.393141 0.135433 0.265434
C319  C     C_3   0.749530 0.325345 0.158653 -0.987097
H249  H     H_    0.793474 0.283553 0.158967 0.272909
H250  H     H_    0.707150 0.308936 0.146204 0.274895
H251  H     H_    0.723227 0.328546 0.175366 0.270963
O82   O     O_3   0.931624 0.617957 0.832237 -0.628561
C320  C     C_3   0.987406 0.670948 0.829350 0.112733
H252  H     H_    0.988271 0.686342 0.811449 0.132705
H253  H     H_    0.044462 0.651986 0.833383 0.115302
C321  C     C_3   0.969520 0.737933 0.843372 -0.311215
H254  H     H_    0.912536 0.756353 0.839583 0.215843
H255  H     H_    0.972701 0.723957 0.861391 0.269620
C322  C     C_3   0.023269 0.799590 0.838640 -0.999684
H256  H     H_    0.080810 0.782213 0.842071 0.271273
H257  H     H_    0.010174 0.846456 0.849553 0.273157
H258  H     H_    0.018518 0.816990 0.820949 0.268613
O83   O     O_3   0.618018 0.935937 0.165923 -0.618454
C323  C     C_3   0.669264 0.992260 0.170467 0.101333
H259  H     H_    0.681003 0.992187 0.188656 0.135586
H260  H     H_    0.648919 0.048011 0.166547 0.122474
C324  C     C_3   0.740717 0.978608 0.157609 -0.295100
H261  H     H_    0.766100 0.927279 0.163440 0.214844
H262  H     H_    0.728185 0.973166 0.139508 0.276835
C325  C     C_3   0.795529 0.040624 0.160748 -0.988229
H263  H     H_    0.772385 0.091652 0.153905 0.273807
H264  H     H_    0.847342 0.028029 0.151716 0.273422
H265  H     H_    0.808627 0.048529 0.178706 0.252751
O84   O     O_3   0.456636 0.875602 0.836669 -0.589725
C326  C     C_3   0.381540 0.885942 0.830834 0.143508
H266  H     H_    0.370856 0.854399 0.815329 0.166459
H267  H     H_    0.367305 0.943279 0.826876 0.086260
C327  C     C_3   0.330892 0.857529 0.849284 -0.306131
H268  H     H_    0.346521 0.801049 0.853529 0.244658
H269  H     H_    0.337323 0.891584 0.864484 0.259795
C328  C     C_3   0.250220 0.858967 0.841922 -1.018634
H270  H     H_    0.233296 0.915035 0.837654 0.268499
H271  H     H_    0.214808 0.839097 0.855721 0.279431
H272  H     H_    0.241782 0.823478 0.827128 0.260201
O85   O     O_3   0.617760 0.970654 0.615253 -0.622208
C329  C     C_3   0.626256 0.894760 0.613450 0.123341
H273  H     H_    0.573322 0.864176 0.615098 0.148953
H274  H     H_    0.664618 0.876017 0.626759 0.168009
C330  C     C_3   0.658949 0.877063 0.590580 -0.340149
H275  H     H_    0.621264 0.897174 0.577287 0.217578
H276  H     H_    0.712978 0.904867 0.588763 0.232254
C331  C     C_3   0.669814 0.795767 0.587544 -0.984612
H277  H     H_    0.709640 0.775037 0.600101 0.275486
H278  H     H_    0.691892 0.784778 0.570591 0.265038
H279  H     H_    0.616511 0.766725 0.589370 0.265662
O86   O     O_3   0.569028 0.910560 0.384669 -0.587473
C332  C     C_3   0.634948 0.943533 0.392004 0.105315
H280  H     H_    0.623358 0.993756 0.401725 0.133616
H281  H     H_    0.670578 0.956974 0.377436 0.147611
C333  C     C_3   0.676014 0.890571 0.407142 -0.308257
H282  H     H_    0.640708 0.876813 0.421695 0.229580
H283  H     H_    0.687702 0.839970 0.397729 0.229156
C334  C     C_3   0.748527 0.922607 0.415569 -0.988583
H284  H     H_    0.785362 0.935272 0.401301 0.271194
H285  H     H_    0.776648 0.882890 0.426571 0.267718
H286  H     H_    0.738080 0.972753 0.425313 0.266683
O87   O     O_3   0.963313 0.623710 0.617203 -0.616970
C335  C     C_3   0.023420 0.672385 0.617070 0.087041
H287  H     H_    0.076601 0.644544 0.613368 0.153832
H288  H     H_    0.027846 0.699816 0.633598 0.165779
C336  C     C_3   0.010432 0.729130 0.598961 -0.339342
H289  H     H_    0.003818 0.701642 0.582531 0.225845
H290  H     H_    0.958926 0.759361 0.602659 0.227741
C337  C     C_3   0.074719 0.782301 0.597578 -0.976327
H291  H     H_    0.082007 0.810991 0.613761 0.269394
H292  H     H_    0.063372 0.822920 0.584363 0.271775
H293  H     H_    0.126478 0.753339 0.593328 0.266435
O88   O     O_3   0.026577 0.624269 0.383198 -0.598698
C338  C     C_3   0.954216 0.646065 0.388568 0.107646
H294  H     H_    0.923279 0.601808 0.397076 0.128001
H295  H     H_    0.924031 0.662273 0.373126 0.160628
C339  C     C_3   0.958253 0.710843 0.404412 -0.315101
H296  H     H_    0.988979 0.695182 0.419767 0.225041
H297  H     H_    0.988508 0.755795 0.396176 0.230786
C340  C     C_3   0.881472 0.737009 0.410940 -0.994881
H298  H     H_    0.850164 0.754227 0.395881 0.272456
H299  H     H_    0.886446 0.783928 0.422460 0.267848
H300  H     H_    0.850703 0.693236 0.419568 0.261615
O89   O     O_3   0.359275 0.022705 0.618488 -0.625110
C341  C     C_3   0.337702 0.096034 0.619037 0.100434
H301  H     H_    0.384177 0.132897 0.614599 0.133025
H302  H     H_    0.316978 0.110390 0.635938 0.187972
C342  C     C_3   0.275627 0.106897 0.602043 -0.340083
H303  H     H_    0.298276 0.101597 0.584876 0.211628
H304  H     H_    0.232891 0.064389 0.604351 0.242390
C343  C     C_3   0.239447 0.180846 0.604650 -1.003460
H305  H     H_    0.209841 0.183740 0.620832 0.274204
H306  H     H_    0.198901 0.189196 0.590965 0.268858
H307  H     H_    0.281545 0.224462 0.603966 0.276926
O90   O     O_3   0.394466 0.109292 0.377081 -0.584328
C344  C     C_3   0.327380 0.074876 0.382862 0.108361
H308  H     H_    0.306418 0.101394 0.398255 0.167835
H309  H     H_    0.333116 0.016153 0.386864 0.119647
C345  C     C_3   0.270664 0.084927 0.364160 -0.347110
H310  H     H_    0.264172 0.143546 0.360627 0.229426
H311  H     H_    0.290378 0.057567 0.348751 0.237398
C346  C     C_3   0.195869 0.053518 0.370584 -0.969204
H312  H     H_    0.200729 0.994566 0.373866 0.267289
H313  H     H_    0.156132 0.061788 0.356673 0.271937
H314  H     H_    0.174305 0.080982 0.385734 0.265657
O91   O     O_3   0.059255 0.382309 0.617515 -0.615478
C347  C     C_3   0.001941 0.331220 0.614974 0.088997
H315  H     H_    0.990518 0.304557 0.631281 0.164828
H316  H     H_    0.950331 0.356929 0.608640 0.155644
C348  C     C_3   0.025978 0.273958 0.598082 -0.338543
H317  H     H_    0.040386 0.300711 0.582043 0.228664
H318  H     H_    0.075691 0.245594 0.604493 0.227059
C349  C     C_3   0.964957 0.218677 0.593811 -0.977862
H319  H     H_    0.950053 0.190722 0.609585 0.270024
H320  H     H_    0.984387 0.177701 0.581592 0.268251
H321  H     H_    0.915324 0.245737 0.586835 0.260980
O92   O     O_3   0.031337 0.363283 0.380388 -0.595457
C350  C     C_3   0.107231 0.347122 0.382074 0.102222
H322  H     H_    0.137132 0.390203 0.391519 0.141451
H323  H     H_    0.131943 0.341582 0.365114 0.148193
C351  C     C_3   0.116741 0.275648 0.394535 -0.329271
H324  H     H_    0.089664 0.279492 0.411137 0.230066
H325  H     H_    0.089827 0.231441 0.384870 0.230609
C352  C     C_3   0.198122 0.257485 0.397892 -0.957753
H326  H     H_    0.226518 0.253834 0.381518 0.265727
H327  H     H_    0.203245 0.204664 0.406567 0.265278
H328  H     H_    0.225398 0.299679 0.408274 0.266111
O93   O     O_3   0.119694 0.464807 0.115375 -0.626782
C353  C     C_3   0.137510 0.390569 0.116720 0.102308
H329  H     H_    0.090481 0.356511 0.110877 0.160135
H330  H     H_    0.151990 0.375283 0.134186 0.173939
C354  C     C_3   0.203928 0.375407 0.101801 -0.335886
H331  H     H_    0.190266 0.390293 0.084280 0.224131
H332  H     H_    0.251382 0.409027 0.107423 0.229453
C355  C     C_3   0.225831 0.295712 0.102605 -0.978999
H333  H     H_    0.240716 0.279911 0.119940 0.266787
H334  H     H_    0.274284 0.286512 0.091671 0.266677
H335  H     H_    0.179640 0.261150 0.096615 0.265400
O94   O     O_3   0.067356 0.408183 0.884331 -0.583797
C356  C     C_3   0.132201 0.440327 0.892836 0.096430
H336  H     H_    0.119853 0.491128 0.902176 0.130143
H337  H     H_    0.170890 0.452595 0.878910 0.149973
C357  C     C_3   0.169017 0.387200 0.908896 -0.306064
H338  H     H_    0.130402 0.374431 0.922750 0.232408
H339  H     H_    0.181855 0.336143 0.899868 0.229374
C358  C     C_3   0.240079 0.418364 0.918677 -0.990344
H340  H     H_    0.280004 0.430419 0.905139 0.270942
H341  H     H_    0.265311 0.378385 0.930221 0.268344
H342  H     H_    0.228296 0.468736 0.928165 0.265505
O95   O     O_3   0.404098 0.083188 0.117581 -0.591058
C359  C     C_3   0.435589 0.150589 0.111738 0.086204
H343  H     H_    0.410378 0.167512 0.095634 0.162689
H344  H     H_    0.496359 0.148162 0.108848 0.127605
C360  C     C_3   0.417616 0.207584 0.129518 -0.326674
H345  H     H_    0.357226 0.207990 0.132627 0.234664
H346  H     H_    0.446171 0.193776 0.145392 0.239613
C361  C     C_3   0.441985 0.282915 0.122188 -0.979042
H347  H     H_    0.502468 0.283980 0.119324 0.267167
H348  H     H_    0.428376 0.322792 0.135442 0.272708
H349  H     H_    0.412995 0.298809 0.106578 0.265597
O96   O     O_3   0.551719 0.122075 0.882254 -0.602380
C362  C     C_3   0.487317 0.162153 0.886834 0.110204
H350  H     H_    0.446650 0.128929 0.896296 0.141828
H351  H     H_    0.461510 0.181253 0.870980 0.162608
C363  C     C_3   0.507941 0.227885 0.901042 -0.325651
H352  H     H_    0.534403 0.209388 0.916810 0.227160
H353  H     H_    0.548126 0.261941 0.891794 0.228038
C364  C     C_3   0.440205 0.273234 0.906699 -0.979519
H354  H     H_    0.413462 0.293232 0.891173 0.269607
H355  H     H_    0.457044 0.320533 0.916987 0.267856
H356  H     H_    0.399904 0.240571 0.916344 0.265453
O97   O     O_3   0.859280 0.509939 0.118423 -0.628723
C365  C     C_3   0.838116 0.583017 0.121056 0.105349
H357  H     H_    0.882366 0.620095 0.115091 0.144856
H358  H     H_    0.826008 0.595577 0.138857 0.186516
C366  C     C_3   0.768371 0.596950 0.107422 -0.346693
H359  H     H_    0.779883 0.587234 0.089440 0.216840
H360  H     H_    0.724313 0.558904 0.112766 0.235007
C367  C     C_3   0.741444 0.674462 0.110648 -0.993539
H361  H     H_    0.725144 0.683374 0.128309 0.272589
H362  H     H_    0.692929 0.684311 0.099751 0.270138
H363  H     H_    0.785455 0.713631 0.106164 0.268610
O98   O     O_3   0.897883 0.610435 0.877421 -0.586872
C368  C     C_3   0.823724 0.593781 0.872241 0.123160
H364  H     H_    0.803538 0.551274 0.883872 0.129107
H365  H     H_    0.816288 0.574068 0.854748 0.153700
C369  C     C_3   0.777455 0.662197 0.875185 -0.317359
H366  H     H_    0.778461 0.679082 0.893022 0.233313
H367  H     H_    0.801594 0.706584 0.865032 0.224468
C370  C     C_3   0.697787 0.650184 0.867803 -1.006754
H368  H     H_    0.695536 0.632460 0.850072 0.270930
H369  H     H_    0.666784 0.701689 0.869327 0.267429
H370  H     H_    0.671186 0.608554 0.878455 0.269896
O99   O     O_3   0.608979 0.914193 0.120327 -0.595360
C371  C     C_3   0.574716 0.849144 0.113214 0.080258
H371  H     H_    0.517460 0.857210 0.106842 0.124548
H372  H     H_    0.607064 0.827550 0.098952 0.160601
C372  C     C_3   0.575111 0.792745 0.131979 -0.320800
H373  H     H_    0.632926 0.781404 0.137045 0.236997
H374  H     H_    0.545107 0.813966 0.146744 0.237568
C373  C     C_3   0.537918 0.722584 0.124530 -0.982342
H375  H     H_    0.478792 0.732459 0.120722 0.266337
H376  H     H_    0.541695 0.681935 0.138126 0.274659
H377  H     H_    0.565170 0.700440 0.109422 0.264004
O100  O     O_3   0.477652 0.870936 0.881914 -0.595213
C374  C     C_3   0.542609 0.832501 0.887475 0.105875
H378  H     H_    0.592926 0.867272 0.888719 0.119392
H379  H     H_    0.552436 0.790852 0.874396 0.166878
C375  C     C_3   0.531415 0.795366 0.910053 -0.318136
H380  H     H_    0.525806 0.837153 0.923283 0.213418
H381  H     H_    0.479830 0.762832 0.909628 0.241315
C376  C     C_3   0.595842 0.745963 0.916023 -1.013225
H382  H     H_    0.597597 0.699229 0.904387 0.279552
H383  H     H_    0.588548 0.725062 0.933261 0.268226
H384  H     H_    0.648887 0.775876 0.915218 0.262192
O101  O     O_3   0.511122 0.196833 0.557480 -0.591691
C377  C     C_3   0.444236 0.224340 0.566356 0.156006
H385  H     H_    0.458626 0.263008 0.579918 0.168749
H386  H     H_    0.409666 0.181535 0.574239 0.121577
C378  C     C_3   0.399275 0.264904 0.548603 -0.381373
H387  H     H_    0.431366 0.312140 0.542516 0.240297
H388  H     H_    0.387555 0.228662 0.534250 0.246846
C379  C     C_3   0.325630 0.290366 0.558030 -1.007131
H389  H     H_    0.292659 0.243132 0.563549 0.279772
H390  H     H_    0.293492 0.318630 0.544915 0.265701
H391  H     H_    0.334533 0.327851 0.572314 0.278251
O102  O     O_3   0.439938 0.812080 0.439659 -0.605564
C380  C     C_3   0.367211 0.788715 0.435083 0.158073
H392  H     H_    0.331264 0.834261 0.429463 0.141347
H393  H     H_    0.342869 0.764320 0.450344 0.129576
C381  C     C_3   0.370030 0.731558 0.416492 -0.336108
H394  H     H_    0.406625 0.750383 0.402824 0.274537
H395  H     H_    0.393819 0.680658 0.423194 0.204061
C382  C     C_3   0.293984 0.716388 0.406550 -0.916073
H396  H     H_    0.255225 0.698751 0.419701 0.300720
H397  H     H_    0.298180 0.672813 0.393820 0.273823
H398  H     H_    0.271899 0.765760 0.398368 0.263706
O103  O     O_3   0.820624 0.462225 0.555758 -0.583845
C383  C     C_3   0.806791 0.386979 0.556192 0.138764
H399  H     H_    0.853456 0.357407 0.564239 0.124983
H400  H     H_    0.798352 0.366142 0.538931 0.149385
C384  C     C_3   0.736711 0.372467 0.569555 -0.331023
H401  H     H_    0.742314 0.396565 0.586507 0.254299
H402  H     H_    0.688983 0.398238 0.561034 0.216928
C385  C     C_3   0.722201 0.291411 0.571821 -0.944189
H403  H     H_    0.767048 0.265497 0.581621 0.264013
H404  H     H_    0.718971 0.265455 0.555103 0.254570
H405  H     H_    0.669137 0.282576 0.580620 0.294555
O104  O     O_3   0.203748 0.589280 0.442078 -0.618463
C386  C     C_3   0.265703 0.542805 0.440964 0.147910
H406  H     H_    0.287377 0.545641 0.423640 0.189826
H407  H     H_    0.253065 0.484508 0.444213 0.092523
C387  C     C_3   0.325836 0.568982 0.457050 -0.356009
H408  H     H_    0.334831 0.627932 0.454850 0.231997
H409  H     H_    0.307827 0.559863 0.474499 0.269812
C388  C     C_3   0.398334 0.529137 0.453072 -1.029489
H410  H     H_    0.391159 0.470296 0.456179 0.272878
H411  H     H_    0.441357 0.550319 0.464580 0.272482
H412  H     H_    0.417406 0.537474 0.435644 0.274735
O105  O     O_3   0.400039 0.817286 0.558676 -0.611079
C389  C     C_3   0.460799 0.769402 0.560107 0.130564
H413  H     H_    0.456692 0.740251 0.576278 0.182641
H414  H     H_    0.515406 0.797504 0.560222 0.120241
C390  C     C_3   0.457686 0.713759 0.541206 -0.369349
H415  H     H_    0.403668 0.685530 0.541327 0.224244
H416  H     H_    0.463029 0.741945 0.525050 0.267857
C391  C     C_3   0.519608 0.658439 0.543264 -1.021550
H417  H     H_    0.574133 0.685907 0.543074 0.272983
H418  H     H_    0.516968 0.620409 0.528922 0.275497
H419  H     H_    0.513813 0.627151 0.558992 0.272887
O106  O     O_3   0.432633 0.201050 0.440639 -0.602804
C392  C     C_3   0.486545 0.254903 0.444241 0.153690
H420  H     H_    0.543090 0.233449 0.441164 0.136468
H421  H     H_    0.483134 0.276244 0.461547 0.177219
C393  C     C_3   0.471837 0.317203 0.428102 -0.308349
H422  H     H_    0.476750 0.297402 0.410617 0.255027
H423  H     H_    0.414806 0.337642 0.430611 0.217600
C394  C     C_3   0.526017 0.379140 0.431805 -1.014406
H424  H     H_    0.520624 0.400522 0.449073 0.275985
H425  H     H_    0.514022 0.423513 0.419854 0.275471
H426  H     H_    0.583371 0.360147 0.429090 0.279697
O107  O     O_3   0.215752 0.539176 0.560735 -0.571656
C395  C     C_3   0.231233 0.614067 0.561668 0.163821
H427  H     H_    0.185292 0.644337 0.569743 0.122325
H428  H     H_    0.239853 0.636077 0.544586 0.122226
C396  C     C_3   0.302243 0.626940 0.574959 -0.391867
H429  H     H_    0.348173 0.596276 0.567161 0.223309
H430  H     H_    0.316134 0.685450 0.574411 0.194207
C397  C     C_3   0.294893 0.604269 0.599359 -0.713171
H431  H     H_    0.248011 0.632918 0.607346 0.248912
H432  H     H_    0.346282 0.618380 0.608517 0.212734
H433  H     H_    0.286359 0.544903 0.600584 0.299178
O108  O     O_3   0.853282 0.392512 0.442040 -0.581349
C398  C     C_3   0.795955 0.443999 0.439198 0.172218
H434  H     H_    0.775642 0.439639 0.421713 0.182597
H435  H     H_    0.813836 0.501531 0.441497 0.085983
C399  C     C_3   0.731548 0.427183 0.454823 -0.353744
H436  H     H_    0.708921 0.372764 0.450815 0.228195
H437  H     H_    0.750728 0.426795 0.472419 0.285054
C400  C     C_3   0.670675 0.483623 0.452481 -1.029648
H438  H     H_    0.691974 0.538191 0.456879 0.267584
H439  H     H_    0.624701 0.470255 0.463948 0.273222
H440  H     H_    0.649362 0.484663 0.435073 0.283881
O109  O     O_3   0.985427 0.688648 0.058735 -0.587758
C401  C     C_3   0.912800 0.703807 0.066233 0.142253
H441  H     H_    0.916364 0.749509 0.078267 0.165420
H442  H     H_    0.888519 0.657551 0.075544 0.132741
C402  C     C_3   0.861101 0.725916 0.047010 -0.375861
H443  H     H_    0.884245 0.773850 0.038355 0.247018
H444  H     H_    0.855967 0.681305 0.034676 0.232296
C403  C     C_3   0.783743 0.742522 0.055523 -1.039367
H445  H     H_    0.758844 0.693045 0.062777 0.284592
H446  H     H_    0.748215 0.760168 0.041445 0.262048
H447  H     H_    0.785298 0.785918 0.068367 0.270193
O110  O     O_3   0.943909 0.307442 0.938329 -0.582074
C404  C     C_3   0.869808 0.284066 0.936900 0.164187
H448  H     H_    0.834505 0.326149 0.928909 0.139847
H449  H     H_    0.847561 0.272268 0.953801 0.116579
C405  C     C_3   0.866123 0.215331 0.922710 -0.333344
H450  H     H_    0.889802 0.226328 0.905940 0.252382
H451  H     H_    0.899566 0.172297 0.930778 0.224280
C406  C     C_3   0.786831 0.188868 0.919885 -0.925700
H452  H     H_    0.761104 0.179372 0.936431 0.260115
H453  H     H_    0.786368 0.137287 0.910336 0.296971
H454  H     H_    0.753762 0.229497 0.910582 0.264307
O111  O     O_3   0.326088 0.929111 0.055944 -0.595475
C407  C     C_3   0.328402 0.855132 0.062215 0.163878
H455  H     H_    0.282753 0.845882 0.074219 0.181814
H456  H     H_    0.380431 0.840530 0.071097 0.126350
C408  C     C_3   0.317486 0.804897 0.042107 -0.391491
H457  H     H_    0.268303 0.822516 0.032506 0.258974
H458  H     H_    0.366376 0.808211 0.031060 0.223084
C409  C     C_3   0.308168 0.726426 0.049534 -1.001655
H459  H     H_    0.357082 0.708672 0.059293 0.270746
H460  H     H_    0.302601 0.690796 0.034676 0.269561
H461  H     H_    0.257992 0.720591 0.059975 0.276165
O112  O     O_3   0.725418 0.994790 0.939647 -0.602025
C410  C     C_3   0.744342 0.921477 0.936030 0.136908
H462  H     H_    0.700434 0.893462 0.926224 0.140844
H463  H     H_    0.752230 0.892842 0.952229 0.146988
C411  C     C_3   0.816402 0.917427 0.922959 -0.356037
H464  H     H_    0.812030 0.951230 0.907665 0.251875
H465  H     H_    0.862123 0.938939 0.933460 0.209681
C412  C     C_3   0.833762 0.839588 0.916157 -0.937891
H466  H     H_    0.834407 0.803710 0.931024 0.284129
H467  H     H_    0.888672 0.837416 0.908027 0.280173
H468  H     H_    0.791660 0.819418 0.904142 0.256633
O113  O     O_3   0.923911 0.299384 0.056577 -0.606018
C413  C     C_3   0.986899 0.254202 0.055341 0.170570
H469  H     H_    0.998289 0.233743 0.072453 0.177663
H470  H     H_    0.038279 0.282247 0.049710 0.085681
C414  C     C_3   0.971004 0.189535 0.040052 -0.355272
H471  H     H_    0.918923 0.162804 0.045222 0.231501
H472  H     H_    0.964227 0.208648 0.022640 0.272790
C415  C     C_3   0.033469 0.134358 0.040721 -1.014276
H473  H     H_    0.086033 0.159851 0.035394 0.270605
H474  H     H_    0.020553 0.088955 0.029174 0.271623
H475  H     H_    0.040057 0.112366 0.057870 0.274998
O114  O     O_3   0.946278 0.699678 0.942332 -0.611359
C416  C     C_3   0.010241 0.743018 0.945072 0.195693
H476  H     H_    0.025817 0.763173 0.928249 0.187217
H477  H     H_    0.059357 0.713234 0.951589 0.080105
C417  C     C_3   0.993718 0.808416 0.960037 -0.368248
H478  H     H_    0.941695 0.834602 0.954551 0.234263
H479  H     H_    0.987093 0.790859 0.977609 0.278114
C418  C     C_3   0.055684 0.864092 0.959107 -1.028797
H480  H     H_    0.108887 0.839285 0.964214 0.269653
H481  H     H_    0.043197 0.909650 0.970611 0.276842
H482  H     H_    0.060596 0.885660 0.941880 0.282910
O115  O     O_3   0.709931 0.043688 0.061751 -0.595290
C419  C     C_3   0.717211 0.119150 0.058924 0.133266
H483  H     H_    0.663585 0.147619 0.061516 0.132747
H484  H     H_    0.737803 0.131018 0.041826 0.123771
C420  C     C_3   0.772482 0.147946 0.076084 -0.329678
H485  H     H_    0.755726 0.130762 0.093120 0.263783
H486  H     H_    0.827845 0.124964 0.072606 0.209901
C421  C     C_3   0.776501 0.230311 0.075481 -0.891475
H487  H     H_    0.790576 0.248789 0.058410 0.290007
H488  H     H_    0.819473 0.249578 0.087339 0.308144
H489  H     H_    0.722706 0.254092 0.080393 0.246744
O116  O     O_3   0.338253 0.916444 0.941469 -0.585450
C422  C     C_3   0.280575 0.965490 0.946147 0.150734
H490  H     H_    0.299543 0.022900 0.944906 0.119604
H491  H     H_    0.258838 0.955498 0.963221 0.169774
C423  C     C_3   0.218481 0.954025 0.929194 -0.296209
H492  H     H_    0.240864 0.958886 0.911992 0.261746
H493  H     H_    0.195439 0.898672 0.931167 0.217491
C424  C     C_3   0.157158 0.009703 0.932177 -1.014774
H494  H     H_    0.132801 0.005390 0.949105 0.270772
H495  H     H_    0.113094 0.999838 0.919614 0.272344
H496  H     H_    0.179008 0.065324 0.929776 0.273858
O117  O     O_3   0.904804 0.687776 0.986425 -0.611127
C425  C     C_3   0.828621 0.685956 0.981386 0.096705
H497  H     H_    0.801161 0.644895 0.992120 0.129945
H498  H     H_    0.817299 0.672793 0.963494 0.152461
C426  C     C_3   0.796069 0.760441 0.986200 -0.318744
H499  H     H_    0.805935 0.773902 0.003978 0.221869
H500  H     H_    0.824353 0.801692 0.975799 0.221165
C427  C     C_3   0.713444 0.762844 0.981368 -1.014804
H501  H     H_    0.702689 0.751167 0.963436 0.267615
H502  H     H_    0.691823 0.817617 0.985282 0.272167
H503  H     H_    0.683922 0.722657 0.991841 0.268335
O118  O     O_3   0.883088 0.314244 0.012930 -0.602775
C428  C     C_3   0.807458 0.331902 0.013867 0.111866
H504  H     H_    0.795259 0.378355 0.002613 0.120569
H505  H     H_    0.790593 0.346172 0.031234 0.143339
C429  C     C_3   0.762724 0.266346 0.006146 -0.343705
H506  H     H_    0.771346 0.257698 0.987979 0.204965
H507  H     H_    0.782278 0.217589 0.015195 0.220715
C430  C     C_3   0.680547 0.276168 0.010509 -1.012850
H508  H     H_    0.670246 0.282168 0.028708 0.266575
H509  H     H_    0.650085 0.227843 0.004384 0.259923
H510  H     H_    0.659667 0.324714 0.001600 0.271904
O119  O     O_3   0.361477 0.869870 0.984062 -0.596942
C431  C     C_3   0.393425 0.800684 0.981424 0.108362
H511  H     H_    0.432759 0.790833 0.995391 0.128946
H512  H     H_    0.423480 0.794618 0.965246 0.130507
C432  C     C_3   0.332185 0.743882 0.981854 -0.316328
H513  H     H_    0.298200 0.751156 0.997050 0.222867
H514  H     H_    0.295818 0.751322 0.967049 0.229203
C433  C     C_3   0.363461 0.667314 0.981636 -0.993609
H515  H     H_    0.396834 0.658414 0.966344 0.270898
H516  H     H_    0.317498 0.627569 0.981807 0.262999
H517  H     H_    0.398477 0.658272 0.996634 0.267785
O120  O     O_3   0.731196 0.981843 0.021809 -0.571878
C434  C     C_3   0.758078 0.919397 0.032845 0.203118
H518  H     H_    0.758164 0.874000 0.020776 0.137770
H519  H     H_    0.724153 0.901519 0.047367 0.084506
C435  C     C_3   0.836621 0.933530 0.041350 -0.325515
H520  H     H_    0.837896 0.984317 0.051299 0.249716
H521  H     H_    0.853743 0.888980 0.052604 0.175517
C436  C     C_3   0.892027 0.939444 0.022311 -0.845892
H522  H     H_    0.890678 0.890071 0.011704 0.249003
H523  H     H_    0.948475 0.945862 0.029282 0.235450
H524  H     H_    0.879333 0.987487 0.011982 0.294399
O121  O     O_3   0.975366 0.302258 0.982429 -0.593625
C437  C     C_3   0.052632 0.301300 0.985862 0.120630
H525  H     H_    0.064671 0.317761 0.003379 0.130569
H526  H     H_    0.083364 0.338189 0.974364 0.115122
C438  C     C_3   0.081030 0.224463 0.981970 -0.309942
H527  H     H_    0.051932 0.186172 0.993170 0.233486
H528  H     H_    0.069446 0.208309 0.964404 0.237365
C439  C     C_3   0.163782 0.219225 0.986324 -1.011877
H529  H     H_    0.194276 0.256864 0.975220 0.269655
H530  H     H_    0.182790 0.163254 0.982880 0.267536
H531  H     H_    0.176277 0.232630 0.004037 0.260887
O122  O     O_3   0.006456 0.688998 0.014107 -0.567474
C440  C     C_3   0.082100 0.687616 0.008415 0.108079
H532  H     H_    0.087943 0.708330 0.991129 0.138262
H533  H     H_    0.107352 0.632458 0.008382 0.061259
C441  C     C_3   0.126055 0.736741 0.024114 -0.344444
H534  H     H_    0.124770 0.714466 0.041334 0.245535
H535  H     H_    0.184050 0.737353 0.018378 0.166499
C442  C     C_3   0.096597 0.814194 0.024293 -0.754925
H536  H     H_    0.097316 0.837100 0.007173 0.240327
H537  H     H_    0.131779 0.848415 0.035253 0.235762
H538  H     H_    0.039342 0.815598 0.030816 0.295484
O123  O     O_3   0.733997 0.003857 0.983754 -0.586014
C443  C     C_3   0.763929 0.074349 0.981507 0.202946
H539  H     H_    0.767998 0.098045 0.998525 0.161582
H540  H     H_    0.729619 0.112396 0.971409 0.074280
C444  C     C_3   0.841092 0.068633 0.971082 -0.350630
H541  H     H_    0.864382 0.013774 0.973863 0.240618
H542  H     H_    0.836970 0.076330 0.952741 0.238382
C445  C     C_3   0.894793 0.124117 0.980747 -0.962909
H543  H     H_    0.873163 0.179595 0.978564 0.294794
H544  H     H_    0.948500 0.119869 0.972003 0.268004
H545  H     H_    0.903786 0.113844 0.998815 0.265777
O124  O     O_3   0.327220 0.962006 0.012069 -0.569913
C446  C     C_3   0.302783 0.034823 0.012343 0.131826
H546  H     H_    0.307245 0.057255 0.995177 0.116264
H547  H     H_    0.335338 0.071272 0.023592 0.068806
C447  C     C_3   0.222290 0.037732 0.019939 -0.309440
H548  H     H_    0.217281 0.012459 0.036699 0.255138
H549  H     H_    0.204985 0.095190 0.021409 0.167672
C448  C     C_3   0.170680 0.999114 0.003615 -0.848757
H550  H     H_    0.171675 0.026647 0.987170 0.234343
H551  H     H_    0.113441 0.000554 0.010120 0.238987
H552  H     H_    0.187292 0.941713 0.001475 0.293857
O125  O     O_3   0.410706 0.197872 0.486234 -0.613123
C449  C     C_3   0.333168 0.190509 0.487048 0.111124
H553  H     H_    0.317940 0.157805 0.501938 0.131995
H554  H     H_    0.309950 0.163987 0.471769 0.135839
C450  C     C_3   0.298784 0.265730 0.488928 -0.327650
H555  H     H_    0.321262 0.293839 0.503852 0.218000
H556  H     H_    0.313461 0.297988 0.473913 0.225128
C451  C     C_3   0.215002 0.261519 0.490827 -1.003593
H557  H     H_    0.191225 0.233398 0.476048 0.271175
H558  H     H_    0.191704 0.316983 0.491595 0.254867
H559  H     H_    0.199194 0.232027 0.506249 0.269350
O126  O     O_3   0.355160 0.835419 0.515207 -0.599656
C452  C     C_3   0.282106 0.855864 0.520830 0.126074
H560  H     H_    0.252335 0.868618 0.505095 0.149590
H561  H     H_    0.278010 0.905033 0.531688 0.113156
C453  C     C_3   0.243409 0.792708 0.532481 -0.324653
H562  H     H_    0.243764 0.744521 0.521421 0.223074
H563  H     H_    0.273461 0.778487 0.547991 0.255367
C454  C     C_3   0.164135 0.811303 0.538690 -1.015882
H564  H     H_    0.163261 0.856869 0.550812 0.280307
H565  H     H_    0.137552 0.763511 0.546515 0.260271
H566  H     H_    0.132005 0.826551 0.523629 0.263006
O127  O     O_3   0.870766 0.370983 0.486645 -0.601947
C455  C     C_3   0.913203 0.310477 0.493148 0.107789
H567  H     H_    0.950867 0.325324 0.507157 0.126910
H568  H     H_    0.946351 0.289284 0.478880 0.136299
C456  C     C_3   0.861504 0.250431 0.501001 -0.324846
H569  H     H_    0.827331 0.270527 0.515034 0.206072
H570  H     H_    0.824130 0.234579 0.487067 0.230115
C457  C     C_3   0.904441 0.184172 0.508831 -0.985165
H571  H     H_    0.938383 0.162189 0.494979 0.268513
H572  H     H_    0.865273 0.141632 0.514360 0.265649
H573  H     H_    0.940910 0.198616 0.523112 0.265314
O128  O     O_3   0.223333 0.530413 0.515395 -0.581505
C458  C     C_3   0.255192 0.460757 0.513359 0.135584
H574  H     H_    0.265051 0.449804 0.495356 0.130295
H575  H     H_    0.219774 0.415670 0.519636 0.071597
C459  C     C_3   0.329114 0.457978 0.525838 -0.337735
H576  H     H_    0.319450 0.461475 0.544109 0.255740
H577  H     H_    0.356057 0.405354 0.522334 0.167647
C460  C     C_3   0.381990 0.518079 0.518890 -0.811881
H578  H     H_    0.397043 0.511723 0.501081 0.251562
H579  H     H_    0.433103 0.514321 0.529063 0.231699
H580  H     H_    0.357048 0.572195 0.521607 0.288067
O129  O     O_3   0.445697 0.808230 0.485112 -0.608394
C461  C     C_3   0.517921 0.780085 0.482868 0.110581
H581  H     H_    0.548170 0.789434 0.498793 0.127239
H582  H     H_    0.551100 0.805361 0.469249 0.136341
C462  C     C_3   0.512352 0.698784 0.478266 -0.291392
H583  H     H_    0.476365 0.672775 0.490922 0.228082
H584  H     H_    0.486844 0.689899 0.461579 0.245331
C463  C     C_3   0.587827 0.662698 0.478812 -1.014772
H585  H     H_    0.624364 0.686437 0.465884 0.271612
H586  H     H_    0.581318 0.603993 0.475413 0.271302
H587  H     H_    0.613548 0.669662 0.495533 0.273096
O130  O     O_3   0.519045 0.193698 0.512495 -0.568495
C464  C     C_3   0.596080 0.189311 0.509028 0.146814
H588  H     H_    0.606685 0.167404 0.492024 0.114381
H589  H     H_    0.625040 0.153714 0.521317 0.079510
C465  C     C_3   0.630337 0.264772 0.511204 -0.322845
H590  H     H_    0.617471 0.287331 0.527970 0.241489
H591  H     H_    0.691179 0.260204 0.509738 0.160500
C466  C     C_3   0.602406 0.316858 0.493334 -0.828178
H592  H     H_    0.614758 0.295488 0.476405 0.233956
H593  H     H_    0.630403 0.369944 0.495338 0.243419
H594  H     H_    0.542091 0.325307 0.495084 0.284896
O131  O     O_3   0.181123 0.618522 0.486360 -0.603395
C467  C     C_3   0.143670 0.685410 0.483844 0.111834
H595  H     H_    0.130033 0.706122 0.500752 0.149928
H596  H     H_    0.090419 0.681888 0.474399 0.112091
C468  C     C_3   0.194261 0.739679 0.472130 -0.323527
H597  H     H_    0.244746 0.748723 0.482280 0.232749
H598  H     H_    0.211542 0.717451 0.455807 0.252249
C469  C     C_3   0.155695 0.811740 0.467994 -1.005467
H599  H     H_    0.107992 0.804010 0.456547 0.274017
H600  H     H_    0.194963 0.850169 0.460154 0.259655
H601  H     H_    0.135975 0.835385 0.483927 0.261731
O132  O     O_3   0.825583 0.475495 0.510423 -0.584938
C470  C     C_3   0.806888 0.547527 0.504625 0.111075
H602  H     H_    0.786854 0.547645 0.487093 0.145213
H603  H     H_    0.854245 0.586256 0.505080 0.065429
C471  C     C_3   0.745373 0.575861 0.519761 -0.336137
H604  H     H_    0.765857 0.580018 0.537215 0.245128
H605  H     H_    0.729712 0.631119 0.514241 0.156591
C472  C     C_3   0.677219 0.527210 0.519087 -0.774971
H606  H     H_    0.654762 0.524179 0.501855 0.241747
H607  H     H_    0.634255 0.549681 0.530257 0.233848
H608  H     H_    0.690890 0.471793 0.524887 0.288591

loop_
_geom_bond_atom_site_label_1
_geom_bond_atom_site_label_2
_ccdc_geom_bond_type
C436  H523  S    
C314  C315  S    
C363  H353  S    
O75   C299  S    
C432  H514  S    
C318  H247  S    
C412  H466  S    
C454  H566  S    
C330  H276  S    
C260  H106  S    
C420  H485  S    
C455  C456  S    
C37   C74   A    
C240  H58   S    
C79   O123  S    
C10   C154  A    
C405  H451  S    
O124  C446  S    
C336  C337  S    
C165  N5    A    
C179  C195  A    
C296  H196  S    
C427  H501  S    
C282  C283  S    
C322  H257  S    
C259  H109  S    
C177  C193  A    
C124  C133  A    
C14   C158  A    
C245  C246  S    
C4    O8    A    
C379  H390  S    
C52   C55   A    
C14   C30   A    
C380  H392  S    
C58   C82   A    
C414  H471  S    
C17   C213  A    
C33   C78   A    
C46   C198  A    
C363  C364  S    
C299  H204  S    
C60   C72   A    
C450  H556  S    
C291  H185  S    
C454  H564  S    
C22   C38   A    
C441  C442  S    
C273  C274  S    
C35   C80   A    
C111  C229  S    
C424  H496  S    
C235  C236  S    
C62   C70   A    
C303  C304  S    
C431  H512  S    
C400  H438  S    
C7    C42   S    
C261  C262  S    
C385  H403  S    
C325  H263  S    
C407  H455  S    
C378  C379  S    
C50   C66   A    
C39   C76   A    
C327  C328  S    
C3    O11   A    
C107  C150  A    
C449  H553  S    
C463  H587  S    
C410  H462  S    
C179  O99   S    
C262  H111  S    
C272  H137  S    
C351  C352  S    
C38   O114  S    
C311  H231  S    
C469  H601  S    
C411  H465  S    
O10   Zn11  S    
C458  H575  S    
C5    O17   A    
C221  H15   S    
C110  C227  S    
C121  C249  S    
O32   Zn10  S    
C180  C196  A    
C468  C469  S    
C324  C325  S    
C161  O61   S    
C291  C292  S    
C393  H423  S    
C241  H65   S    
C219  H10   S    
O119  C431  S    
C388  H411  S    
C440  H532  S    
C237  H55   S    
C200  O80   S    
O2    Zn11  S    
C400  H439  S    
C254  H93   S    
C411  C412  S    
O3    Zn10  S    
C339  H297  S    
O4    Zn13  S    
C443  H540  S    
C443  H539  S    
C343  H306  S    
O12   Zn13  S    
C225  C226  S    
C358  H342  S    
C459  H577  S    
C366  H360  S    
O26   Zn15  S    
C452  C453  S    
C179  C207  A    
C163  N7    A    
C50   C53   A    
O132  C470  S    
C123  C134  A    
C221  C222  S    
C467  C468  S    
C279  H160  S    
C237  C238  S    
C416  H477  S    
C453  H562  S    
C317  C318  S    
C358  H341  S    
C236  H48   S    
C182  O94   S    
C348  C349  S    
C434  H519  S    
C401  H441  S    
O114  C416  S    
C193  O81   S    
C301  H209  S    
C100  C150  S    
C361  H347  S    
C436  H522  S    
C313  H237  S    
C298  H200  S    
C63   C87   A    
C240  H56   S    
C195  O83   S    
C219  C220  S    
C404  C405  S    
C339  C340  S    
C220  H8    S    
O107  C395  S    
O117  C425  S    
C13   C209  A    
C416  C417  S    
C459  C460  S    
C99   C149  S    
C42   C190  A    
O85   C329  S    
C90   C140  S    
C369  C370  S    
C11   C27   A    
C158  N2    A    
C446  C447  S    
C176  O88   S    
C275  C276  S    
C271  C272  S    
C170  O90   S    
C338  H295  S    
C217  C218  S    
C359  H343  S    
O74   C296  S    
C228  H28   S    
C301  H208  S    
C316  H243  S    
C40   O116  S    
C457  H571  S    
C61   C85   A    
C425  C426  S    
C309  C310  S    
C23   C167  A    
C162  O62   S    
O21   Zn12  S    
C302  H211  S    
C246  H72   S    
O22   Zn11  S    
C168  O68   S    
C318  C319  S    
C437  H526  S    
C342  H304  S    
O128  C458  S    
C260  H108  S    
C349  H320  S    
C334  H286  S    
C289  H179  S    
C409  H459  S    
C312  C313  S    
C310  H228  S    
O29   Zn11  S    
C286  H172  S    
O30   Zn12  S    
C357  H338  S    
C87   O131  S    
C315  H240  S    
C241  C242  S    
C296  C297  S    
C13   C29   A    
C249  H84   S    
C312  H234  S    
C32   C83   A    
C227  H29   S    
C283  H165  S    
C25   O101  S    
C327  H269  S    
C126  C141  A    
C353  C354  S    
C160  O60   S    
C183  O95   S    
C279  C280  S    
C284  H168  S    
C122  C137  A    
C59   C83   A    
C295  H193  S    
C346  H313  S    
C184  C208  A    
C357  H339  S    
C414  C415  S    
C172  O92   S    
C270  H133  S    
C1    C48   S    
C156  O56   S    
C2    C47   S    
C437  C438  S    
C304  H214  S    
C3    C46   S    
C113  C144  A    
C41   C189  A    
O4    Zn4   S    
C94   C144  S    
C114  C143  A    
C66   C213  A    
C285  H171  S    
C352  H326  S    
C403  H447  S    
C29   C82   A    
C460  H578  S    
C56   C68   A    
O77   C305  S    
O70   C284  S    
C353  H330  S    
C418  H481  S    
C237  H54   S    
C416  H476  S    
C326  H266  S    
C262  H113  S    
O16   Zn1   S    
C178  C206  A    
C107  C221  S    
C368  C369  S    
C89   O21   A    
C408  C409  S    
C19   C215  A    
C61   C69   A    
C456  H570  S    
C269  H134  S    
C119  C245  S    
C294  H191  S    
C447  H549  S    
C170  C202  A    
C267  H129  S    
C242  H61   S    
C97   O39   A    
O46   Zn4   S    
O27   Zn10  S    
C22   C166  A    
C347  H316  S    
C98   O40   A    
C65   C214  A    
C298  H202  S    
C333  H282  S    
C99   O37   A    
O3    Zn14  S    
C32   O108  S    
C290  C291  S    
O36   Zn14  S    
C232  H36   S    
C206  N6    S    
C8    O20   A    
C281  H161  S    
C329  H274  S    
C182  C206  A    
C100  O32   A    
C413  H470  S    
C192  O72   S    
C377  C378  S    
C443  C444  S    
C44   C192  A    
O51   Zn5   S    
C319  H250  S    
C238  H51   S    
C380  H393  S    
C423  H493  S    
C459  H576  S    
C280  H158  S    
C293  H190  S    
C174  O86   S    
C207  N7    S    
C320  H252  S    
C48   C196  A    
C275  H150  S    
C422  H491  S    
C96   O50   A    
C124  C139  A    
C229  C230  S    
C453  C454  S    
C430  H508  S    
C181  C197  A    
C128  C129  A    
C284  C285  S    
O17   Zn4   S    
C407  H456  S    
C244  H66   S    
O35   Zn13  S    
C399  C400  S    
C382  H396  S    
C252  H86   S    
C395  H427  S    
C362  H351  S    
C28   O104  S    
C62   C86   A    
C454  H565  S    
O113  C413  S    
O2    Zn2   S    
C435  H521  S    
C27   C88   A    
O94   C356  S    
C369  H366  S    
C173  C201  A    
C355  H333  S    
C420  H486  S    
C455  H568  S    
C408  H457  S    
C263  H119  S    
C222  H13   S    
C96   C138  S    
C344  H308  S    
C248  H76   S    
C175  C203  A    
C258  H103  S    
C461  H581  S    
C336  H289  S    
C45   C197  A    
C135  C152  A    
C385  H405  S    
C230  H33   S    
C451  H559  S    
C261  H115  S    
C465  H590  S    
C323  C324  S    
C172  C204  A    
O89   C341  S    
C97   C147  S    
O39   Zn6   S    
O88   C338  S    
C364  H355  S    
C68   C215  A    
C16   C32   A    
C396  C397  S    
C155  O55   S    
C105  C217  S    
C445  H543  S    
C230  H32   S    
C10   C210  A    
C117  C241  S    
C288  H177  S    
C307  H222  S    
C347  H315  S    
C184  C200  A    
C435  C436  S    
C161  N5    A    
C316  H242  S    
C444  H541  S    
C333  C334  S    
C105  C120  A    
C231  H40   S    
C399  H436  S    
C338  C339  S    
C177  O97   S    
C53   C65   A    
C257  H104  S    
C107  C118  A    
C181  O93   S    
C225  H24   S    
C109  C116  A    
C357  C358  S    
C247  H80   S    
C449  C450  S    
C127  C144  A    
O45   Zn3   S    
O14   Zn7   S    
C103  O41   A    
C433  H515  S    
C397  H432  S    
C362  C363  S    
C134  C275  S    
C440  H533  S    
C340  H298  S    
C354  H332  S    
C255  H100  S    
C4    O12   A    
C47   C199  A    
C67   C216  A    
C18   C214  A    
C462  H584  S    
C472  H608  S    
C12   C156  A    
C367  H363  S    
C37   O113  S    
C18   C34   A    
C94   O26   A    
C13   C157  A    
C267  C268  S    
C291  H184  S    
C46   C194  A    
C288  C289  S    
C377  H386  S    
C4    C45   S    
C8    O16   A    
C304  H216  S    
C293  C294  S    
C95   C137  S    
C448  H551  S    
C235  H49   S    
C41   C185  A    
O2    Zn6   S    
C104  C146  S    
C131  C148  A    
C350  C351  S    
C112  C231  S    
O110  C404  S    
C24   C168  A    
C239  H59   S    
C410  H463  S    
C253  C254  S    
C313  H235  S    
C111  C146  A    
C3    O7    A    
C384  H402  S    
C263  C264  S    
C222  H11   S    
O1    Zn16  S    
C76   O120  S    
C123  C253  S    
C428  H505  S    
C404  H448  S    
C257  H105  S    
C134  C149  A    
C169  C201  A    
C365  C366  S    
C10   C26   A    
C75   O119  S    
C31   C84   A    
C102  O34   A    
C185  O73   S    
C276  H147  S    
O37   Zn4   S    
C467  H596  S    
O31   Zn9   S    
C294  C295  S    
C171  O91   S    
C317  H246  S    
C135  C277  S    
C268  H126  S    
C278  H151  S    
C92   O46   A    
C352  H327  S    
C73   O117  S    
C341  H302  S    
O111  C407  S    
C234  H43   S    
C299  C300  S    
C158  O58   S    
C374  H378  S    
C345  H310  S    
C302  C303  S    
C28   C87   A    
C86   O130  S    
C332  H280  S    
C244  H67   S    
C196  O84   S    
C17   C33   A    
C19   C163  A    
C299  H203  S    
C303  H213  S    
C375  C376  S    
C308  H224  S    
C387  H408  S    
C253  H94   S    
C368  H365  S    
C17   C161  A    
C303  H212  S    
C238  H53   S    
C83   O127  S    
C233  C234  S    
C249  C250  S    
C417  H479  S    
C391  H417  S    
C80   O124  S    
C19   C35   A    
O76   C302  S    
C320  C321  S    
C226  H22   S    
C223  H19   S    
C360  H346  S    
C262  H112  S    
C373  H376  S    
C250  H81   S    
C374  C375  S    
C21   C213  A    
C430  H510  S    
C228  H27   S    
C305  H217  S    
O4    Zn9   S    
C244  H68   S    
C251  C252  S    
C103  C145  S    
C309  H227  S    
C376  H382  S    
C5    O13   A    
C252  H88   S    
C366  C367  S    
C314  H239  S    
C264  H116  S    
C127  C261  S    
O72   C290  S    
C323  H259  S    
O41   Zn8   S    
C449  H554  S    
C156  N4    A    
C173  C189  A    
C264  H117  S    
O42   Zn7   S    
O80   C314  S    
C132  C147  A    
C267  H130  S    
C108  C117  A    
C355  H335  S    
C239  H60   S    
C133  C150  A    
C331  H278  S    
O126  C452  S    
C52   C76   A    
C344  C345  S    
C108  C223  S    
C48   C200  A    
C336  H290  S    
C74   O118  S    
C425  H497  S    
O28   Zn9   S    
O23   Zn14  S    
C460  H580  S    
C226  H23   S    
O115  C419  S    
C265  H125  S    
C392  H421  S    
C271  H139  S    
C56   C80   A    
C307  H223  S    
C407  C408  S    
C254  H91   S    
C198  O78   S    
C202  N2    S    
C22   C214  A    
C310  H230  S    
C130  C267  S    
C434  H518  S    
C370  H370  S    
C120  C247  S    
C362  H350  S    
C24   C216  A    
C360  H345  S    
C97   O29   A    
C261  H114  S    
C361  H349  S    
C381  C382  S    
C321  H255  S    
C424  H495  S    
C410  C411  S    
C351  H325  S    
C24   C40   A    
C82   O126  S    
C373  H375  S    
C224  H18   S    
C305  H218  S    
C432  C433  S    
C233  H45   S    
C398  H434  S    
C112  C113  A    
C273  H144  S    
C372  C373  S    
C227  C228  S    
C250  H83   S    
C129  C265  S    
C257  C258  S    
C340  H300  S    
C338  H294  S    
C337  H291  S    
C104  O36   A    
C6    O18   A    
C69   C210  A    
C98   O30   A    
C394  H425  S    
C255  C256  S    
O69   C281  S    
C127  C130  A    
C461  C462  S    
C27   O103  S    
C393  C394  S    
C346  H312  S    
C102  C152  S    
C91   C141  S    
C348  H318  S    
C251  H89   S    
C382  H398  S    
C241  H64   S    
C249  H85   S    
C388  H410  S    
C187  O75   S    
C106  C119  A    
O4    Zn8   S    
C426  H500  S    
C426  H499  S    
C176  C204  A    
C191  O71   S    
C350  H322  S    
C125  C257  S    
O24   Zn13  S    
C421  H487  S    
C166  N6    A    
C51   C67   A    
C354  H331  S    
C406  H454  S    
C9    C25   A    
C312  H233  S    
C286  H173  S    
O15   Zn2   S    
C26   O102  S    
C366  H359  S    
C472  H607  S    
C352  H328  S    
C452  H561  S    
C325  H264  S    
O116  C422  S    
C397  H431  S    
C1    O9    A    
O7    Zn10  S    
C12   C28   A    
C278  H152  S    
C20   C216  A    
C132  C271  S    
O82   C320  S    
C453  H563  S    
C93   O51   A    
C268  H128  S    
C122  C251  S    
C236  H47   S    
C34   C77   A    
C94   O52   A    
C423  H492  S    
C415  H473  S    
C159  N3    A    
C471  H605  S    
C438  C439  S    
C72   C211  A    
C16   C160  A    
C361  H348  S    
O9    Zn12  S    
C20   C164  A    
C442  H536  S    
C174  C202  A    
C354  C355  S    
C21   C165  A    
C270  H131  S    
C204  N4    S    
C373  H377  S    
C153  O53   S    
O92   C350  S    
C389  H413  S    
C386  C387  S    
C126  C259  S    
C292  H187  S    
C398  C399  S    
C221  H14   S    
C234  H41   S    
O47   Zn1   S    
C326  C327  S    
C243  H70   S    
C436  H524  S    
C397  H433  S    
C439  H531  S    
C2    O10   A    
C391  H419  S    
O127  C455  S    
C427  H502  S    
C419  H483  S    
C446  H547  S    
C269  H135  S    
C371  H372  S    
C289  H180  S    
C456  H569  S    
C383  C384  S    
C155  N3    A    
O120  C434  S    
C438  H527  S    
C286  H174  S    
C58   C61   A    
C368  H364  S    
O86   C332  S    
C457  H572  S    
C274  H142  S    
C233  H44   S    
C429  C430  S    
C398  H435  S    
C450  C451  S    
C81   O125  S    
C346  H314  S    
C413  C414  S    
C464  H589  S    
C363  H352  S    
C115  C142  A    
C305  C306  S    
C8    C41   S    
C318  H248  S    
C34   O110  S    
C342  H303  S    
C130  C145  A    
C45   C193  A    
C260  H107  S    
C349  H321  S    
C271  H140  S    
C390  H416  S    
C409  H460  S    
C297  C298  S    
C278  H153  S    
C335  H288  S    
C405  H450  S    
C470  C471  S    
O93   C353  S    
C220  H7    S    
C402  C403  S    
O121  C437  S    
C315  H241  S    
C296  H197  S    
C36   O112  S    
C92   O24   A    
C322  H258  S    
C91   O23   A    
C341  C342  S    
C365  H357  S    
C164  O64   S    
C173  O85   S    
O95   C359  S    
C289  H181  S    
C108  C149  A    
O18   Zn3   S    
O98   C368  S    
C457  H573  S    
C367  H362  S    
C223  C224  S    
C95   O27   A    
C370  H368  S    
C414  H472  S    
C297  H198  S    
C469  H599  S    
C101  O33   A    
C98   C148  S    
C240  H57   S    
O2    Zn15  S    
C371  H371  S    
C351  H324  S    
C85   O129  S    
C167  O67   S    
O131  C467  S    
C128  C263  S    
C431  H511  S    
C409  H461  S    
O106  C392  S    
C53   C77   A    
C224  H16   S    
C319  H251  S    
C392  H420  S    
C265  C266  S    
C284  H169  S    
O50   Zn8   S    
C440  C441  S    
C470  H603  S    
C315  C316  S    
C55   C79   A    
O52   Zn6   S    
O83   C323  S    
C177  C205  A    
C348  H317  S    
C272  H138  S    
C170  C186  A    
C113  C233  S    
C411  H464  S    
C356  H337  S    
C458  C459  S    
C408  H458  S    
C383  H399  S    
C15   C31   A    
O33   Zn15  S    
C50   C74   A    
C167  N7    A    
C317  H245  S    
C63   C71   A    
C49   C65   A    
C174  C190  A    
C35   O111  S    
C295  H194  S    
C393  H422  S    
C298  H201  S    
C5    C44   S    
C333  H283  S    
C219  H9    S    
C273  H145  S    
C388  H412  S    
C178  C194  A    
C6    C43   S    
C60   C63   A    
C253  H95   S    
C57   C69   A    
O125  C449  S    
C426  C427  S    
C281  H162  S    
C427  H503  S    
C208  N8    S    
C339  H296  S    
C448  H550  S    
C118  C139  A    
C157  O57   S    
O87   C335  S    
C136  C151  A    
C287  H175  S    
C51   C75   A    
C238  H52   S    
C306  H219  S    
C452  H560  S    
C464  C465  S    
C280  H157  S    
C105  C152  A    
C218  H1    S    
C285  H170  S    
C259  H110  S    
C106  C151  A    
C274  H141  S    
C188  O76   S    
C350  H323  S    
C229  H34   S    
C103  O35   A    
C279  H159  S    
C283  H167  S    
C58   C70   A    
C169  O89   S    
C225  H25   S    
C36   C79   A    
C434  C435  S    
C136  C279  S    
O103  C383  S    
C465  C466  S    
C222  H12   S    
O8    Zn9   S    
C383  H400  S    
C39   O115  S    
C6    O14   A    
C95   O49   A    
C40   C75   A    
C311  C312  S    
C306  H220  S    
O91   C347  S    
C30   C81   A    
C355  H334  S    
C239  C240  S    
C413  H469  S    
C194  O82   S    
C466  H592  S    
C349  H319  S    
O5    Zn16  S    
C263  H120  S    
C282  H164  S    
C467  H595  S    
C300  C301  S    
C425  H498  S    
C468  H597  S    
C18   C162  A    
C47   C195  A    
O19   Zn6   S    
C437  H525  S    
C227  H30   S    
O1    Zn1   S    
C90   O22   A    
O122  C440  S    
C418  H482  S    
C465  H591  S    
C111  C114  A    
O13   Zn8   S    
C347  C348  S    
C121  C136  A    
C171  C203  A    
C301  H207  S    
C402  H444  S    
C128  C143  A    
C122  C135  A    
C308  H225  S    
C115  C237  S    
O90   C344  S    
C384  H401  S    
C116  C141  A    
C20   C36   A    
C389  H414  S    
C29   O105  S    
C277  H155  S    
C442  H538  S    
C21   C37   A    
C246  H71   S    
C120  C137  A    
O3    Zn3   S    
C381  H395  S    
C328  H270  S    
C342  C343  S    
O123  C443  S    
C175  O87   S    
O104  C386  S    
C399  H437  S    
C324  H261  S    
C322  H256  S    
C88   O132  S    
O84   C326  S    
O101  C377  S    
C401  H442  S    
C189  O69   S    
C110  C115  A    
C64   C88   A    
C405  C406  S    
C49   C54   A    
C379  H389  S    
C54   C78   A    
C218  H3    S    
C314  H238  S    
C403  H446  S    
C384  C385  S    
C433  H516  S    
C470  H602  S    
C415  H475  S    
C327  H268  S    
O6    Zn15  S    
C292  H188  S    
C415  H474  S    
C429  H506  S    
O43   Zn2   S    
C84   O128  S    
O97   C365  S    
O99   C371  S    
C125  C132  A    
O71   C287  S    
C256  H97   S    
O102  C380  S    
C429  H507  S    
O49   Zn7   S    
O105  C389  S    
C381  H394  S    
C23   C215  A    
C106  C219  S    
C277  C278  S    
C288  H178  S    
C390  H415  S    
C160  N4    A    
C462  H583  S    
C112  C145  A    
C323  H260  S    
C15   C159  A    
C304  H215  S    
C334  H285  S    
C30   O106  S    
C59   C64   A    
C243  H69   S    
C129  C146  A    
C235  H50   S    
C220  H6    S    
C217  H5    S    
C431  C432  S    
C245  H75   S    
C242  H63   S    
C345  C346  S    
C119  C138  A    
C359  C360  S    
C104  O42   A    
C276  H146  S    
C404  H449  S    
C117  C140  A    
C26   C85   A    
O11   Zn14  S    
C175  C191  A    
C353  H329  S    
C468  H598  S    
C190  O70   S    
C176  C192  A    
C433  H517  S    
C300  H206  S    
O100  C374  S    
C325  H265  S    
C165  O65   S    
C272  H136  S    
C466  H594  S    
O129  C461  S    
C133  C273  S    
C455  H567  S    
C255  H99   S    
C472  H606  S    
O1    Zn5   S    
C469  H600  S    
C51   C56   A    
C456  C457  S    
C205  N5    S    
O44   Zn1   S    
C294  H192  S    
C164  N8    A    
C447  H548  S    
C25   C86   A    
C256  H98   S    
C15   C211  A    
C54   C66   A    
C11   C211  A    
C377  H385  S    
C295  H195  S    
C385  H404  S    
O118  C428  S    
C274  H143  S    
C458  H574  S    
C396  H430  S    
C31   O107  S    
C451  H557  S    
C89   C139  S    
C345  H311  S    
C199  O79   S    
C99   O31   A    
C269  C270  S    
C331  H279  S    
C329  H273  S    
C392  C393  S    
C77   O121  S    
C232  H38   S    
C92   C142  S    
C387  H409  S    
C52   C68   A    
C287  C288  S    
C406  H453  S    
C394  H426  S    
C71   C212  A    
C428  C429  S    
C64   C72   A    
C293  H189  S    
C101  O43   A    
C43   C191  A    
C364  H354  S    
C320  H253  S    
O1    Zn12  S    
C102  O44   A    
C275  H149  S    
C230  H31   S    
C422  C423  S    
C250  H82   S    
C371  C372  S    
C374  H379  S    
O73   C293  S    
C124  C255  S    
C231  C232  S    
C332  C333  S    
C168  N8    A    
C451  H558  S    
C254  H92   S    
O130  C464  S    
C157  N1    A    
C335  H287  S    
C422  H490  S    
C359  H344  S    
O20   Zn5   S    
C341  H301  S    
C234  H42   S    
C438  H528  S    
C277  H154  S    
C423  C424  S    
C378  H388  S    
C435  H520  S    
C14   C210  A    
C252  H87   S    
C376  H384  S    
C365  H358  S    
C162  N6    A    
C287  H176  S    
C154  O54   S    
C420  C421  S    
C116  C239  S    
O40   Zn5   S    
C93   O25   A    
C387  C388  S    
C297  H199  S    
C264  H118  S    
C9    C209  A    
C300  H205  S    
C344  H309  S    
C2    O6    A    
C259  C260  S    
C389  C390  S    
C430  H509  S    
C171  C187  A    
C266  H123  S    
C328  H271  S    
C258  H102  S    
C265  H124  S    
C421  H489  S    
C183  C199  A    
C281  C282  S    
C432  H513  S    
C441  H535  S    
C186  O74   S    
C447  C448  S    
C121  C138  A    
C448  H552  S    
C364  H356  S    
C181  C205  A    
C159  O59   S    
C310  H229  S    
C358  H340  S    
O96   C362  S    
C1    O5    A    
C370  H369  S    
C184  O96   S    
C302  H210  S    
C270  H132  S    
C246  H73   S    
C464  H588  S    
C125  C142  A    
C386  H406  S    
C328  H272  S    
C183  C207  A    
C441  H534  S    
C282  H163  S    
C329  C330  S    
C248  H77   S    
C424  H494  S    
C450  H555  S    
C248  H78   S    
C180  O100  S    
C231  H39   S    
C232  H37   S    
C245  H74   S    
C331  H277  S    
C391  H418  S    
C266  H122  S    
C224  H17   S    
C445  H545  S    
C33   O109  S    
C446  H546  S    
C444  H542  S    
C242  H62   S    
C247  H79   S    
C44   C188  A    
C379  H391  S    
C376  H383  S    
C419  H484  S    
C463  H585  S    
C372  H374  S    
C406  H452  S    
C7    O15   A    
C428  H504  S    
C390  C391  S    
C337  H292  S    
C340  H299  S    
C380  C381  S    
C9    C153  A    
C356  C357  S    
C109  C225  S    
C412  H468  S    
C109  C148  A    
C154  N2    A    
C57   C62   A    
C412  H467  S    
C7    O19   A    
C110  C147  A    
C218  H2    S    
C375  H380  S    
O34   Zn16  S    
O78   C308  S    
C402  H443  S    
C378  H387  S    
C311  H232  S    
C462  C463  S    
C251  H90   S    
C382  H397  S    
C401  C402  S    
O112  C410  S    
C321  H254  S    
C330  H275  S    
C332  H281  S    
C461  H582  S    
C356  H336  S    
C442  H537  S    
C89   O47   A    
C330  C331  S    
C153  N1    A    
C321  C322  S    
C285  C286  S    
C90   O48   A    
C343  H305  S    
C57   C81   A    
C439  H530  S    
O109  C401  S    
C91   O45   A    
C290  H182  S    
C93   C143  S    
C43   C187  A    
C417  H478  S    
C101  C151  S    
C418  H480  S    
C343  H307  S    
C290  H183  S    
C419  C420  S    
C439  H529  S    
C11   C155  A    
O25   Zn16  S    
C337  H293  S    
C280  H156  S    
C118  C243  S    
C266  H121  S    
C203  N3    S    
C316  H244  S    
C276  H148  S    
C131  C269  S    
C319  H249  S    
C306  C307  S    
C201  N1    S    
C283  H166  S    
C367  H361  S    
C228  H26   S    
C163  O63   S    
C169  C185  A    
C256  H96   S    
C268  H127  S    
C236  H46   S    
C217  H4    S    
C12   C212  A    
C60   C84   A    
C471  C472  S    
C42   C186  A    
C247  C248  S    
C55   C67   A    
C126  C131  A    
C172  C188  A    
C417  C418  S    
C23   C39   A    
C421  H488  S    
C463  H586  S    
C369  H367  S    
C444  C445  S    
C395  H428  S    
O108  C398  S    
C49   C73   A    
C334  H284  S    
C386  H407  S    
C292  H186  S    
C466  H593  S    
C375  H381  S    
C326  H267  S    
C100  O38   A    
C178  O98   S    
C394  H424  S    
C123  C140  A    
C78   O122  S    
C229  H35   S    
C308  C309  S    
C166  O66   S    
O3    Zn7   S    
C403  H445  S    
C258  H101  S    
C400  H440  S    
C460  H579  S    
C226  H21   S    
C360  C361  S    
O48   Zn2   S    
C114  C235  S    
C70   C209  A    
C96   O28   A    
O38   Zn3   S    
C16   C212  A    
C223  H20   S    
C182  C198  A    
C313  H236  S    
C445  H544  S    
C324  H262  S    
O81   C317  S    
C180  C208  A    
C197  O77   S    
C395  C396  S    
C307  H221  S    
C335  C336  S    
C396  H429  S    
C243  C244  S    
O79   C311  S    
C372  H373  S    
C59   C71   A    
C309  H226  S    
C471  H604  S    
C38   C73   A    
