data_mof_unit_51118.cif
_audit_creation_date              2012-12-10T17:56:43-0500
_audit_creation_method            fapswitch 2.2
_symmetry_space_group_name_H-M    P1
_symmetry_Int_Tables_number       1
_space_group_crystal_system       triclinic
_cell_length_a                    10.830041
_cell_length_b                    9.538621
_cell_length_c                    10.776257
_cell_angle_alpha                 89.981732
_cell_angle_beta                  90.406769
_cell_angle_gamma                 90.04457
_cell_volume                      1113.1983057

loop_
_atom_site_label
_atom_site_type_symbol
_atom_type_description
_atom_site_fract_x
_atom_site_fract_y
_atom_site_fract_z
_atom_type_partial_charge
C1    C     C_R   0.262132 0.499938 0.499890 0.758539
C2    C     C_R   0.737888 0.500001 0.500138 0.796798
C3    C     C_R   0.936290 0.627445 0.500600 -0.155622
C4    C     C_R   0.064031 0.627408 0.500434 -0.183312
C5    C     C_R   0.421970 0.074334 0.423818 0.512947
C6    C     C_R   0.577917 0.074352 0.576354 0.506275
C7    C     C_R   0.421864 0.925774 0.423943 0.505365
C8    C     C_R   0.577955 0.925719 0.576310 0.511050
C9    C     C_R   0.496517 0.499951 0.262529 0.775445
C10   C     C_R   0.496704 0.500021 0.737415 0.789865
C11   C     C_R   0.291046 0.629372 0.127946 -0.094151
C12   C     C_R   0.292849 0.633286 0.868979 -0.167321
C13   C     C_R   0.195405 0.694165 0.062417 -0.088045
C14   C     C_R   0.196432 0.696364 0.933322 -0.131825
C15   C     C_R   0.391552 0.568349 0.933567 0.092100
C16   C     C_R   0.391007 0.567245 0.064769 0.082910
C17   C     C_R   0.488510 0.499403 0.128768 -0.079881
C18   C     C_R   0.488814 0.499888 0.871028 -0.090565
C19   C     C_R   0.580382 0.427785 0.064608 -0.182482
C20   C     C_R   0.580373 0.427758 0.936546 -0.146638
C21   C     C_R   0.063806 0.372609 0.499528 -0.146833
C22   C     C_R   0.936081 0.372641 0.499700 -0.159352
C23   C     C_R   0.871790 0.500053 0.500184 -0.038313
C24   C     C_R   0.128288 0.499979 0.499915 -0.037770
Cu1   Cu    Cu3+1 0.500000 0.640660 0.500000 1.048365
Cu2   Cu    Cu3+1 0.500000 0.359340 0.500000 1.058067
H1    H     H_    0.653846 0.373965 0.114105 0.152129
H2    H     H_    0.653739 0.373747 0.888131 0.183270
H3    H     H_    0.284388 0.625943 0.227916 0.178914
H4    H     H_    0.287793 0.633934 0.768766 0.137932
H5    H     H_    0.119452 0.741379 0.112012 0.158146
H6    H     H_    0.121334 0.745446 0.882734 0.155069
H7    H     H_    0.111749 0.272985 0.499088 0.186414
H8    H     H_    0.887984 0.273024 0.499408 0.185708
H9    H     H_    0.888344 0.727066 0.501041 0.186862
H10   H     H_    0.112161 0.727007 0.500740 0.185944
N1    N     N_R   0.500000 0.852070 0.500000 -0.328943
N2    N     N_R   0.500000 0.147940 0.500000 -0.330888
O1    O     O_R   0.319640 0.618740 0.499990 -0.565103
O2    O     O_R   0.680360 0.618740 0.500010 -0.545190
O3    O     O_R   0.319620 0.381170 0.499990 -0.544712
O4    O     O_R   0.680380 0.381170 0.500010 -0.550509
O5    O     O_R   0.500000 0.618810 0.319650 -0.546094
O6    O     O_R   0.500000 0.618810 0.680350 -0.536265
O7    O     O_R   0.499970 0.381240 0.319640 -0.531895
O8    O     O_R   0.500030 0.381240 0.680360 -0.535342
F1    F     F_    0.343525 0.143876 0.347048 -0.600750
F2    F     F_    0.656181 0.143965 0.653320 -0.607145
F3    F     F_    0.342937 0.856481 0.347642 -0.624030
F4    F     F_    0.656287 0.856179 0.653189 -0.599139

loop_
_geom_bond_atom_site_label_1
_geom_bond_atom_site_label_2
_ccdc_geom_bond_type
C10   O8    A    
C15   C18   A    
C6    N2    A    
C9    O7    A    
C2    O2    A    
C19   H1    S    
C11   C16   A    
C3    C23   A    
C19   C20   A    
C12   C15   A    
C3    H9    S    
Cu1   N1    S    
Cu1   O5    S    
C4    H10   S    
C7    N1    A    
C21   C22   A    
Cu1   O1    S    
C11   H3    S    
C11   C13   A    
C7    F3    S    
C6    F2    S    
C2    O4    A    
C4    C24   A    
Cu1   O6    S    
C9    C17   S    
C5    F1    S    
C10   C18   S    
C18   C20   A    
Cu1   O2    S    
C22   H8    S    
C13   C14   A    
C9    O5    A    
C21   H7    S    
C8    N1    A    
Cu2   O8    S    
C10   O6    A    
C3    C4    A    
C8    F4    S    
C14   H6    S    
Cu2   O4    S    
C1    C24   S    
C21   C24   A    
C1    O3    A    
C2    C23   S    
C5    C7    A    
C1    O1    A    
C22   C23   A    
C17   C19   A    
C6    C8    A    
C20   H2    S    
Cu2   O7    S    
C12   H4    S    
Cu1   Cu2   S    
C5    N2    A    
C13   H5    S    
Cu2   N2    S    
C15   C16   A    
Cu2   O3    S    
C12   C14   A    
C16   C17   A    
