data_mof_unit_56012.cif
_audit_creation_date              2012-12-10T16:53:53-0500
_audit_creation_method            fapswitch 2.2
_symmetry_space_group_name_H-M    P1
_symmetry_Int_Tables_number       1
_space_group_crystal_system       triclinic
_cell_length_a                    7.773154
_cell_length_b                    8.567831
_cell_length_c                    10.621815
_cell_angle_alpha                 91.34476
_cell_angle_beta                  84.934642
_cell_angle_gamma                 93.875051
_cell_volume                      702.920358568

loop_
_atom_site_label
_atom_site_type_symbol
_atom_type_description
_atom_site_fract_x
_atom_site_fract_y
_atom_site_fract_z
_atom_type_partial_charge
C1    C     C_R   0.545941 0.794803 0.496770 0.969254
C2    C     C_3   0.502942 0.505822 0.120884 0.010585
C3    C     C_3   0.437904 0.341589 0.071180 0.295269
C4    C     C_3   0.691384 0.546843 0.059379 0.219640
C5    C     C_2   0.570062 0.958403 0.494939 -0.361953
C6    C     C_2   0.429928 0.041606 0.505362 -0.357518
C7    C     C_R   0.501952 0.506233 0.741909 0.932123
C8    C     C_R   0.454057 0.205206 0.503344 0.976512
C9    C     C_R   0.500559 0.503366 0.257712 0.908141
C10   C     C_3   0.378391 0.630455 0.938597 0.271800
C11   C     C_3   0.387037 0.634769 0.082614 -0.574243
C12   C     C_3   0.442260 0.343417 0.925975 -0.578051
C13   C     C_3   0.688988 0.553500 0.915898 -0.424531
C14   C     C_3   0.503330 0.509225 0.878025 0.055698
H1    H     H_    0.243091 0.592790 0.918164 0.103499
H2    H     H_    0.532583 0.256589 0.884482 0.191732
H3    H     H_    0.527867 0.254053 0.096757 0.191054
H4    H     H_    0.702279 0.009817 0.484978 0.181241
H5    H     H_    0.297711 0.990190 0.515344 0.181187
H6    H     H_    0.014141 0.382520 0.404162 0.218280
H7    H     H_    0.985858 0.617515 0.595803 0.188295
H8    H     H_    0.441073 0.751417 0.114326 0.206127
H9    H     H_    0.253404 0.619527 0.129451 0.180111
H10   H     H_    0.312377 0.307319 0.894365 0.195115
H11   H     H_    0.782168 0.471944 0.869859 0.205291
H12   H     H_    0.733457 0.673195 0.883175 0.183600
H13   H     H_    0.738018 0.664160 0.095901 0.108049
N1    N     N_2   0.950330 0.457950 0.465890 -0.170297
N2    N     N_2   0.049670 0.542050 0.534110 -0.182214
O1    O     O_R   0.389250 0.738570 0.508370 -0.612482
O2    O     O_R   0.678390 0.711620 0.486510 -0.637236
O3    O     O_R   0.355430 0.513500 0.696140 -0.629967
O4    O     O_R   0.644580 0.486550 0.674270 -0.646201
O5    O     O_R   0.321610 0.288380 0.513490 -0.623298
O6    O     O_R   0.610750 0.261430 0.491630 -0.612247
O7    O     O_R   0.355420 0.513450 0.325730 -0.610284
O8    O     O_R   0.644570 0.486500 0.303860 -0.583252
Zn1   Zn    Zn3+2 0.306940 0.517990 0.514600 0.957836
Zn2   Zn    Zn3+2 0.693060 0.482010 0.485400 0.962924
O9    O     O_3   0.805398 0.434434 0.088343 -0.758224
H14   H     H_    0.924292 0.484205 0.073332 0.319585
O10   O     O_3   0.423128 0.779794 0.888522 -0.772802
H15   H     H_    0.323087 0.844095 0.911545 0.341550
O11   O     O_3   0.272561 0.292384 0.127102 -0.764307
H16   H     H_    0.186767 0.358216 0.094771 0.344607

loop_
_geom_bond_atom_site_label_1
_geom_bond_atom_site_label_2
_ccdc_geom_bond_type
N2    Zn1   S    
C9    O7    A    
C2    C4    S    
O9    H14   S    
C5    H4    S    
O3    Zn1   S    
C10   O10   S    
C12   H10   S    
C11   H8    S    
O6    Zn2   S    
O7    Zn1   S    
C2    C3    S    
O8    Zn2   S    
C8    O5    A    
C13   C14   S    
C6    H5    S    
C7    O4    A    
C13   H11   S    
O4    Zn2   S    
C1    C5    S    
C2    C11   S    
C11   H9    S    
C1    O1    A    
C12   C14   S    
C3    H3    S    
C10   H1    S    
C10   C14   S    
C5    C6    D    
C3    O11   S    
C13   H12   S    
C7    O3    A    
O10   H15   S    
C12   H2    S    
C1    O2    A    
C4    H13   S    
O11   H16   S    
O1    Zn1   S    
C9    O8    A    
C10   C11   S    
C4    C13   S    
N1    N2    D    
C6    C8    S    
C3    C12   S    
H6    N1    S    
N1    Zn2   S    
O5    Zn1   S    
C2    C9    S    
H7    N2    S    
C7    C14   S    
C4    O9    S    
O2    Zn2   S    
C8    O6    A    
