data_mof_unit_65791.cif
_audit_creation_date              2013-03-05T16:23:50-0500
_audit_creation_method            fapswitch 2.2
_symmetry_space_group_name_H-M    P1
_symmetry_Int_Tables_number       1
_space_group_crystal_system       triclinic
_cell_length_a                    30.600054
_cell_length_b                    31.908254
_cell_length_c                    21.628509
_cell_angle_alpha                 90.039392
_cell_angle_beta                  134.987316
_cell_angle_gamma                 89.69988
_cell_volume                      14935.6123584

loop_
_atom_site_label
_atom_site_type_symbol
_atom_site_description
_atom_site_fract_x
_atom_site_fract_y
_atom_site_fract_z
_atom_type_partial_charge
O1    O     O_R   0.448310 1.000000 0.356640 -0.614200
O2    O     O_R   0.948310 0.500000 0.356640 -0.616440
O3    O     O_R   0.551720 0.000000 0.460130 -0.611212
O4    O     O_R   0.051720 0.500000 0.460130 -0.613540
C1    C     C_R   0.500138 0.999559 0.380084 0.886938
C2    C     C_R   0.000121 0.500343 0.380170 0.888671
O5    O     O_R   0.448310 0.938390 0.448250 -0.607813
O6    O     O_R   0.448310 0.061610 0.448250 -0.610831
O7    O     O_R   0.948310 0.438390 0.448250 -0.609255
O8    O     O_R   0.948310 0.561610 0.448250 -0.612843
O9    O     O_R   0.551720 0.938410 0.551740 -0.605402
O10   O     O_R   0.551720 0.061590 0.551740 -0.604699
O11   O     O_R   0.051720 0.438410 0.551740 -0.605418
O12   O     O_R   0.051720 0.561590 0.551740 -0.600886
C3    C     C_R   0.500215 0.918827 0.500232 0.892895
C4    C     C_R   0.499828 0.081175 0.499776 0.892066
C5    C     C_R   0.000210 0.418827 0.500156 0.891506
C6    C     C_R   0.999839 0.581174 0.499871 0.892416
Zn1   Zn    Zn3+2 0.430960 1.000000 0.430900 1.018461
Zn2   Zn    Zn3+2 0.930960 0.500000 0.430900 1.014359
Zn3   Zn    Zn3+2 0.569060 0.000000 0.569100 1.030398
Zn4   Zn    Zn3+2 0.069060 0.500000 0.569100 1.034488
O13   O     O_R   0.448310 0.000000 0.539870 -0.621599
O14   O     O_R   0.948310 0.500000 0.539870 -0.620663
O15   O     O_R   0.551720 0.000000 0.643360 -0.620264
O16   O     O_R   0.051720 0.500000 0.643360 -0.617553
C7    C     C_R   0.500107 0.000407 0.620157 0.866255
C8    C     C_R   0.000102 0.499648 0.620119 0.867731
C9    C     C_3   0.461522 0.736617 0.419011 0.188753
C10   C     C_3   0.451874 0.263820 0.417539 0.193817
C11   C     C_3   0.955180 0.236657 0.418982 0.190469
C12   C     C_3   0.965535 0.763761 0.418559 0.190842
C13   C     C_3   0.517884 0.763845 0.461854 0.222360
C14   C     C_3   0.504451 0.236004 0.445848 0.221765
C15   C     C_3   0.008818 0.263872 0.450578 0.222925
C16   C     C_3   0.022986 0.735870 0.469436 0.221296
C17   C     C_1   0.500684 0.874499 0.500587 -0.131272
C18   C     C_1   0.499386 0.125505 0.499081 -0.133099
C19   C     C_1   0.000634 0.374501 0.500345 -0.132754
C20   C     C_1   0.999490 0.625503 0.499431 -0.131383
C21   C     C_1   0.500364 0.625509 0.500373 -0.072824
C22   C     C_1   0.499133 0.374498 0.499002 -0.030747
C23   C     C_1   0.000191 0.125511 0.500161 -0.071028
C24   C     C_1   0.999814 0.874495 0.499736 -0.036818
C25   C     C_3   0.443373 0.764907 0.456289 -0.287042
C26   C     C_3   0.444806 0.235687 0.468382 -0.293594
C27   C     C_3   0.945782 0.264931 0.467127 -0.286395
C28   C     C_3   0.940651 0.735770 0.446496 -0.291189
C29   C     C_3   0.501271 0.791806 0.500628 -0.047595
C30   C     C_3   0.498886 0.208202 0.497853 -0.051026
C31   C     C_3   0.000934 0.291810 0.499964 -0.048123
C32   C     C_3   0.999632 0.708197 0.499044 -0.050606
C33   C     C_3   0.484550 0.736853 0.539047 0.294816
C34   C     C_3   0.493381 0.263316 0.549695 0.296238
C35   C     C_3   0.992834 0.236840 0.548954 0.294471
C36   C     C_3   0.976636 0.763443 0.528742 0.296416
C37   C     C_3   0.501028 0.708252 0.500559 -0.160323
C38   C     C_3   0.498915 0.291757 0.498103 -0.165734
C39   C     C_3   0.000655 0.208258 0.499947 -0.161073
C40   C     C_3   0.999811 0.791750 0.499353 -0.165040
C41   C     C_3   0.541944 0.764379 0.584594 -0.290652
C42   C     C_3   0.547280 0.235210 0.580766 -0.272863
C43   C     C_3   0.047746 0.264344 0.583319 -0.288158
C44   C     C_3   0.034899 0.735246 0.582212 -0.276239
C45   C     C_3   0.557293 0.736086 0.543664 0.198435
C46   C     C_3   0.551446 0.263336 0.526743 0.187133
C47   C     C_3   0.054251 0.236077 0.531869 0.195591
C48   C     C_3   0.057105 0.763252 0.550421 0.188323
C49   C     C_1   0.501030 0.837099 0.500728 0.128982
C50   C     C_1   0.499073 0.162907 0.498453 0.129186
C51   C     C_1   0.000858 0.337101 0.500273 0.129421
C52   C     C_1   0.999444 0.662904 0.499195 0.128553
C53   C     C_1   0.500689 0.662903 0.500553 0.206125
C54   C     C_1   0.498992 0.337105 0.498613 0.213662
C55   C     C_1   0.000405 0.162907 0.500142 0.206993
C56   C     C_1   0.999807 0.837100 0.499615 0.211855
H1    H     H_    0.574983 0.775692 0.653079 0.205528
H2    H     H_    0.586574 0.223567 0.648389 0.210614
H3    H     H_    0.085850 0.275621 0.651363 0.206413
H4    H     H_    0.063340 0.723631 0.649855 0.209751
H5    H     H_    0.396310 0.776648 0.420523 0.207834
H6    H     H_    0.400811 0.224430 0.444627 0.207348
H7    H     H_    0.901016 0.276685 0.440739 0.208870
H8    H     H_    0.892506 0.724585 0.403844 0.207398
C57   C     C_R   0.474759 0.033141 0.257020 0.110945
C58   C     C_R   0.960046 0.476949 0.241201 0.111649
C59   C     C_R   0.501481 0.999887 0.315719 -0.085210
C60   C     C_R   0.000781 0.501138 0.315355 -0.085575
C61   C     C_R   0.536593 0.969723 0.319091 -0.165401
C62   C     C_R   0.043606 0.525927 0.325872 -0.168480
H9    H     H_    0.561083 0.945217 0.368358 0.179165
H10   H     H_    0.076276 0.545412 0.383093 0.181270
C63   C     C_R   0.536739 0.969723 0.254898 -0.170629
C64   C     C_R   0.043223 0.526004 0.260703 -0.184369
H11   H     H_    0.561373 0.945211 0.254898 0.179717
H12   H     H_    0.075687 0.545451 0.268316 0.166903
C65   C     C_R   0.503321 0.000705 0.189621 -0.089567
C66   C     C_R   0.001293 0.500338 0.186810 -0.084705
C67   C     C_R   0.476175 0.033760 0.194976 0.142836
C68   C     C_R   0.960982 0.475967 0.180258 0.088498
C69   C     C_3   0.412001 0.051066 0.126541 -0.441833
C70   C     C_3   0.908738 0.445965 0.123973 -0.361403
C71   C     C_3   0.410426 0.050216 0.195149 -0.437195
C72   C     C_3   0.908415 0.446639 0.194832 -0.454808
H13   H     H_    0.379131 0.028873 0.071848 0.238067
H14   H     H_    0.411140 0.083319 0.106296 0.225603
H15   H     H_    0.923067 0.415287 0.118384 0.253526
H16   H     H_    0.866806 0.460608 0.061441 0.230849
H17   H     H_    0.376760 0.027402 0.180462 0.232466
H18   H     H_    0.408546 0.081975 0.214373 0.230091
H19   H     H_    0.923364 0.416534 0.231074 0.234206
H20   H     H_    0.866126 0.461155 0.172649 0.224329
C73   C     C_R   0.472859 0.967682 0.690660 0.098681
C74   C     C_R   0.974842 0.533246 0.692646 0.098121
C75   C     C_R   0.501425 0.999972 0.687226 -0.075598
C76   C     C_R   0.001363 0.499937 0.687073 -0.076633
C77   C     C_R   0.537897 0.029035 0.755521 -0.201487
C78   C     C_R   0.036049 0.469537 0.753379 -0.192125
H21   H     H_    0.563681 0.052717 0.756599 0.166088
H22   H     H_    0.060221 0.444905 0.752698 0.162727
C79   C     C_R   0.537698 0.029174 0.819636 -0.206820
C80   C     C_R   0.036058 0.469419 0.817684 -0.197187
H23   H     H_    0.563330 0.052947 0.869937 0.176551
H24   H     H_    0.060017 0.444582 0.866035 0.161864
C81   C     C_R   0.502719 0.999312 0.816445 -0.106532
C82   C     C_R   0.003229 0.500624 0.816874 -0.096048
C83   C     C_R   0.474094 0.967090 0.755371 0.133942
C84   C     C_R   0.976286 0.533792 0.757577 0.150436
C85   C     C_3   0.409026 0.952031 0.694451 -0.461132
C86   C     C_3   0.912066 0.551012 0.697712 -0.480211
C87   C     C_3   0.407642 0.952840 0.622887 -0.446562
C88   C     C_3   0.910477 0.550290 0.625947 -0.444910
H25   H     H_    0.377422 0.975401 0.684539 0.192717
H26   H     H_    0.406337 0.919871 0.711256 0.229120
H27   H     H_    0.911087 0.583218 0.716348 0.224345
H28   H     H_    0.879307 0.528692 0.686648 0.198205
H29   H     H_    0.375294 0.976765 0.571429 0.223192
H30   H     H_    0.404040 0.921149 0.598271 0.217759
H31   H     H_    0.908538 0.582087 0.603103 0.217684
H32   H     H_    0.876822 0.527501 0.573171 0.225375
O17   O     O_R   0.408300 0.500000 0.356580 -0.622758
O18   O     O_R   0.908300 0.000000 0.356580 -0.623404
O19   O     O_R   0.408400 0.500000 0.460120 -0.618145
O20   O     O_R   0.908400 0.000000 0.460120 -0.621632
C89   C     C_R   0.379935 0.500942 0.380049 0.870816
C90   C     C_R   0.879737 0.000633 0.379852 0.878240
O21   O     O_R   0.499900 0.561630 0.448170 -0.605465
O22   O     O_R   0.499900 0.438370 0.448170 -0.599180
O23   O     O_R   0.999900 0.061630 0.448170 -0.605799
O24   O     O_R   0.999900 0.938370 0.448170 -0.610197
O25   O     O_R   0.500000 0.561620 0.551710 -0.605938
O26   O     O_R   0.500000 0.438380 0.551710 -0.590556
O27   O     O_R   0.000000 0.061620 0.551710 -0.603630
O28   O     O_R   0.000000 0.938380 0.551710 -0.577066
C91   C     C_R   0.500018 0.581197 0.500026 0.866037
C92   C     C_R   0.499406 0.418810 0.499376 0.933952
C93   C     C_R   0.999983 0.081198 0.499986 0.874580
C94   C     C_R   0.999830 0.918805 0.499802 0.920890
Zn5   Zn    Zn3+2 0.499870 0.500000 0.430790 1.051705
Zn6   Zn    Zn3+2 0.999870 1.000000 0.430790 1.034270
Zn7   Zn    Zn3+2 0.500010 0.500000 0.569060 1.074973
Zn8   Zn    Zn3+2 0.000010 0.000000 0.569060 1.092793
O29   O     O_R   0.591480 0.500000 0.539730 -0.607054
O30   O     O_R   0.091480 1.000000 0.539730 -0.623012
O31   O     O_R   0.591580 0.500000 0.643270 -0.605379
O32   O     O_R   0.091580 1.000000 0.643270 -0.589730
C95   C     C_R   0.619758 0.500451 0.619749 0.965530
C96   C     C_R   0.119982 0.998706 0.620043 0.962453
O33   O     O_R   0.591630 0.965220 0.091680 -0.638272
O34   O     O_R   0.591630 0.034780 0.091680 -0.611911
O35   O     O_R   0.091630 0.465220 0.091680 -0.636232
O36   O     O_R   0.091630 0.534780 0.091680 -0.619023
C97   C     C_R   0.620124 0.999699 0.117806 0.898640
C98   C     C_R   0.120362 0.499656 0.119893 0.903736
O37   O     O_R   0.500040 0.965230 0.091630 -0.582296
O38   O     O_R   0.500040 0.034770 0.091630 -0.626144
O39   O     O_R   0.000040 0.465230 0.091630 -0.597290
O40   O     O_R   0.000040 0.534770 0.091630 -0.619852
C99   C     C_R   0.500052 0.000071 0.120397 0.909866
C100  C     C_R   0.999865 0.500040 0.119933 0.883300
Zn9   Zn    Zn3+2 0.500030 0.953570 0.000010 1.051889
Zn10  Zn    Zn3+2 0.500030 0.046430 0.000010 1.015815
Zn11  Zn    Zn3+2 0.000030 0.453570 0.000010 1.046218
Zn12  Zn    Zn3+2 0.000030 0.546430 0.000010 1.010114
O41   O     O_R   0.408450 0.965250 0.908360 -0.576006
O42   O     O_R   0.408450 0.034750 0.908360 -0.620134
O43   O     O_R   0.908450 0.465250 0.908360 -0.562620
O44   O     O_R   0.908450 0.534750 0.908360 -0.623372
O45   O     O_R   0.500040 0.965230 0.908410 -0.631134
O46   O     O_R   0.500040 0.034770 0.908410 -0.615087
O47   O     O_R   0.000040 0.465230 0.908410 -0.626088
O48   O     O_R   0.000040 0.534770 0.908410 -0.617429
C101  C     C_R   0.379750 0.000160 0.881322 0.946234
C102  C     C_R   0.879506 0.499921 0.881496 0.923577
C103  C     C_R   0.499674 0.999949 0.879315 0.861479
C104  C     C_R   0.000085 0.500039 0.879696 0.876508
C105  C     C_R   0.283047 0.468231 0.254995 0.003205
C106  C     C_R   0.782380 0.977066 0.237880 0.053354
C107  C     C_R   0.314270 0.500358 0.315668 -0.053270
C108  C     C_R   0.813755 0.999082 0.314852 -0.087558
C109  C     C_R   0.281764 0.528670 0.320734 -0.177073
C110  C     C_R   0.780747 0.016918 0.331216 -0.174475
H33   H     H_    0.305863 0.552352 0.371254 0.170905
H34   H     H_    0.804374 0.032568 0.392410 0.181175
C111  C     C_R   0.716518 0.017127 0.265653 -0.205247
C112  C     C_R   0.217455 0.528177 0.256413 -0.200914
H35   H     H_    0.691012 0.032745 0.276717 0.167840
H36   H     H_    0.192292 0.551705 0.257398 0.174423
C113  C     C_R   0.685706 0.998278 0.185258 -0.114010
C114  C     C_R   0.186216 0.498193 0.189649 -0.115748
C115  C     C_R   0.718880 0.975201 0.174359 0.120119
C116  C     C_R   0.219710 0.465923 0.194238 0.094847
C117  C     C_3   0.717637 0.975370 0.103095 0.331391
C118  C     C_3   0.217637 0.446998 0.127956 0.370403
C119  C     C_3   0.288151 0.451717 0.195771 -0.502518
C120  C     C_3   0.788133 0.978767 0.174955 -0.493001
H37   H     H_    0.305656 0.475616 0.180550 0.221182
H38   H     H_    0.314576 0.421737 0.220740 0.211508
H39   H     H_    0.807500 0.008879 0.177911 0.213634
H40   H     H_    0.812899 0.950688 0.181587 0.213149
C121  C     C_R   0.717059 0.536098 0.711384 0.045643
C122  C     C_R   0.217578 0.029674 0.690314 0.074203
C123  C     C_R   0.685206 0.498859 0.686268 -0.236861
C124  C     C_R   0.185919 0.997422 0.687400 -0.253535
C125  C     C_R   0.715961 0.462442 0.737380 0.195424
C126  C     C_R   0.217626 0.969515 0.759021 0.196414
C127  C     C_R   0.282521 0.971283 0.827150 0.193380
C128  C     C_R   0.780697 0.462500 0.805845 0.202716
C129  C     C_R   0.313874 0.000920 0.821699 -0.271432
C130  C     C_R   0.813211 0.499511 0.822107 -0.286572
C131  C     C_R   0.280651 0.031497 0.756709 0.121910
C132  C     C_R   0.780235 0.536410 0.778157 0.126513
C133  C     C_3   0.286526 0.045752 0.697088 -0.449658
C134  C     C_3   0.785718 0.567285 0.731981 -0.406401
C135  C     C_3   0.715701 0.566853 0.658075 -0.424217
C136  C     C_3   0.216578 0.043564 0.623388 -0.404315
H41   H     H_    0.310435 0.022371 0.691098 0.186107
H42   H     H_    0.304474 0.078234 0.711767 0.230322
H43   H     H_    0.808763 0.553840 0.713473 0.190376
H44   H     H_    0.804365 0.597810 0.766597 0.228583
H45   H     H_    0.697969 0.553120 0.596571 0.220195
H46   H     H_    0.693940 0.597096 0.650099 0.246520
H47   H     H_    0.199796 0.018831 0.574596 0.218802
H48   H     H_    0.194153 0.074777 0.595365 0.232295
N1    N     N_R   0.536433 0.777494 0.418899 0.260146
O49   O     O_R   0.549138 0.749801 0.389269 -0.284416
O50   O     O_R   0.540399 0.817166 0.409894 -0.344789
N2    N     N_R   0.510577 0.222170 0.388029 0.257626
O51   O     O_R   0.514952 0.249737 0.348403 -0.288616
O52   O     O_R   0.511576 0.182461 0.375507 -0.356063
N3    N     N_R   0.017680 0.277558 0.395806 0.258726
O53   O     O_R   0.023790 0.249889 0.358142 -0.287372
O54   O     O_R   0.019397 0.317238 0.384054 -0.353650
N4    N     N_R   0.048771 0.721913 0.436415 0.258341
O55   O     O_R   0.066654 0.749394 0.413828 -0.288135
O56   O     O_R   0.054040 0.682178 0.429252 -0.348539
N5    N     N_2   0.684559 0.010812 0.041997 -0.326537
H49   H     H_    0.673617 0.006449 0.985089 0.236395
C137  C     C_3   0.703358 0.053495 0.073854 -0.744033
H50   H     H_    0.663884 0.075020 0.025443 0.248840
H51   H     H_    0.741968 0.062578 0.081566 0.246775
H52   H     H_    0.717702 0.057543 0.136984 0.260206
N6    N     N_2   0.699306 0.935362 0.058095 -0.311441
H53   H     H_    0.712868 0.931905 0.026185 0.236177
C138  C     C_3   0.636603 0.921886 0.005865 -0.688765
H54   H     H_    0.628548 0.891944 0.972983 0.242755
H55   H     H_    0.603534 0.945607 0.955012 0.232072
H56   H     H_    0.628941 0.916060 0.048039 0.266623
N7    N     N_2   0.183183 0.471250 0.047279 -0.312227
H57   H     H_    0.174788 0.454812 0.998705 0.247496
C139  C     C_3   0.198460 0.514702 0.050456 -0.764240
H58   H     H_    0.157788 0.530585 0.988771 0.251537
H59   H     H_    0.237410 0.516523 0.056144 0.247099
H60   H     H_    0.210765 0.531797 0.105533 0.257515
N8    N     N_2   0.199962 0.402837 0.110382 -0.311886
H61   H     H_    0.229995 0.382819 0.163097 0.250175
C140  C     C_3   0.136046 0.392806 0.058629 -0.676867
H62   H     H_    0.126268 0.360942 0.030888 0.246925
H63   H     H_    0.104276 0.415150 0.003605 0.248674
H64   H     H_    0.127470 0.392736 0.100627 0.249269
N9    N     N_R   0.682062 0.425119 0.717861 0.239277
O57   O     O_R   0.642909 0.409936 0.639101 -0.353900
O58   O     O_R   0.692484 0.405059 0.779632 -0.287018
N10   N     N_R   0.184589 0.938773 0.761249 0.251643
O59   O     O_R   0.144982 0.914288 0.694707 -0.345682
O60   O     O_R   0.194705 0.934736 0.830371 -0.289168
N11   N     N_R   0.418056 0.722896 0.328355 0.254895
O61   O     O_R   0.387665 0.750556 0.265730 -0.299031
O62   O     O_R   0.409278 0.683215 0.309407 -0.350151
N12   N     N_R   0.400065 0.278049 0.327967 0.253218
O63   O     O_R   0.363940 0.250744 0.266018 -0.318589
O64   O     O_R   0.389403 0.317837 0.309384 -0.379834
N13   N     N_R   0.904972 0.222969 0.328834 0.254736
O65   O     O_R   0.870026 0.250652 0.266662 -0.309196
O66   O     O_R   0.894686 0.183295 0.309913 -0.356809
N14   N     N_R   0.928172 0.777903 0.329087 0.254218
O67   O     O_R   0.901778 0.750540 0.266989 -0.313474
O68   O     O_R   0.920817 0.817669 0.310646 -0.357690
N15   N     N_R   0.316156 0.942112 0.898817 0.251820
O69   O     O_R   0.357302 0.955509 0.978991 -0.390848
O70   O     O_R   0.305816 0.902090 0.884213 -0.265487
N16   N     N_R   0.812481 0.424290 0.853011 0.259762
O71   O     O_R   0.847055 0.422336 0.936648 -0.385161
O72   O     O_R   0.803465 0.390573 0.811434 -0.275996
N17   N     N_R   0.619494 0.721741 0.590544 0.255003
O73   O     O_R   0.662777 0.748964 0.623780 -0.312033
O74   O     O_R   0.632197 0.681932 0.599594 -0.384380
N18   N     N_R   0.609547 0.276979 0.557702 0.261158
O75   O     O_R   0.649984 0.249267 0.580020 -0.297358
O76   O     O_R   0.621430 0.316639 0.563368 -0.283111
N19   N     N_R   0.113360 0.221723 0.566296 0.254504
O77   O     O_R   0.154609 0.248941 0.590980 -0.310779
O78   O     O_R   0.125342 0.181912 0.572747 -0.367971
N20   N     N_R   0.120793 0.776841 0.606483 0.260162
O79   O     O_R   0.164812 0.749092 0.645787 -0.297393
O80   O     O_R   0.134098 0.816493 0.617820 -0.299996
N21   N     N_R   0.466019 0.723038 0.581927 0.241487
O81   O     O_R   0.453308 0.750654 0.611657 -0.341316
O82   O     O_R   0.462040 0.683346 0.590792 -0.357645
N22   N     N_R   0.487244 0.277317 0.607409 0.245122
O83   O     O_R   0.482915 0.249831 0.647191 -0.336746
O84   O     O_R   0.486060 0.317048 0.619602 -0.342206
N23   N     N_R   0.983943 0.223005 0.603607 0.242207
O85   O     O_R   0.977901 0.250607 0.641436 -0.335761
O86   O     O_R   0.981969 0.183309 0.614968 -0.354546
N24   N     N_R   0.950891 0.777593 0.561705 0.244524
O87   O     O_R   0.932984 0.750211 0.584400 -0.338506
O88   O     O_R   0.945633 0.817356 0.568705 -0.345942

loop_
_geom_bond_atom_site_label_1
_geom_bond_atom_site_label_2
_geom_bond_distance
_ccdc_geom_bond_type
C17   C49   1.193366 T    
O18   C90   1.280431 A    
O42   C101  1.270654 A    
C120  H39   1.109410 S    
C106  C120  1.491712 S    
O38   Zn10  2.016267 S    
C122  C136  1.493573 S    
O35   Zn11  2.019439 S    
N10   O59   1.301058 A    
O28   C94   1.281173 A    
C35   C39   1.538690 S    
C77   H21   1.083643 S    
C58   C60   1.379675 A    
C139  H58   1.110120 S    
C9    C13   1.530672 S    
C125  C128  1.403359 A    
C5    C19   1.414336 S    
C11   C39   1.538712 S    
C105  C107  1.386172 A    
C6    C20   1.414424 S    
O47   C104  1.273376 A    
N4    O56   1.300162 A    
C8    C76   1.421136 S    
C46   N18   1.457112 S    
O38   C99   1.270270 A    
O26   C92   1.281233 A    
O8    Zn2   2.003884 S    
O25   Zn7   2.001884 S    
C109  C112  1.392004 A    
N11   O62   1.300173 A    
N24   O87   1.300191 A    
C27   H7    1.110103 S    
O21   C91   1.281049 A    
C57   C71   1.492663 S    
O17   C89   1.278508 A    
O5    C3    1.281462 A    
O6    C4    1.281502 A    
C29   C49   1.445209 S    
N1    O49   1.300194 A    
C31   C51   1.445178 S    
N2    O52   1.300181 A    
C23   C55   1.193289 T    
C57   C59   1.389701 A    
N23   O85   1.300191 A    
O30   C96   1.279604 A    
C10   C14   1.531035 S    
N20   O79   1.300197 A    
C40   C56   1.447043 S    
C9    C25   1.549274 S    
Zn1   O13   2.016795 S    
C32   C52   1.445268 S    
C74   C84   1.373606 A    
C62   H10   1.083409 S    
C132  C134  1.495359 S    
C64   H12   1.083536 S    
O24   Zn6   2.002242 S    
C85   H25   1.112128 S    
N14   O67   1.300203 A    
C67   C69   1.494020 S    
O5    Zn1   1.998931 S    
N7    C139  1.451509 S    
C15   C31   1.534476 S    
C66   C100  1.415918 S    
O48   C104  1.270462 A    
N6    C138  1.444249 S    
C25   H5    1.110099 S    
C137  H51   1.110210 S    
C16   C48   1.530771 S    
C89   C107  1.421672 S    
C30   C50   1.445309 S    
C87   H30   1.111567 S    
O8    C6    1.281694 A    
C76   C78   1.401089 A    
C90   C108  1.429346 S    
C78   H22   1.083697 S    
C79   H23   1.082963 S    
Zn12  O44   2.019194 S    
C28   C32   1.551672 S    
C108  C110  1.403041 A    
C81   C83   1.393149 A    
C19   C51   1.193349 T    
C106  C108  1.390090 A    
Zn10  O46   2.015764 S    
C13   C29   1.534489 S    
O19   Zn7   2.017700 S    
Zn7   O31   2.017109 S    
C73   C75   1.390136 A    
C7    C75   1.422469 S    
C58   C72   1.487171 S    
C14   C46   1.530820 S    
C88   H31   1.111575 S    
C71   H18   1.111618 S    
C12   C16   1.530755 S    
C81   C103  1.427329 S    
C2    C60   1.416433 S    
N5    H49   1.031524 S    
C78   C80   1.390636 A    
C37   C53   1.447127 S    
C24   C56   1.193195 T    
C3    C17   1.414375 S    
C133  H41   1.112141 S    
C39   C47   1.538755 S    
C26   H6    1.110081 S    
C33   C41   1.547587 S    
O17   Zn5   2.017110 S    
C41   H1    1.110043 S    
N17   O74   1.300202 A    
C35   C43   1.547531 S    
C36   C44   1.547518 S    
C61   H9    1.083701 S    
O26   Zn7   2.001383 S    
C16   C32   1.534580 S    
O37   Zn9   2.015764 S    
C25   C33   1.547366 S    
C63   H11   1.083404 S    
Zn8   O32   2.017109 S    
C140  H62   1.109856 S    
O34   Zn10  2.014530 S    
O32   C96   1.275284 A    
C109  H33   1.083603 S    
O9    C3    1.281542 A    
N18   O76   1.300116 A    
C111  H35   1.083795 S    
N16   O72   1.301219 A    
O6    Zn1   2.003884 S    
C42   C46   1.549250 S    
O10   C4    1.281551 A    
C119  H38   1.111657 S    
C72   H20   1.111515 S    
O9    Zn3   2.003218 S    
C16   N4    1.457287 S    
N23   O86   1.300212 A    
N22   O84   1.300224 A    
C83   C85   1.493714 S    
C79   C81   1.401581 A    
N13   O65   1.300209 A    
C57   C67   1.373052 A    
C41   C45   1.549721 S    
O4    Zn4   2.016965 S    
C112  C114  1.403667 A    
C15   C47   1.530959 S    
C70   H15   1.111480 S    
C134  H44   1.111583 S    
C122  C124  1.387626 A    
C138  H55   1.107290 S    
O46   C103  1.272730 A    
C127  C129  1.413608 A    
C114  C116  1.402062 A    
N19   O78   1.300237 A    
C139  H59   1.110143 S    
C80   H24   1.081756 S    
C63   C65   1.402267 A    
C38   C54   1.447011 S    
C69   H14   1.111562 S    
Zn3   O15   2.016477 S    
C82   C84   1.393674 A    
C102  C130  1.442720 S    
C42   H2    1.110180 S    
C97   C113  1.420350 S    
O14   C8    1.278643 A    
C23   C93   1.414014 S    
C74   C76   1.389907 A    
C123  C125  1.406180 A    
N9    O58   1.301137 A    
O23   Zn6   2.001741 S    
O25   C91   1.281265 A    
C10   C26   1.549668 S    
O12   Zn4   1.998262 S    
N10   O60   1.301143 A    
C121  C132  1.369558 A    
O36   C98   1.278069 A    
C61   C63   1.391554 A    
C133  C136  1.518059 S    
C21   C53   1.193252 T    
C1    C59   1.421501 S    
C82   C104  1.428540 S    
C69   C71   1.518625 S    
C126  C127  1.407699 A    
C140  H64   1.109528 S    
O33   C97   1.265886 A    
N24   O88   1.300220 A    
C21   C91   1.413966 S    
C139  H60   1.106983 S    
C18   C50   1.193434 T    
C24   C94   1.413866 S    
N8    H61   1.032400 S    
C101  C129  1.432175 S    
C128  C130  1.423090 A    
N6    H53   1.032020 S    
C110  H34   1.083385 S    
C117  N6    1.457911 S    
O1    C1    1.278788 A    
Zn6   O30   2.017700 S    
C136  H47   1.112233 S    
C36   N24   1.456961 S    
C112  H36   1.083517 S    
C64   C66   1.407490 A    
N20   O80   1.300207 A    
O19   C89   1.275053 A    
N12   O63   1.300245 A    
Zn10  O42   2.019194 S    
N21   O82   1.300203 A    
C44   H4    1.110099 S    
Zn9   O45   2.016267 S    
C75   C77   1.401961 A    
C110  C111  1.390339 A    
C35   N23   1.456980 S    
Zn12  O48   2.015764 S    
C13   N1    1.457299 S    
C125  N9    1.437194 S    
C58   C68   1.338841 A    
N14   O68   1.300194 A    
C9    N11   1.457017 S    
C11   C27   1.549328 S    
N7    H57   1.031457 S    
C121  C135  1.492487 S    
O18   Zn6   2.017110 S    
C12   C28   1.549511 S    
O28   Zn8   2.001383 S    
C62   C64   1.401264 A    
C12   N14   1.457103 S    
O35   C98   1.266246 A    
O1    Zn1   2.016726 S    
C29   C41   1.551768 S    
O2    Zn2   2.016726 S    
C120  H40   1.112208 S    
C31   C43   1.551739 S    
N3    O53   1.300224 A    
C32   C44   1.551824 S    
O41   C101  1.272223 A    
C33   C37   1.538706 S    
C27   C31   1.551722 S    
C34   C42   1.547372 S    
O39   Zn11  2.015764 S    
C36   C40   1.538715 S    
C124  C126  1.414821 A    
O22   Zn5   2.002242 S    
C86   C88   1.518322 S    
C133  H42   1.111559 S    
N4    O55   1.300223 A    
C87   H29   1.112163 S    
Zn11  O43   2.014272 S    
O45   C103  1.270518 A    
O7    Zn2   1.998931 S    
N11   O61   1.300186 A    
C25   C29   1.551697 S    
C118  N8    1.462596 S    
C26   C34   1.547609 S    
C15   N3    1.457296 S    
C131  C133  1.493796 S    
O33   Zn9   2.019439 S    
O20   C90   1.276949 A    
C86   H27   1.111590 S    
C9    C37   1.538643 S    
C66   C68   1.381693 A    
N1    O50   1.300167 A    
O43   C102  1.268444 A    
C128  N16   1.435114 S    
C11   C15   1.530774 S    
O4    C2    1.273980 A    
C127  N15   1.436861 S    
C134  C135  1.517792 S    
C12   C40   1.538679 S    
C44   C48   1.549464 S    
N2    O51   1.300252 A    
C117  C120  1.530562 S    
O24   C94   1.281077 A    
C117  N5    1.465806 S    
C33   N21   1.456977 S    
C37   C45   1.538687 S    
O3    C1    1.274902 A    
C84   C86   1.494052 S    
O40   C100  1.268235 A    
O11   C5    1.281636 A    
C88   H32   1.112160 S    
O27   Zn8   2.001884 S    
C71   H17   1.112164 S    
C129  C131  1.390071 A    
C105  C116  1.374382 A    
O11   Zn4   2.003218 S    
O27   C93   1.281350 A    
C65   C99   1.428373 S    
C116  C118  1.514762 S    
C85   H26   1.111559 S    
C40   C48   1.538598 S    
C121  C123  1.385535 A    
N17   O73   1.300179 A    
Zn4   O16   2.016477 S    
C107  C109  1.400711 A    
O22   C92   1.281030 A    
O23   C93   1.280963 A    
C11   N13   1.457107 S    
O34   C97   1.275361 A    
N19   O77   1.300202 A    
O12   C6    1.281333 A    
C22   C92   1.413955 S    
N15   O69   1.300994 A    
C137  H52   1.107547 S    
O21   Zn5   2.001741 S    
C13   C45   1.530902 S    
C43   H3    1.110098 S    
N8    C140  1.446144 S    
C119  H37   1.109386 S    
N3    O54   1.300189 A    
C77   C79   1.391034 A    
C38   C46   1.538734 S    
C135  H45   1.112246 S    
Zn2   O14   2.016795 S    
C70   H16   1.111219 S    
O13   C7    1.279236 A    
C138  H54   1.110409 S    
C105  C119  1.491272 S    
O44   C102  1.280184 A    
C20   C52   1.193401 T    
O2    C2    1.277521 A    
C96   C124  1.427668 S    
C65   C67   1.393753 A    
C34   N22   1.456978 S    
C69   H13   1.111985 S    
C43   C47   1.549622 S    
C14   C30   1.534548 S    
Zn9   O41   2.014272 S    
C118  C119  1.535634 S    
O37   C99   1.273493 A    
N9    O57   1.300480 A    
O10   Zn3   1.998262 S    
C28   H8    1.110092 S    
C118  N7    1.465370 S    
N5    C137  1.451552 S    
C80   C82   1.401970 A    
O29   C95   1.275515 A    
C135  H46   1.111547 S    
O36   Zn12  2.014530 S    
C111  C113  1.400240 A    
C130  C132  1.393178 A    
O39   C100  1.269713 A    
C95   C123  1.417187 S    
C68   C70   1.488941 S    
C48   N20   1.457158 S    
C70   C72   1.539704 S    
C106  C115  1.375969 A    
N15   O70   1.301188 A    
C22   C54   1.193184 T    
C45   N17   1.457130 S    
O7    C5    1.281354 A    
C115  C117  1.514694 S    
C122  C131  1.368550 A    
C140  H63   1.108052 S    
C14   N2    1.457292 S    
C30   C42   1.551758 S    
Zn5   O29   2.017700 S    
O3    Zn3   2.016965 S    
C137  H50   1.109575 S    
C39   C55   1.447147 S    
N18   O75   1.300223 A    
C27   C35   1.547408 S    
C34   C38   1.538671 S    
C28   C36   1.547581 S    
N16   O71   1.299611 A    
C73   C87   1.492807 S    
O20   Zn8   2.017700 S    
C98   C114  1.428161 S    
C74   C88   1.492870 S    
C86   H28   1.112389 S    
C60   C62   1.408485 A    
Zn11  O47   2.016267 S    
C72   H19   1.111705 S    
C73   C83   1.373295 A    
O15   C7    1.274955 A    
C26   C30   1.551797 S    
O16   C8    1.274837 A    
N22   O83   1.300207 A    
C136  H48   1.111664 S    
C59   C61   1.401652 A    
N13   O66   1.300189 A    
C47   N19   1.457156 S    
C10   C38   1.538771 S    
C113  C115  1.399484 A    
N12   O64   1.300270 A    
C134  H43   1.112337 S    
N21   O81   1.300179 A    
C138  H56   1.106630 S    
C126  N10   1.437296 S    
C10   N12   1.457326 S    
O31   C95   1.273906 A    
O40   Zn12  2.016267 S    
C4    C18   1.414459 S    
C85   C87   1.518406 S    
