data_mof_unit_27158.cif
_audit_creation_date              2012-12-10T17:02:31-0500
_audit_creation_method            fapswitch 2.2
_symmetry_space_group_name_H-M    P1
_symmetry_Int_Tables_number       1
_space_group_crystal_system       triclinic
_cell_length_a                    10.769065
_cell_length_b                    11.018546
_cell_length_c                    9.98583
_cell_angle_alpha                 111.362657
_cell_angle_beta                  98.679635
_cell_angle_gamma                 91.574301
_cell_volume                      1086.48087933

loop_
_atom_site_label
_atom_site_type_symbol
_atom_type_description
_atom_site_fract_x
_atom_site_fract_y
_atom_site_fract_z
_atom_type_partial_charge
C1    C     C_R   0.489356 0.254242 0.440580 0.828094
C2    C     C_R   0.736601 0.499934 0.499561 0.785442
C3    C     C_R   0.143220 0.737683 0.552935 -0.135183
C4    C     C_R   0.856351 0.261967 0.445415 -0.138645
C5    C     C_R   0.085172 0.853574 0.577769 -0.132322
C6    C     C_R   0.914074 0.145704 0.418499 -0.137185
C7    C     C_R   0.956037 0.853475 0.577330 -0.126474
C8    C     C_R   0.042949 0.145483 0.417211 -0.128770
C9    C     C_R   0.884478 0.737475 0.551943 -0.115072
C10   C     C_R   0.114632 0.261596 0.443291 -0.108712
C11   C     C_R   0.941422 0.618409 0.525646 0.067604
C12   C     C_R   0.508332 0.745755 0.559530 0.831272
C13   C     C_R   0.058127 0.381127 0.472178 0.074711
C14   C     C_R   0.072332 0.618558 0.526491 0.066607
C15   C     C_R   0.927350 0.381146 0.472262 0.067265
C16   C     C_R   0.870451 0.499759 0.498799 -0.160847
C17   C     C_R   0.129363 0.500055 0.500595 -0.158457
C18   C     C_1   0.366411 0.424633 0.834874 0.358128
C19   C     C_1   0.589085 0.628237 0.182984 0.350273
C20   C     C_1   0.681712 0.589401 0.924949 0.446453
C21   C     C_1   0.404128 0.315658 0.049779 0.442860
C22   C     C_2   0.480268 0.114153 0.407731 -0.355004
C23   C     C_2   0.511117 0.885847 0.592925 -0.351125
C24   C     C_2   0.492957 0.069842 0.516489 -0.154236
C25   C     C_2   0.485332 0.930338 0.485038 -0.142418
C26   C     C_2   0.506356 0.516099 0.083061 -0.038403
C27   C     C_2   0.483187 0.497389 0.921820 -0.049311
C28   C     C_R   0.263347 0.500013 0.500341 0.784318
Cu1   Cu    Cu3+1 0.521920 0.521810 0.644910 0.960928
Cu2   Cu    Cu3+1 0.478080 0.478190 0.355090 0.963401
H1    H     H_    0.087610 0.055051 0.395886 0.141133
H2    H     H_    0.510969 0.136692 0.630064 0.191447
H3    H     H_    0.535136 0.952988 0.706019 0.163886
H4    H     H_    0.462982 0.046929 0.294394 0.164054
H5    H     H_    0.911102 0.943597 0.596924 0.141887
H6    H     H_    0.243795 0.742488 0.554500 0.125157
H7    H     H_    0.755885 0.257341 0.444817 0.126051
H8    H     H_    0.140686 0.943765 0.597645 0.149603
H9    H     H_    0.858476 0.055438 0.398155 0.149756
H10   H     H_    0.784431 0.742172 0.553030 0.131505
H11   H     H_    0.214519 0.256700 0.441146 0.125759
H12   H     H_    0.460140 0.863615 0.371899 0.192930
N1    N     N_2   0.445130 0.445420 0.137360 -0.261869
N2    N     N_2   0.554870 0.554580 0.862640 -0.267009
N3    N     N_1   0.272516 0.365020 0.767887 -0.294250
N4    N     N_1   0.656775 0.717910 0.260787 -0.313806
N5    N     N_1   0.787358 0.618139 0.975669 -0.306421
N6    N     N_1   0.370264 0.207624 0.977749 -0.335775
O1    O     O_R   0.511700 0.332340 0.577400 -0.585694
O2    O     O_R   0.488300 0.667660 0.422600 -0.577874
O3    O     O_R   0.474680 0.295500 0.332650 -0.581056
O4    O     O_R   0.525320 0.704500 0.667350 -0.576466
O5    O     O_R   0.338170 0.518410 0.622370 -0.570061
O6    O     O_R   0.661830 0.481590 0.377630 -0.576142
O7    O     O_R   0.301150 0.481570 0.377630 -0.573679
O8    O     O_R   0.698850 0.518430 0.622370 -0.578256

loop_
_geom_bond_atom_site_label_1
_geom_bond_atom_site_label_2
_ccdc_geom_bond_type
C25   H12   S    
C9    H10   S    
C12   O2    A    
Cu2   O3    S    
C24   H2    S    
Cu1   Cu2   S    
Cu1   O8    S    
C2    C16   S    
Cu2   O7    S    
C14   C17   A    
C13   C17   A    
C28   O5    A    
C21   N6    T    
C17   C28   S    
C4    C15   A    
C13   C15   A    
Cu2   O2    S    
C19   N4    T    
C1    C22   S    
C2    O8    A    
C5    H8    S    
C4    H7    S    
C10   H11   S    
Cu2   O6    S    
C12   C23   S    
C9    C11   A    
C26   C27   S    
C3    C14   A    
Cu1   O5    S    
C3    H6    S    
C6    C8    A    
C8    C10   A    
C20   N2    S    
C28   O7    A    
C26   N1    D    
C23   C25   D    
Cu1   N2    S    
C22   H4    S    
C11   C14   A    
C22   C24   D    
Cu2   N1    S    
C20   N5    T    
C15   C16   A    
C18   N3    T    
C7    C9    A    
C24   C25   S    
C4    C6    A    
C2    O6    A    
C5    C7    A    
C19   C26   S    
C6    H9    S    
Cu1   O1    S    
C1    O3    A    
C3    C5    A    
C12   O4    A    
C21   N1    S    
C8    H1    S    
C7    H5    S    
C27   N2    D    
C10   C13   A    
C11   C16   A    
C18   C27   S    
C23   H3    S    
Cu1   O4    S    
C1    O1    A    
