data_mof_unit_26396.cif
_audit_creation_date              2012-12-10T22:11:15-0500
_audit_creation_method            fapswitch 2.2
_symmetry_space_group_name_H-M    P1
_symmetry_Int_Tables_number       1
_space_group_crystal_system       triclinic
_cell_length_a                    12.156452
_cell_length_b                    12.322101
_cell_length_c                    22.967838
_cell_angle_alpha                 90.927316
_cell_angle_beta                  90.753162
_cell_angle_gamma                 90.78302
_cell_volume                      3439.34281292

loop_
_atom_site_label
_atom_site_type_symbol
_atom_type_description
_atom_site_fract_x
_atom_site_fract_y
_atom_site_fract_z
_atom_type_partial_charge
C1    C     C_R   0.654365 0.998311 0.580575 0.872413
C2    C     C_R   0.345635 0.001689 0.419425 0.872412
C3    C     C_R   0.897012 0.810562 0.125351 -0.170179
C4    C     C_R   0.102988 0.189438 0.874649 -0.170179
C5    C     C_R   0.080702 0.846846 0.196933 -0.187967
C6    C     C_R   0.919298 0.153154 0.803067 -0.187967
C7    C     C_R   0.081660 0.765646 0.155153 -0.186432
C8    C     C_R   0.918339 0.234354 0.844847 -0.186432
C9    C     C_R   0.909981 0.181607 0.203516 -0.204194
C10   C     C_R   0.090019 0.818393 0.796484 -0.204194
C11   C     C_R   0.911386 0.262389 0.162532 -0.159408
C12   C     C_R   0.088614 0.737611 0.837468 -0.159408
C13   C     C_R   0.107153 0.918618 0.325805 -0.146408
C14   C     C_R   0.892847 0.081382 0.674195 -0.146408
C15   C     C_R   0.189109 0.916978 0.367812 -0.231093
C16   C     C_R   0.810891 0.083022 0.632188 -0.231093
C17   C     C_R   0.890586 0.102337 0.333443 0.013635
C18   C     C_R   0.109414 0.897663 0.666556 0.013634
C19   C     C_R   0.807541 0.096312 0.374492 -0.162658
C20   C     C_R   0.192458 0.903688 0.625508 -0.162658
C21   C     C_3   0.995626 0.010812 0.247950 -0.093330
C22   C     C_3   0.004374 0.989188 0.752050 -0.093330
C23   C     C_R   0.655042 0.001789 0.421184 0.866378
C24   C     C_R   0.344958 0.998211 0.578816 0.866378
C25   C     C_R   0.098923 0.005905 0.287071 0.090993
C26   C     C_R   0.901077 0.994095 0.712929 0.090993
C27   C     C_R   0.265504 0.002225 0.372236 -0.039526
C28   C     C_R   0.734496 0.997775 0.627764 -0.039526
C29   C     C_R   0.902337 0.013807 0.292618 0.007094
C30   C     C_R   0.097663 0.986193 0.707382 0.007094
C31   C     C_R   0.741034 0.003950 0.378490 -0.070639
C32   C     C_R   0.258966 0.996050 0.621510 -0.070639
C33   C     C_R   0.997004 0.107222 0.207051 0.084824
C34   C     C_R   0.002997 0.892778 0.792949 0.084825
C35   C     C_R   0.999151 0.270213 0.124287 -0.018582
C36   C     C_R   0.000849 0.729787 0.875712 -0.018582
C37   C     C_R   0.987176 0.912374 0.205256 0.040813
C38   C     C_R   0.012824 0.087626 0.794744 0.040813
C39   C     C_R   0.990157 0.747220 0.119387 -0.071801
C40   C     C_R   0.009843 0.252780 0.880613 -0.071801
C41   C     C_R   0.992731 0.661654 0.075533 0.873362
C42   C     C_R   0.007269 0.338346 0.924467 0.873362
C43   C     C_R   0.999143 0.352784 0.080786 0.861626
C44   C     C_R   0.000857 0.647216 0.919214 0.861626
C45   C     C_R   0.180666 0.088283 0.289752 -0.238058
C46   C     C_R   0.819333 0.911717 0.710248 -0.238058
C47   C     C_R   0.264336 0.086772 0.331748 0.123235
C48   C     C_R   0.735664 0.913228 0.668252 0.123235
C49   C     C_R   0.837947 0.918591 0.300787 -0.207920
C50   C     C_R   0.162053 0.081409 0.699213 -0.207920
C51   C     C_R   0.757708 0.914425 0.342493 -0.181302
C52   C     C_R   0.242292 0.085575 0.657507 -0.181302
C53   C     C_R   0.082975 0.114737 0.166542 -0.146873
C54   C     C_R   0.917025 0.885263 0.833458 -0.146873
C55   C     C_R   0.085190 0.196767 0.126398 -0.191486
C56   C     C_R   0.914810 0.803233 0.873602 -0.191486
C57   C     C_R   0.893892 0.894588 0.166872 0.015357
C58   C     C_R   0.106108 0.105412 0.833128 0.015357
H1    H     H_    0.849771 0.844852 0.275769 0.149180
H2    H     H_    0.150229 0.155148 0.724231 0.149180
H3    H     H_    0.149271 0.056934 0.166448 0.150428
H4    H     H_    0.850729 0.943066 0.833552 0.150428
H5    H     H_    0.157133 0.859780 0.220599 0.158293
H6    H     H_    0.842867 0.140220 0.779401 0.158293
H7    H     H_    0.839432 0.177746 0.231453 0.131449
H8    H     H_    0.160568 0.822254 0.768548 0.131449
H9    H     H_    0.047564 0.852533 0.324416 0.159813
H10   H     H_    0.952436 0.147467 0.675584 0.159813
H11   H     H_    0.708439 0.841014 0.346388 0.164420
H12   H     H_    0.291560 0.158986 0.653612 0.164420
H13   H     H_    0.152527 0.201020 0.096033 0.162125
H14   H     H_    0.847472 0.798980 0.903967 0.162125
H15   H     H_    0.826902 0.795256 0.096584 0.197359
H16   H     H_    0.173097 0.204744 0.903416 0.197358
H17   H     H_    0.155143 0.717578 0.150618 0.165164
H18   H     H_    0.844857 0.282423 0.849382 0.165164
H19   H     H_    0.843841 0.318777 0.160709 0.154367
H20   H     H_    0.156159 0.681223 0.839291 0.154367
H21   H     H_    0.190481 0.850539 0.398145 0.174337
H22   H     H_    0.809519 0.149461 0.601854 0.174336
H23   H     H_    0.795468 0.163768 0.404510 0.200351
H24   H     H_    0.204532 0.836232 0.595490 0.200351
H25   H     H_    0.178358 0.157193 0.261526 0.140296
H26   H     H_    0.821642 0.842807 0.738474 0.140296
O1    O     O_R   0.621380 0.090460 0.561410 -0.633821
O2    O     O_R   0.378620 0.909540 0.438590 -0.633821
O3    O     O_R   0.617150 0.909540 0.438590 -0.620526
O4    O     O_R   0.382850 0.090460 0.561410 -0.620526
O5    O     O_R   0.619720 0.093230 0.440890 -0.630919
O6    O     O_R   0.380280 0.906770 0.559110 -0.630919
O7    O     O_R   0.618800 0.906770 0.559110 -0.588700
O8    O     O_R   0.381200 0.093230 0.440890 -0.588700
O9    O     O_R   0.087590 0.627480 0.058790 -0.619693
O10   O     O_R   0.912410 0.372520 0.941210 -0.619693
O11   O     O_R   0.905660 0.383870 0.059980 -0.617177
O12   O     O_R   0.094340 0.616130 0.940020 -0.617177
O13   O     O_R   0.092570 0.390420 0.063230 -0.627830
O14   O     O_R   0.907430 0.609580 0.936770 -0.627830
O15   O     O_R   0.900680 0.620930 0.055550 -0.629060
O16   O     O_R   0.099320 0.379070 0.944450 -0.629060
Zn1   Zn    Zn3+2 0.501730 0.123520 0.501540 0.987733
Zn2   Zn    Zn3+2 0.498270 0.876480 0.498460 0.987733
Zn3   Zn    Zn3+2 0.125690 0.504390 0.002180 0.972541
Zn4   Zn    Zn3+2 0.874310 0.495610 0.997820 0.972541
N1    N     N_3   0.347797 0.170770 0.333549 -0.419030
H27   H     H_    0.331553 0.229952 0.302594 0.181599
H28   H     H_    0.422000 0.135085 0.321783 0.173905
N2    N     N_3   0.652202 0.829230 0.666451 -0.419030
H29   H     H_    0.668447 0.770048 0.697406 0.181598
H30   H     H_    0.578000 0.864915 0.678217 0.173904
C59   C     C_2   0.792536 0.961411 0.167551 0.390192
H31   H     H_    0.771231 0.011011 0.204552 0.081447
O17   O     O_2   0.729342 0.961222 0.125747 -0.564204
C60   C     C_2   0.207464 0.038589 0.832449 0.390193
H32   H     H_    0.228769 0.988989 0.795448 0.081446
O18   O     O_2   0.270657 0.038778 0.874254 -0.564204
C61   C     C_2   0.963093 0.201216 0.336054 0.388690
H33   H     H_    0.017300 0.222010 0.301247 0.085958
O19   O     O_2   0.962938 0.262724 0.378312 -0.560559
C62   C     C_2   0.036907 0.798783 0.663945 0.388692
H34   H     H_    0.982700 0.777990 0.698753 0.085958
O20   O     O_2   0.037063 0.737276 0.621688 -0.560560

loop_
_geom_bond_atom_site_label_1
_geom_bond_atom_site_label_2
_ccdc_geom_bond_type
C16   C28   A    
C5    C37   A    
C17   C29   A    
C59   H31   S    
C19   C31   A    
O9    Zn3   S    
C60   H32   S    
C39   C41   S    
C29   C49   A    
O11   Zn4   S    
N1    H28   S    
C10   H8    S    
C44   O12   A    
C20   H24   S    
C61   O19   D    
C20   C32   A    
C21   C33   S    
C25   C45   A    
C22   C38   S    
C8    H18   S    
N2    H29   S    
C5    H5    S    
C6    H6    S    
C32   C52   A    
C11   H19   S    
C38   C58   A    
C44   O14   A    
C41   O9    A    
C4    C40   A    
C47   N1    S    
C12   H20   S    
C1    C28   S    
C50   C52   A    
C6    C38   A    
C55   H13   S    
C2    C27   S    
C18   C30   A    
C12   C36   A    
C35   C43   S    
C4    H16   S    
C17   C61   S    
C45   C47   A    
O15   Zn4   S    
C30   C50   A    
O10   Zn4   S    
C1    O7    A    
C23   O3    A    
C9    C33   A    
C13   C25   A    
C45   H25   S    
C53   H3    S    
C62   O20   D    
O4    Zn1   S    
C46   C48   A    
C53   C55   A    
C33   C53   A    
C15   C27   A    
C22   C34   S    
C54   C56   A    
C35   C55   A    
C59   O17   D    
C5    C7    A    
C7    H17   S    
C54   H4    S    
C49   C51   A    
C21   C29   S    
O16   Zn3   S    
C60   O18   D    
C16   H22   S    
C23   C31   S    
C56   H14   S    
C24   C32   S    
C36   C56   A    
C42   O16   A    
O3    Zn2   S    
C24   O4    A    
C43   O11   A    
C23   O5    A    
C10   C34   A    
C14   C26   A    
C2    O8    A    
C9    C11   A    
O13   Zn3   S    
C10   C12   A    
O8    Zn1   S    
C46   H26   S    
C3    C57   A    
C34   C54   A    
C13   C15   A    
C48   N2    S    
C14   C16   A    
C36   C44   S    
C1    O1    A    
O7    Zn2   S    
O2    Zn2   S    
C18   C62   S    
O1    Zn1   S    
C62   H34   S    
C13   H9    S    
C27   C47   A    
C21   C25   S    
C28   C48   A    
C14   H10   S    
C22   C30   S    
O5    Zn1   S    
C42   O10   A    
C43   O13   A    
C31   C51   A    
C24   O6    A    
C41   O15   A    
C6    C8    A    
C15   H21   S    
C51   H11   S    
N1    H27   S    
C49   H1    S    
C50   H2    S    
C11   C35   A    
O6    Zn2   S    
C61   H33   S    
C57   C59   S    
O14   Zn4   S    
C40   C42   S    
C17   C19   A    
N2    H30   S    
C2    O2    A    
C18   C20   A    
C3    H15   S    
C9    H7    S    
C52   H12   S    
C26   C46   A    
C3    C39   A    
C21   C37   S    
C22   C26   S    
O12   Zn3   S    
C4    C58   A    
C58   C60   S    
C7    C39   A    
C8    C40   A    
C19   H23   S    
C37   C57   A    
