data_mof_unit_45995.cif
_audit_creation_date              2012-12-10T19:40:57-0500
_audit_creation_method            fapswitch 2.2
_symmetry_space_group_name_H-M    P1
_symmetry_Int_Tables_number       1
_space_group_crystal_system       triclinic
_cell_length_a                    18.419161
_cell_length_b                    18.352617
_cell_length_c                    18.495708
_cell_angle_alpha                 120.160835
_cell_angle_beta                  120.082974
_cell_angle_gamma                 89.961659
_cell_volume                      4406.18248105

loop_
_atom_site_label
_atom_site_type_symbol
_atom_type_description
_atom_site_fract_x
_atom_site_fract_y
_atom_site_fract_z
_atom_type_partial_charge
C1    C     C_R   0.360061 0.140439 0.501182 0.509668
C2    C     C_3   0.738817 0.807586 0.384397 -0.167504
C3    C     C_3   0.713682 0.533929 0.233739 -0.248885
C4    C     C_3   0.635247 0.448622 0.138627 -0.504401
C5    C     C_R   0.213372 0.787338 0.447917 -0.035498
C6    C     C_R   0.638688 0.858923 0.499206 0.517574
C7    C     C_R   0.305116 0.803461 0.500720 -0.019078
C8    C     C_R   0.344349 0.772417 0.563531 0.250045
C9    C     C_R   0.291961 0.730283 0.575300 0.253479
C10   C     C_R   0.197964 0.702494 0.508767 -0.031413
C11   C     C_R   0.160946 0.736057 0.450317 -0.152492
C12   C     C_3   0.085688 0.689368 0.340174 -0.141493
C13   C     C_3   0.142612 0.744178 0.334869 0.523951
C14   C     C_2   0.305176 0.800696 0.112319 -0.146735
C15   C     C_R   0.212465 0.158697 0.434867 -0.025310
C16   C     C_R   0.304483 0.196568 0.508771 0.022639
C17   C     C_R   0.340317 0.288049 0.591654 0.223647
C18   C     C_R   0.638258 0.140029 0.497945 0.549094
C19   C     C_R   0.285638 0.341239 0.587468 -0.150265
C20   C     C_R   0.195033 0.303386 0.506233 -0.015402
C21   C     C_R   0.158385 0.210747 0.434556 0.010848
C22   C     C_3   0.100075 0.156933 0.320235 -0.267638
C23   C     C_3   0.160645 0.100848 0.320601 -0.261638
C24   C     C_R   0.714442 0.288939 0.949639 -0.030084
C25   C     C_R   0.731396 0.784621 0.447297 -0.116122
C26   C     C_R   0.690174 0.195592 0.890429 -0.018275
C27   C     C_R   0.713721 0.155340 0.943253 -0.150551
C28   C     C_R   0.770904 0.207045 0.051352 0.234545
C29   C     C_R   0.800870 0.302113 0.109469 0.018601
C30   C     C_R   0.359968 0.858452 0.498569 0.510615
C31   C     C_R   0.767903 0.339535 0.055107 -0.083640
C32   C     C_3   0.805601 0.418851 0.065209 0.174331
C33   C     C_3   0.740930 0.364629 0.946998 0.183116
C34   C     C_R   0.718776 0.287749 0.557825 -0.056859
C35   C     C_R   0.694426 0.194567 0.496424 0.055985
C36   C     C_R   0.692837 0.801582 0.499394 0.032146
C37   C     C_R   0.729601 0.155073 0.437890 0.219337
C38   C     C_R   0.784167 0.210510 0.439799 -0.167882
C39   C     C_R   0.806396 0.303466 0.500587 -0.016563
C40   C     C_R   0.773367 0.340655 0.559119 -0.047077
C41   C     C_3   0.723231 0.405500 0.565728 0.179102
C42   C     C_R   0.638667 0.139452 0.778073 0.517425
C43   C     C_3   0.663729 0.348190 0.567069 0.164141
C44   C     C_R   0.140479 0.640537 0.500933 0.506498
C45   C     C_R   0.860219 0.359755 0.499736 0.519483
C46   C     C_R   0.861783 0.641321 0.501429 0.489903
C47   C     C_R   0.712040 0.764463 0.555848 0.239303
C48   C     C_R   0.139942 0.359624 0.499986 0.502215
C49   C     C_R   0.860745 0.360287 0.221973 0.510159
C50   C     C_R   0.139047 0.639266 0.777276 0.516580
C51   C     C_R   0.361351 0.861191 0.223040 0.509986
C52   C     C_2   0.285167 0.724969 0.945633 0.231809
C53   C     C_2   0.195245 0.699251 0.888773 -0.062934
C54   C     C_2   0.337462 0.789958 0.058238 -0.160845
C55   C     C_3   0.399326 0.671623 0.941651 0.011381
C56   C     C_3   0.487130 0.733023 0.983968 -0.270608
C57   C     C_3   0.565593 0.704204 0.031083 -0.489882
C58   C     C_R   0.766276 0.710064 0.553385 -0.153402
C59   C     C_3   0.450853 0.719102 0.544910 0.043842
C60   C     C_3   0.440227 0.631395 0.535494 -0.270758
C61   C     C_3   0.468540 0.567669 0.469510 -0.497627
C62   C     C_3   0.341210 0.768586 0.734690 0.042099
C63   C     C_3   0.431015 0.844532 0.814240 -0.268567
C64   C     C_3   0.441452 0.909161 0.914834 -0.493410
C65   C     C_3   0.161652 0.702295 0.202042 0.071815
C66   C     C_3   0.067755 0.647833 0.101669 -0.264584
C67   C     C_3   0.058242 0.658998 0.021279 -0.493361
C68   C     C_3   0.110361 0.881305 0.386468 -0.000506
C69   C     C_R   0.807136 0.697915 0.502880 -0.051757
C70   C     C_3   0.045853 0.922731 0.341340 -0.258079
C71   C     C_3   0.057708 0.014535 0.425287 -0.485570
C72   C     C_3   0.447482 0.340550 0.758419 0.025951
C73   C     C_3   0.438800 0.429252 0.824228 -0.285571
C74   C     C_3   0.490738 0.462002 0.935855 -0.499697
C75   C     C_3   0.875043 0.147362 0.113450 0.036855
C76   C     C_3   0.856841 0.059792 0.018340 -0.293127
C77   C     C_3   0.939010 0.031023 0.042094 -0.493663
C78   C     C_3   0.933958 0.377153 0.075585 0.050691
C79   C     C_3   0.019394 0.388799 0.166616 -0.266938
C80   C     C_R   0.790135 0.739697 0.453340 0.018272
C81   C     C_3   0.059501 0.317003 0.131093 -0.502398
C82   C     C_3   0.814203 0.423251 0.905578 0.007197
C83   C     C_3   0.741166 0.455222 0.852883 -0.278639
C84   C     C_3   0.778693 0.524599 0.846807 -0.498906
C85   C     C_3   0.766791 0.026888 0.380731 0.020007
C86   C     C_3   0.732363 0.934355 0.282232 -0.259965
C87   C     C_3   0.808076 0.898326 0.286432 -0.484845
C88   C     C_3   0.629411 0.338246 0.382620 0.057084
C89   C     C_3   0.649011 0.346806 0.315455 -0.271484
C90   C     C_3   0.597935 0.260723 0.207035 -0.481828
C91   C     C_3   0.808108 0.758832 0.391929 0.534806
C92   C     C_3   0.526816 0.367738 0.495931 -0.012528
C93   C     C_3   0.490984 0.370222 0.555839 -0.237380
C94   C     C_3   0.449916 0.444082 0.578970 -0.470573
C95   C     C_3   0.733108 0.809102 0.708970 0.010904
C96   C     C_3   0.713665 0.742497 0.728932 -0.273423
C97   C     C_3   0.780406 0.776246 0.840527 -0.485911
C98   C     C_3   0.965825 0.798200 0.486152 0.038271
C99   C     C_3   0.014120 0.844071 0.601652 -0.275715
C100  C     C_3   0.093317 0.814747 0.644994 -0.465516
C101  C     C_3   0.703073 0.615686 0.231485 -0.020448
H1    H     H_    0.025113 0.706642 0.330692 0.130616
H2    H     H_    0.520647 0.748334 0.575619 0.214561
H3    H     H_    0.389754 0.428958 0.506736 0.144553
H4    H     H_    0.237973 0.762971 0.076822 0.085924
H5    H     H_    0.724289 0.871905 0.755254 0.160335
H6    H     H_    0.804347 0.827492 0.736962 0.112284
H7    H     H_    0.645573 0.731812 0.710593 0.166934
H8    H     H_    0.716345 0.677107 0.678541 0.165255
H9    H     H_    0.849112 0.786490 0.860587 0.147926
H10   H     H_    0.764531 0.726131 0.851944 0.145245
H11   H     H_    0.776933 0.840240 0.892352 0.147552
H12   H     H_    0.775853 0.677126 0.590713 0.156019
H13   H     H_    0.408815 0.705106 0.467175 0.119155
H14   H     H_    0.012094 0.822312 0.475116 0.127145
H15   H     H_    0.950125 0.724986 0.442244 0.213038
H16   H     H_    0.038166 0.917716 0.641988 0.158807
H17   H     H_    0.967862 0.829199 0.617824 0.162296
H18   H     H_    0.070052 0.742568 0.611397 0.163971
H19   H     H_    0.129061 0.853068 0.729414 0.132561
H20   H     H_    0.140292 0.827769 0.628655 0.134091
H21   H     H_    0.673748 0.595771 0.152508 0.144969
H22   H     H_    0.653974 0.636792 0.248471 0.105130
H23   H     H_    0.775254 0.523799 0.240162 0.228244
H24   H     H_    0.481544 0.645505 0.612994 0.179241
H25   H     H_    0.718350 0.545466 0.300943 0.162317
H26   H     H_    0.571673 0.458569 0.126586 0.148492
H27   H     H_    0.643010 0.393776 0.148772 0.146749
H28   H     H_    0.633752 0.428345 0.070322 0.133515
H29   H     H_    0.767631 0.881184 0.428005 0.138489
H30   H     H_    0.369428 0.598555 0.499451 0.186606
H31   H     H_    0.429642 0.554857 0.392616 0.151637
H32   H     H_    0.455994 0.502921 0.459024 0.134509
H33   H     H_    0.540653 0.596396 0.506945 0.177607
H34   H     H_    0.337647 0.731782 0.766193 0.203397
H35   H     H_    0.285530 0.796468 0.722387 0.105546
H36   H     H_    0.485817 0.815939 0.828961 0.178212
H37   H     H_    0.386410 0.602956 0.879672 0.149755
H38   H     H_    0.436191 0.882423 0.784476 0.194842
H39   H     H_    0.389427 0.941307 0.902282 0.147045
H40   H     H_    0.507918 0.962114 0.971729 0.158150
H41   H     H_    0.435677 0.873324 0.946369 0.166761
H42   H     H_    0.073759 0.616329 0.293958 0.160428
H43   H     H_    0.210194 0.678459 0.184969 0.125346
H44   H     H_    0.179833 0.774497 0.233272 0.199937
H45   H     H_    0.054119 0.575855 0.071194 0.154182
H46   H     H_    0.017157 0.669408 0.115779 0.197137
H47   H     H_    0.070994 0.730465 0.049850 0.152816
H48   H     H_    0.405378 0.666844 0.002146 0.116584
H49   H     H_    0.989547 0.619455 0.950012 0.146315
H50   H     H_    0.105888 0.634640 0.002778 0.141538
H51   H     H_    0.179763 0.927350 0.435930 0.164938
H52   H     H_    0.095514 0.872234 0.433306 0.113959
H53   H     H_    0.057114 0.929344 0.291032 0.166766
H54   H     H_    0.976415 0.877700 0.293628 0.171207
H55   H     H_    0.041902 0.008314 0.472971 0.149082
H56   H     H_    0.012037 0.044010 0.389836 0.145796
H57   H     H_    0.127212 0.060176 0.475005 0.156698
H58   H     H_    0.517006 0.342337 0.802789 0.157391
H59   H     H_    0.482122 0.731658 0.920822 0.167290
H60   H     H_    0.404409 0.283491 0.741496 0.109644
H61   H     H_    0.464101 0.481200 0.820311 0.168051
H62   H     H_    0.367665 0.420027 0.794621 0.141847
H63   H     H_    0.470170 0.409208 0.941438 0.149231
H64   H     H_    0.477657 0.522336 0.979537 0.138590
H65   H     H_    0.563041 0.480067 0.969840 0.133646
H66   H     H_    0.314899 0.412747 0.645480 0.138918
H67   H     H_    0.032335 0.119378 0.288280 0.128858
H68   H     H_    0.159952 0.724071 0.923717 0.052808
H69   H     H_    0.102185 0.195927 0.290374 0.126536
H70   H     H_    0.500043 0.802863 0.043556 0.159115
H71   H     H_    0.127129 0.030679 0.286305 0.140349
H72   H     H_    0.199527 0.108633 0.292907 0.134195
H73   H     H_    0.691118 0.083172 0.900972 0.153684
H74   H     H_    0.907013 0.141428 0.178586 0.164835
H75   H     H_    0.923808 0.204134 0.136465 0.113824
H76   H     H_    0.801334 0.005942 0.989686 0.172043
H77   H     H_    0.837360 0.068938 0.956860 0.146388
H78   H     H_    0.996511 0.085335 0.074805 0.145451
H79   H     H_    0.925043 0.970778 0.970357 0.143534
H80   H     H_    0.956197 0.014054 0.097226 0.147405
H81   H     H_    0.572867 0.705977 0.095377 0.142302
H82   H     H_    0.786689 0.476590 0.102891 0.105675
H83   H     H_    0.951360 0.384813 0.029764 0.153040
H84   H     H_    0.887462 0.307962 0.025852 0.152644
H85   H     H_    0.068908 0.455770 0.213106 0.170842
H86   H     H_    0.004967 0.384758 0.216213 0.168030
H87   H     H_    0.011547 0.249368 0.085394 0.137126
H88   H     H_    0.120889 0.327027 0.198950 0.145178
H89   H     H_    0.077041 0.321286 0.083658 0.149552
H90   H     H_    0.682772 0.386796 0.919315 0.063165
H91   H     H_    0.851567 0.405933 0.870543 0.143130
H92   H     H_    0.627680 0.750552 0.061046 0.147576
H93   H     H_    0.863072 0.479434 0.987542 0.162097
H94   H     H_    0.686658 0.396869 0.775232 0.185224
H95   H     H_    0.712925 0.487486 0.897206 0.139201
H96   H     H_    0.828662 0.585540 0.925204 0.151962
H97   H     H_    0.723968 0.543497 0.804288 0.139447
H98   H     H_    0.811060 0.497302 0.806489 0.128512
H99   H     H_    0.787803 0.020445 0.444467 0.135415
H100  H     H_    0.826463 0.068110 0.400395 0.113300
H101  H     H_    0.682577 0.887481 0.270124 0.166754
H102  H     H_    0.698570 0.938465 0.215593 0.177431
H103  H     H_    0.556156 0.635713 0.972294 0.147356
H104  H     H_    0.849986 0.937082 0.281968 0.137963
H105  H     H_    0.780541 0.827001 0.220783 0.161590
H106  H     H_    0.850382 0.903802 0.358790 0.200847
H107  H     H_    0.405942 0.828193 0.097899 0.159326
H108  H     H_    0.804497 0.180529 0.388588 0.149554
H109  H     H_    0.765710 0.471527 0.641121 0.096970
H110  H     H_    0.558561 0.332309 0.351579 0.154731
H111  H     H_    0.637006 0.275545 0.375567 0.167910
H112  H     H_    0.629960 0.402901 0.311595 0.157815
H113  H     H_    0.721248 0.362205 0.349491 0.182964
H114  H     H_    0.675954 0.776556 0.307206 0.094855
H115  H     H_    0.617362 0.204145 0.209193 0.167651
H116  H     H_    0.613778 0.268888 0.160447 0.152419
H117  H     H_    0.525066 0.244968 0.169935 0.140572
H118  H     H_    0.674091 0.381146 0.642002 0.083006
H119  H     H_    0.469108 0.345799 0.418665 0.134184
H120  H     H_    0.568104 0.436421 0.533199 0.147710
H121  H     H_    0.439829 0.304531 0.510015 0.199902
H122  H     H_    0.545324 0.382947 0.629632 0.185214
H123  H     H_    0.498991 0.509631 0.620293 0.134540
H124  H     H_    0.430661 0.449750 0.628998 0.187480
O1    O     O_3   0.500000 0.000000 0.500000 -0.451982
O2    O     O_R   0.055460 0.323770 0.439940 -0.546551
O3    O     O_R   0.885490 0.446080 0.270840 -0.541073
O4    O     O_R   0.323800 0.055370 0.439900 -0.556003
O5    O     O_R   0.175320 0.614550 0.729170 -0.492269
O6    O     O_R   0.885490 0.324650 0.270840 -0.514930
O7    O     O_R   0.053870 0.614540 0.729150 -0.560193
O8    O     O_R   0.883910 0.615420 0.560060 -0.540821
O9    O     O_R   0.176240 0.444580 0.560100 -0.546404
O10   O     O_R   0.055460 0.616070 0.439920 -0.562383
O11   O     O_R   0.884570 0.323750 0.439920 -0.556893
O12   O     O_R   0.616140 0.055410 0.439930 -0.498142
O13   O     O_R   0.616140 0.884540 0.439940 -0.564346
O14   O     O_R   0.615480 0.176200 0.560080 -0.532680
O15   O     O_R   0.444590 0.883880 0.560080 -0.512298
O16   O     O_R   0.614550 0.175310 0.729160 -0.512879
O17   O     O_R   0.324730 0.885400 0.270830 -0.557398
O18   O     O_R   0.614550 0.053870 0.729160 -0.558139
O19   O     O_R   0.446170 0.885420 0.270850 -0.536925
O20   O     O_3   0.328444 0.700271 0.897374 -0.554127
O21   O     O_3   0.434128 0.782577 0.614882 -0.543677
O22   O     O_3   0.333740 0.706946 0.643082 -0.537901
O23   O     O_R   0.323800 0.884510 0.439910 -0.553284
O24   O     O_3   0.170823 0.687374 0.273753 -0.586501
O25   O     O_3   0.099055 0.798725 0.305051 -0.591485
O26   O     O_3   0.430607 0.328464 0.668953 -0.572067
O27   O     O_3   0.794858 0.163139 0.098216 -0.547986
O28   O     O_3   0.899578 0.445697 0.112745 -0.562656
O29   O     O_3   0.780224 0.345388 0.893433 -0.552771
O30   O     O_3   0.697018 0.063270 0.364825 -0.540033
O31   O     O_3   0.683653 0.417082 0.484529 -0.563348
O32   O     O_3   0.573038 0.305599 0.482582 -0.564868
O33   O     O_3   0.670694 0.774003 0.603995 -0.571912
O34   O     O_R   0.444590 0.176180 0.560060 -0.504413
O35   O     O_3   0.891317 0.825019 0.449643 -0.593627
O36   O     O_3   0.787617 0.683233 0.296697 -0.556375
O37   O     O_R   0.615480 0.883900 0.560100 -0.504431
O38   O     O_3   0.000040 0.499960 0.500000 -0.446017
O39   O     O_R   0.176240 0.615450 0.560090 -0.508774
O40   O     O_R   0.883910 0.444550 0.560070 -0.518442
O41   O     O_R   0.884570 0.616050 0.439900 -0.566448
Zn1   Zn    Zn3+2 0.543850 0.957090 0.414170 0.936775
Zn2   Zn    Zn3+2 0.542910 0.129670 0.585830 0.960093
Zn3   Zn    Zn3+2 0.542910 0.956180 0.585840 0.938241
Zn4   Zn    Zn3+2 0.370330 0.957070 0.414150 0.907077
Zn5   Zn    Zn3+2 0.956190 0.542870 0.585830 0.922087
Zn6   Zn    Zn3+2 0.957140 0.543780 0.414160 0.899280
Zn7   Zn    Zn3+2 0.957140 0.370280 0.414170 0.922651
Zn8   Zn    Zn3+2 0.129710 0.542890 0.585850 0.939084

loop_
_geom_bond_atom_site_label_1
_geom_bond_atom_site_label_2
_ccdc_geom_bond_type
C62   H34   S    
C95   O33   S    
C55   C56   S    
C93   C94   S    
C79   H85   S    
C101  O36   S    
C25   C80   A    
C41   C43   S    
C73   C74   S    
C32   H82   S    
C51   O19   A    
C45   O11   A    
C43   O32   S    
C28   O27   S    
C75   C76   S    
C52   O20   S    
C90   H115  S    
C92   O32   S    
C98   H14   S    
C3    H25   S    
C61   H32   S    
C7    C8    A    
C88   O31   S    
C29   C49   S    
C85   C86   S    
C3    H23   S    
O37   Zn3   S    
C13   O25   S    
C6    O13   A    
C41   O31   S    
O6    Zn7   S    
C26   C27   A    
C101  H22   S    
C55   H37   S    
C79   H86   S    
C34   C40   A    
O17   Zn4   S    
C28   C29   A    
C35   C37   A    
C24   C26   A    
C5    C11   A    
C76   H77   S    
O1    Zn3   S    
C38   C39   A    
C97   H10   S    
C60   H24   S    
C64   H40   S    
C47   O33   S    
C68   O25   S    
C15   C16   A    
C98   C99   S    
C42   O18   A    
C56   C57   S    
C60   H30   S    
C36   C47   A    
C34   C35   A    
C1    C16   S    
C62   H35   S    
C83   H95   S    
C92   H119  S    
C87   H104  S    
C90   H116  S    
C91   O35   S    
C61   H31   S    
C33   O29   S    
O2    Zn7   S    
C14   H4    S    
C23   H71   S    
C83   C84   S    
C16   C17   A    
C37   O30   S    
C88   H110  S    
C32   O28   S    
C58   H12   S    
C77   H80   S    
C72   H60   S    
C50   O7    A    
C70   C71   S    
C100  H19   S    
C59   O21   S    
C18   C35   S    
C86   H101  S    
C81   H87   S    
C5    C13   S    
C94   H124  S    
C18   O12   A    
C85   H100  S    
O1    Zn1   S    
C39   C45   S    
C22   H67   S    
C3    C101  S    
C15   C23   S    
C66   C67   S    
C96   H7    S    
C94   H3    S    
C59   C60   S    
C38   H108  S    
C7    C30   S    
C21   C22   S    
O5    Zn8   S    
C67   H49   S    
C94   H123  S    
C63   H36   S    
C19   H66   S    
C27   H73   S    
C57   H81   S    
C52   C54   S    
C61   H33   S    
C55   H48   S    
C84   H98   S    
C18   O14   A    
C71   H56   S    
C85   O30   S    
C77   H79   S    
C82   H93   S    
C44   O39   A    
C4    H27   S    
C67   H50   S    
C70   H54   S    
C50   C53   S    
C46   O8    A    
C76   C77   S    
C93   H122  S    
C68   H52   S    
O3    Zn6   S    
C44   O10   A    
C78   H84   S    
C39   C40   A    
C5    C7    A    
C65   H43   S    
C86   C87   S    
C8    C9    A    
C84   H97   S    
O10   Zn6   S    
C12   C13   S    
C75   H74   S    
C17   O26   S    
O39   Zn8   S    
C57   H92   S    
C60   C61   S    
O15   Zn3   S    
C49   O6    A    
C65   O24   S    
O18   Zn3   S    
C87   H105  S    
C12   H1    S    
C37   C38   A    
C68   H51   S    
C95   H5    S    
C99   H16   S    
O4    Zn4   S    
O40   Zn5   S    
C85   H99   S    
C98   H15   S    
C99   C100  S    
C15   C21   A    
C46   O41   A    
O38   Zn8   S    
C81   H88   S    
C96   C97   S    
C62   C63   S    
O16   Zn2   S    
C6    O37   A    
C100  H18   S    
C22   H69   S    
C88   C89   S    
C49   O3    A    
C72   H58   S    
C50   O5    A    
C87   H106  S    
C66   H46   S    
C93   H121  S    
C95   H6    S    
C1    O34   A    
C41   H109  S    
C68   C70   S    
C40   C41   S    
C14   C54   D    
C82   O29   S    
C76   H76   S    
C77   H78   S    
C54   H107  S    
C56   H70   S    
O38   Zn6   S    
C51   O17   A    
O38   Zn7   S    
C65   H44   S    
C3    C4    S    
C74   H65   S    
C66   H45   S    
O7    Zn5   S    
C52   C53   D    
C26   C42   S    
C89   H112  S    
C64   H39   S    
C98   O35   S    
C97   H11   S    
C71   H57   S    
C100  H20   S    
C20   C48   S    
C4    H26   S    
C82   H91   S    
C75   H75   S    
C70   H53   S    
C78   O28   S    
C63   H38   S    
C99   H17   S    
C31   C32   S    
C43   H118  S    
C34   C43   S    
C24   C33   S    
C30   O15   A    
C72   C73   S    
O13   Zn1   S    
O8    Zn5   S    
C11   C12   S    
C58   C69   A    
C4    H28   S    
C23   H72   S    
C53   H68   S    
C84   H96   S    
C13   O24   S    
C96   H8    S    
C19   C20   A    
C42   O16   A    
C79   C81   S    
C101  H21   S    
O9    Zn8   S    
C12   H42   S    
O12   Zn1   S    
C33   H90   S    
O19   Zn1   S    
C59   H2    S    
C32   C33   S    
C73   H61   S    
C95   C96   S    
C24   C31   A    
O34   Zn2   S    
C73   H62   S    
O41   Zn6   S    
O1    Zn4   S    
C47   C58   A    
C74   H63   S    
C97   H9    S    
C78   C79   S    
C92   H120  S    
C62   O22   S    
C64   H41   S    
C88   H111  S    
C80   C91   S    
C59   H13   S    
C71   H55   S    
C10   C44   S    
C57   H103  S    
O38   Zn5   S    
C92   C93   S    
C2    H29   S    
C6    C36   S    
O14   Zn2   S    
C9    C10   A    
C2    C25   S    
C78   H83   S    
C65   C66   S    
C72   O26   S    
C83   H94   S    
C2    C91   S    
C9    O22   S    
C81   H89   S    
C90   H117  S    
C10   C11   A    
C25   C36   A    
C8    O21   S    
C63   C64   S    
C17   C19   A    
C1    O4    A    
C2    H114  S    
O23   Zn4   S    
C20   C21   A    
C14   C51   S    
C29   C31   A    
C30   O23   A    
C55   O20   S    
C67   H47   S    
C46   C69   S    
C22   C23   S    
O11   Zn7   S    
C69   C80   A    
C45   O40   A    
C82   C83   S    
C89   C90   S    
C48   O2    A    
C86   H102  S    
C74   H64   S    
C48   O9    A    
C75   O27   S    
O1    Zn2   S    
C89   H113  S    
C27   C28   A    
C91   O36   S    
C56   H59   S    
