data_mof_unit_59036.cif
_audit_creation_date              2012-12-10T18:05:42-0500
_audit_creation_method            fapswitch 2.2
_symmetry_space_group_name_H-M    P1
_symmetry_Int_Tables_number       1
_space_group_crystal_system       triclinic
_cell_length_a                    10.880192
_cell_length_b                    10.828152
_cell_length_c                    9.55969
_cell_angle_alpha                 90.029251
_cell_angle_beta                  90.375044
_cell_angle_gamma                 90.307865
_cell_volume                      1126.20920795

loop_
_atom_site_label
_atom_site_type_symbol
_atom_type_description
_atom_site_fract_x
_atom_site_fract_y
_atom_site_fract_z
_atom_type_partial_charge
C1    C     C_R   0.499874 0.262206 0.499939 0.798049
C2    C     C_R   0.499794 0.737787 0.500053 0.792192
C3    C     C_R   0.872060 0.472883 0.503491 -0.196024
C4    C     C_R   0.128870 0.472186 0.498415 -0.147423
C5    C     C_R   0.941302 0.473394 0.629854 -0.084467
C6    C     C_R   0.059702 0.480165 0.372976 -0.005219
C7    C     C_R   0.497551 0.063782 0.372863 -0.188796
C8    C     C_R   0.501185 0.936225 0.627114 -0.190304
C9    C     C_R   0.497339 0.936033 0.372902 -0.182192
C10   C     C_R   0.501296 0.063969 0.627071 -0.158571
C11   C     C_R   0.499401 0.871708 0.500031 -0.018490
C12   C     C_R   0.499592 0.128293 0.499945 -0.009575
C13   C     C_R   0.473814 0.394814 0.073809 -0.075368
C14   C     C_R   0.523209 0.605839 0.926169 -0.022884
C15   C     C_R   0.474147 0.394768 0.925659 -0.036570
C16   C     C_R   0.522670 0.605900 0.074298 -0.025381
C17   C     C_R   0.262367 0.492495 0.499439 0.847410
C18   C     C_R   0.737886 0.491943 0.500965 0.785975
C19   C     C_R   0.136755 0.753943 0.144931 -0.140774
C20   C     C_R   0.783833 0.461002 0.980014 -0.044236
C21   C     C_R   0.091633 0.681863 0.254577 -0.180160
C22   C     C_R   0.825288 0.425761 0.848385 -0.084350
C23   C     C_R   0.103337 0.552731 0.251391 0.157108
C24   C     C_R   0.890493 0.510360 0.766204 0.113225
C25   C     C_R   0.160369 0.496626 0.136577 -0.018242
C26   C     C_R   0.915953 0.629156 0.818081 -0.151122
C27   C     C_R   0.205062 0.569393 0.026989 -0.155823
C28   C     C_R   0.876175 0.663099 0.951099 -0.143704
C29   C     C_R   0.193427 0.697672 0.031082 -0.122148
C30   C     C_R   0.811342 0.578586 0.032717 -0.116347
C31   C     C_R   0.934977 0.449473 0.377952 -0.028563
C32   C     C_R   0.066547 0.445549 0.624157 -0.037071
Cu1   Cu    Cu3+1 0.500000 0.500020 0.640660 0.965152
Cu2   Cu    Cu3+1 0.500000 0.499980 0.359340 0.935675
H1    H     H_    0.452490 0.310061 0.871065 0.153542
H2    H     H_    0.543169 0.690937 0.128789 0.116406
H3    H     H_    0.048495 0.726633 0.342785 0.123784
H4    H     H_    0.806170 0.333441 0.810077 0.117039
H5    H     H_    0.172874 0.397563 0.133454 0.150761
H6    H     H_    0.967938 0.694627 0.756161 0.125793
H7    H     H_    0.496121 0.111668 0.273448 0.138643
H8    H     H_    0.502629 0.888352 0.726536 0.136932
H9    H     H_    0.495582 0.888006 0.273507 0.140352
H10   H     H_    0.502901 0.112002 0.726464 0.141591
H11   H     H_    0.451901 0.310163 0.127982 0.129047
H12   H     H_    0.544202 0.690766 0.872108 0.120943
N1    N     N_R   0.500030 0.500030 0.852070 -0.160081
N2    N     N_R   0.499970 0.499970 0.147930 -0.157641
O1    O     O_R   0.499990 0.319660 0.618740 -0.581575
O2    O     O_R   0.500010 0.680340 0.381260 -0.591658
O3    O     O_R   0.499990 0.319630 0.381170 -0.609842
O4    O     O_R   0.500010 0.680370 0.618830 -0.599601
O5    O     O_R   0.319650 0.500020 0.618780 -0.549709
O6    O     O_R   0.680350 0.499980 0.381220 -0.608662
O7    O     O_R   0.319640 0.500000 0.381210 -0.577563
O8    O     O_R   0.680360 0.500000 0.618790 -0.561079
H13   H     H_    0.228647 0.753382 0.946195 0.126276
H14   H     H_    0.781508 0.604597 0.136299 0.139991
H15   H     H_    0.127833 0.853388 0.148296 0.138280
H16   H     H_    0.731263 0.396313 0.041650 0.129702
H17   H     H_    0.250263 0.526781 0.939350 0.150757
H18   H     H_    0.896316 0.754485 0.991248 0.138354
C33   C     C_2   0.882102 0.365710 0.270062 0.341300
H19   H     H_    0.788716 0.331428 0.278360 0.088072
O9    O     O_2   0.945318 0.325806 0.175359 -0.579793
C34   C     C_2   0.125016 0.381727 0.745361 0.361870
H20   H     H_    0.088115 0.391977 0.849676 0.086658
O10   O     O_2   0.208787 0.308761 0.728275 -0.549868

loop_
_geom_bond_atom_site_label_1
_geom_bond_atom_site_label_2
_ccdc_geom_bond_type
C1    C12   S    
C13   N2    A    
C13   H11   S    
C33   O9    D    
C28   H18   S    
C14   N1    A    
C18   O8    A    
C20   H16   S    
C17   O5    A    
C1    O3    A    
C17   O7    A    
Cu2   N2    S    
C26   C28   A    
C15   N1    A    
C27   H17   S    
C8    H8    S    
C5    C32   A    
C16   N2    A    
Cu1   O8    S    
C28   C30   A    
C34   H20   S    
C9    H9    S    
C21   H3    S    
Cu2   O7    S    
C14   H12   S    
C20   C30   A    
C25   H5    S    
Cu1   O4    S    
C3    C31   A    
C9    C11   A    
C26   H6    S    
Cu2   O3    S    
C4    C32   A    
C5    C24   S    
C2    O4    A    
C8    C11   A    
C2    C11   S    
C10   C12   A    
C15   H1    S    
C19   C21   A    
C20   C22   A    
Cu2   O6    S    
C14   C16   A    
C13   C15   A    
C21   C23   A    
Cu1   O5    S    
C7    C12   A    
Cu1   N1    S    
C22   C24   A    
Cu2   O2    S    
C4    C6    A    
C25   C27   A    
C34   O10   D    
C6    C23   S    
C10   H10   S    
C33   H19   S    
C19   C29   A    
C31   C33   S    
C23   C25   A    
Cu1   Cu2   S    
C27   C29   A    
C3    C18   S    
C32   C34   S    
C1    O1    A    
C7    C9    A    
C18   O6    A    
C6    C31   A    
C2    O2    A    
C19   H15   S    
C30   H14   S    
Cu1   O1    S    
C8    C10   A    
C16   H2    S    
C24   C26   A    
C7    H7    S    
C29   H13   S    
C3    C5    A    
C22   H4    S    
C4    C17   S    
