data_mof_unit_31849.cif
_audit_creation_date              2012-12-10T16:48:11-0500
_audit_creation_method            fapswitch 2.2
_symmetry_space_group_name_H-M    P1
_symmetry_Int_Tables_number       1
_space_group_crystal_system       triclinic
_cell_length_a                    15.836712
_cell_length_b                    8.681422
_cell_length_c                    7.455208
_cell_angle_alpha                 103.371028
_cell_angle_beta                  93.162217
_cell_angle_gamma                 91.76694
_cell_volume                      994.675050129

loop_
_atom_site_label
_atom_site_type_symbol
_atom_type_description
_atom_site_fract_x
_atom_site_fract_y
_atom_site_fract_z
_atom_type_partial_charge
C1    C     C_R   0.497497 0.199673 0.453045 0.879598
C2    C     C_R   0.502503 0.800327 0.546955 0.879598
C3    C     C_R   0.340133 0.501884 0.504366 0.820337
C4    C     C_R   0.659866 0.498114 0.495634 0.820334
C5    C     C_2   0.496270 0.031500 0.426904 -0.369102
C6    C     C_2   0.503729 0.968500 0.573095 -0.369102
C7    C     C_3   0.971480 0.365530 0.546331 -0.272210
C8    C     C_3   0.028517 0.634466 0.453679 -0.272167
C9    C     C_3   0.027835 0.372835 0.383711 -0.062340
C10   C     C_3   0.972162 0.627159 0.616297 -0.062259
C11   C     C_1   0.250995 0.507061 0.514494 -0.173095
C12   C     C_1   0.749004 0.492934 0.485506 -0.173086
C13   C     C_3   0.027950 0.501393 0.670360 0.448247
C14   C     C_3   0.972048 0.498602 0.329650 0.448264
C15   C     C_3   0.083806 0.507224 0.510645 -0.007020
C16   C     C_3   0.916192 0.492770 0.489365 -0.006969
C17   C     C_1   0.175620 0.509732 0.517706 -0.040538
C18   C     C_1   0.824379 0.490260 0.482297 -0.040420
Cu1   Cu    Cu3+1 0.509330 0.517380 0.684380 0.953068
Cu2   Cu    Cu3+1 0.490670 0.482620 0.315620 0.953068
H1    H     H_    0.946807 0.257801 0.585220 0.142087
H2    H     H_    0.053190 0.742194 0.414785 0.142087
H3    H     H_    0.489228 0.959248 0.286329 0.179587
H4    H     H_    0.510772 0.040752 0.713671 0.179588
H5    H     H_    0.434437 0.378693 0.949305 0.226301
H6    H     H_    0.565563 0.621307 0.050695 0.226308
N1    N     N_2   0.476600 0.456420 0.038510 -0.216214
N2    N     N_2   0.523400 0.543580 0.961490 -0.216209
O1    O     O_R   0.506070 0.286130 0.619780 -0.584635
O2    O     O_R   0.493930 0.713870 0.380220 -0.584637
O3    O     O_R   0.490300 0.256770 0.308360 -0.585594
O4    O     O_R   0.509700 0.743230 0.691640 -0.585594
O5    O     O_R   0.386960 0.514660 0.655680 -0.584875
O6    O     O_R   0.613040 0.485340 0.344320 -0.584862
O7    O     O_R   0.371190 0.485310 0.344260 -0.575179
O8    O     O_R   0.628810 0.514690 0.655740 -0.575175
C19   C     C_R   0.063240 0.236408 0.249815 0.112228
C20   C     C_R   0.046476 0.079054 0.260231 -0.144183
C21   C     C_R   0.081616 0.954397 0.137038 -0.111965
C22   C     C_R   0.133743 0.985825 0.003325 -0.128066
C23   C     C_R   0.150737 0.142075 0.992282 -0.138598
C24   C     C_R   0.115887 0.266892 0.115364 -0.066190
H7    H     H_    0.005861 0.052203 0.361814 0.116665
H8    H     H_    0.067557 0.833228 0.143330 0.150617
H9    H     H_    0.160356 0.889096 0.907384 0.124209
H10   H     H_    0.191089 0.166570 0.888740 0.139791
H11   H     H_    0.130801 0.387560 0.107730 0.177393
C25   C     C_R   0.936761 0.763587 0.750191 0.112262
C26   C     C_R   0.953513 0.920938 0.739748 -0.144162
C27   C     C_R   0.918381 0.045599 0.862950 -0.111989
C28   C     C_R   0.866279 0.014182 0.996709 -0.128109
C29   C     C_R   0.849297 0.857935 0.007779 -0.138595
C30   C     C_R   0.884132 0.733112 0.884676 -0.066145
H12   H     H_    0.994111 0.947785 0.638135 0.116658
H13   H     H_    0.932433 0.166765 0.856634 0.150530
H14   H     H_    0.839679 0.110917 0.092668 0.124212
H15   H     H_    0.808965 0.833447 0.111361 0.139815
H16   H     H_    0.869223 0.612446 0.892327 0.177452
O9    O     O_3   0.941623 0.496872 0.149821 -0.718006
H17   H     H_    0.903807 0.400472 0.110388 0.307519
O10   O     O_3   0.058365 0.503133 0.850201 -0.718034
H18   H     H_    0.096324 0.599342 0.889489 0.307503

loop_
_geom_bond_atom_site_label_1
_geom_bond_atom_site_label_2
_ccdc_geom_bond_type
C1    O3    A    
C8    H2    S    
C9    C14   S    
C4    O8    A    
C19   C20   A    
C14   O9    S    
Cu2   N1    S    
C25   C30   A    
H5    N1    S    
C23   C24   A    
H6    N2    S    
Cu1   Cu2   S    
C5    H3    S    
C13   C15   S    
C3    O7    A    
C30   H16   S    
C6    H4    S    
C19   C24   A    
C1    O1    A    
C27   C28   A    
C9    C15   S    
Cu2   O6    S    
O9    H17   S    
C26   H12   S    
C10   C16   S    
Cu1   N2    S    
C2    C6    S    
C23   H10   S    
C1    C5    S    
Cu1   O4    S    
C16   C18   S    
C25   C26   A    
C28   H14   S    
C8    C15   S    
C14   C16   S    
C24   H11   S    
C5    C6    D    
C4    O6    A    
C10   C25   S    
O10   H18   S    
C20   H7    S    
C3    C11   S    
C29   H15   S    
C3    O5    A    
C21   H8    S    
C28   C29   A    
Cu1   O1    S    
C7    C9    S    
C7    C13   S    
C13   O10   S    
C29   C30   A    
C7    C16   S    
C2    O4    A    
C26   C27   A    
Cu1   O5    S    
C12   C18   T    
C21   C22   A    
C15   C17   S    
C22   C23   A    
C2    O2    A    
Cu2   O2    S    
C8    C14   S    
C22   H9    S    
C4    C12   S    
Cu1   O8    S    
C7    H1    S    
Cu2   O7    S    
Cu2   O3    S    
C8    C10   S    
C11   C17   T    
C9    C19   S    
C27   H13   S    
N1    N2    D    
C10   C13   S    
C20   C21   A    
