data_mof_unit_29680.cif
_audit_creation_date              2012-12-11T15:55:54-0500
_audit_creation_method            fapswitch 2.2
_symmetry_space_group_name_H-M    P1
_symmetry_Int_Tables_number       1
_space_group_crystal_system       triclinic
_cell_length_a                    11.071557
_cell_length_b                    11.09563
_cell_length_c                    18.818785
_cell_angle_alpha                 90.09858
_cell_angle_beta                  90.308416
_cell_angle_gamma                 59.272274
_cell_volume                      1987.21398085

loop_
_atom_site_label
_atom_site_type_symbol
_atom_type_description
_atom_site_fract_x
_atom_site_fract_y
_atom_site_fract_z
_atom_type_partial_charge
C1    C     C_R   0.357842 0.772616 0.397745 0.544732
C2    C     C_R   0.221264 0.398271 0.209157 -0.134414
C3    C     C_R   0.227256 0.426031 0.280833 -0.030693
C4    C     C_R   0.382066 0.351596 0.390101 0.531089
C5    C     C_R   0.929347 0.814569 0.383736 0.099295
C6    C     C_R   0.960826 0.685569 0.412365 -0.092324
C7    C     C_R   0.052774 0.561471 0.377083 -0.095597
C8    C     C_R   0.115430 0.562704 0.312231 0.014652
C9    C     C_R   0.341914 0.323029 0.320787 -0.004545
C10   C     C_R   0.891819 0.322787 0.189267 0.009764
C11   C     C_R   0.870058 0.224430 0.223336 0.003903
C12   C     C_R   0.562344 0.029080 0.191863 0.032681
C13   C     C_R   0.846236 0.231955 0.295764 -0.003058
C14   C     C_R   0.888221 0.423078 0.303274 -0.179497
C15   C     C_R   0.911927 0.414895 0.230938 -0.181611
C16   C     C_R   0.777196 0.378557 0.403459 0.540632
C17   C     C_3   0.761814 0.188264 0.207309 -0.145342
C18   C     C_3   0.727628 0.205566 0.285609 -0.243372
C19   C     C_R   0.849465 0.335485 0.336317 0.006248
C20   C     C_R   0.309408 0.925829 0.186021 0.032851
C21   C     C_R   0.421838 0.796197 0.205979 0.031235
C22   C     C_R   0.438339 0.750868 0.275084 -0.001456
C23   C     C_R   0.326078 0.274835 0.176262 0.019122
C24   C     C_R   0.242431 0.972276 0.311152 -0.153640
C25   C     C_R   0.226623 0.018743 0.240189 -0.163614
C26   C     C_3   0.482151 0.653145 0.176331 -0.224700
C27   C     C_3   0.495029 0.602584 0.252865 -0.265192
C28   C     C_R   0.343813 0.769314 0.603970 0.560079
C29   C     C_R   0.344703 0.833307 0.327970 0.022904
C30   C     C_R   0.305308 0.315850 0.811484 -0.006876
C31   C     C_R   0.427642 0.218263 0.777772 0.001805
C32   C     C_R   0.441712 0.221224 0.706163 0.005117
C33   C     C_R   0.200417 0.407643 0.695255 -0.161987
C34   C     C_R   0.439579 0.195233 0.289492 -0.156663
C35   C     C_R   0.187861 0.406394 0.769564 -0.162505
C36   C     C_3   0.575903 0.179573 0.793105 -0.029270
C37   C     C_3   0.592269 0.183828 0.712948 -0.070024
C38   C     C_R   0.332244 0.321103 0.663926 0.012481
C39   C     C_R   0.906476 0.291927 0.820949 0.036244
C40   C     C_R   0.370154 0.349280 0.595230 0.536407
C41   C     C_R   0.893645 0.407441 0.784964 -0.007004
C42   C     C_R   0.864242 0.426140 0.713863 0.020650
C43   C     C_R   0.883108 0.201245 0.706301 -0.144676
C44   C     C_R   0.903611 0.184820 0.780535 0.052951
C45   C     C_R   0.440472 0.169200 0.217251 -0.019411
C46   C     C_3   0.797914 0.560028 0.800979 -0.263720
C47   C     C_3   0.766105 0.580692 0.722715 -0.267606
C48   C     C_R   0.847326 0.328836 0.674525 -0.006809
C49   C     C_R   0.302353 0.853154 0.823733 -0.009900
C50   C     C_R   0.211682 0.823137 0.787973 -0.015131
C51   C     C_R   0.215720 0.811645 0.715284 0.002178
C52   C     C_R   0.768625 0.374705 0.608288 0.533951
C53   C     C_R   0.392708 0.876570 0.708853 0.053082
C54   C     C_R   0.388013 0.887303 0.783222 -0.142305
C55   C     C_3   0.187853 0.704256 0.798676 -0.276838
C56   C     C_R   0.075828 0.694574 0.281585 -0.011701
C57   C     C_3   0.192643 0.690595 0.718583 -0.255109
C58   C     C_R   0.312143 0.828393 0.674877 0.057457
C59   C     C_R   0.920509 0.311839 0.114020 0.543068
C60   C     C_R   0.303997 0.256313 0.101551 0.551096
C61   C     C_R   0.272467 0.961707 0.111768 0.530901
C62   C     C_R   0.940318 0.283640 0.896765 0.566390
C63   C     C_R   0.294587 0.288229 0.885297 0.557169
C64   C     C_R   0.799592 0.766014 0.156253 -0.103175
C65   C     C_R   0.275698 0.895733 0.897664 0.545833
C66   C     C_R   0.723235 0.780962 0.217578 -0.132016
C67   C     C_R   0.986386 0.818450 0.318304 -0.045523
C68   C     C_R   0.607237 0.910204 0.235225 -0.110069
C69   C     C_1   0.647348 0.291939 0.161622 0.181425
C70   C     C_1   0.846765 0.869526 0.052948 0.184558
C71   C     C_1   0.689376 0.048620 0.678603 0.240520
C72   C     C_1   0.120091 0.707559 0.211766 0.151264
C73   C     C_R   0.648993 0.012417 0.132922 -0.065213
C74   C     C_R   0.763262 0.882206 0.114127 -0.017826
Cr1   Cr    Cr6+3 0.601740 0.606840 0.505840 1.008084
Cr2   Cr    Cr6+3 0.291500 0.601560 0.495070 1.017881
Cr3   Cr    Cr6+3 0.606780 0.291630 0.499130 1.025269
Cr4   Cr    Cr6+3 0.062440 0.063060 0.008240 1.062228
Cr5   Cr    Cr6+3 0.062950 0.375000 0.998920 1.018879
Cr6   Cr    Cr6+3 0.374550 0.061770 0.992470 1.005843
H1    H     H_    0.525333 0.117231 0.321435 0.140143
H2    H     H_    0.147147 0.124535 0.227162 0.112612
H3    H     H_    0.585667 0.616748 0.150972 0.160065
H4    H     H_    0.406318 0.640830 0.143238 0.210359
H5    H     H_    0.422974 0.563560 0.265592 0.154520
H6    H     H_    0.605211 0.533995 0.270151 0.145997
H7    H     H_    0.112332 0.484273 0.663804 0.130799
H8    H     H_    0.089614 0.479192 0.794318 0.138585
H9    H     H_    0.584565 0.262295 0.822249 0.154904
H10   H     H_    0.607545 0.270871 0.696033 0.111403
H11   H     H_    0.962222 0.917969 0.295864 0.124419
H12   H     H_    0.916273 0.681152 0.462696 0.109800
H13   H     H_    0.878640 0.121987 0.675049 0.143595
H14   H     H_    0.854299 0.612509 0.820606 0.145514
H15   H     H_    0.705331 0.580689 0.833270 0.157891
H16   H     H_    0.655201 0.612855 0.710846 0.155629
H17   H     H_    0.805777 0.643517 0.696618 0.150974
H18   H     H_    0.450347 0.924057 0.809173 0.140416
H19   H     H_    0.082389 0.738702 0.821061 0.158883
H20   H     H_    0.889290 0.666087 0.142072 0.129555
H21   H     H_    0.277251 0.613528 0.826095 0.144495
H22   H     H_    0.286286 0.592757 0.699661 0.152683
H23   H     H_    0.078577 0.462673 0.401531 0.114056
H24   H     H_    0.090362 0.715999 0.694498 0.159406
H25   H     H_    0.752037 0.693379 0.252102 0.120494
H26   H     H_    0.551524 0.916265 0.283336 0.119606
H27   H     H_    0.635436 0.099775 0.102143 0.165440
H28   H     H_    0.133668 0.475467 0.178155 0.141157
H29   H     H_    0.884023 0.935902 0.470925 0.243422
H30   H     H_    0.742853 0.949053 0.428468 0.229692
H31   H     H_    0.625867 0.972782 0.808893 0.224412
H32   H     H_    0.650583 0.049848 0.880340 0.274042
H33   H     H_    0.989111 0.016324 0.843817 0.277080
H34   H     H_    0.878568 0.511822 0.330799 0.146454
H35   H     H_    0.902020 0.001536 0.776841 0.248631
H36   H     H_    0.566375 0.824051 0.650592 0.252693
H37   H     H_    0.517906 0.959418 0.702684 0.231005
H38   H     H_    0.937123 0.486715 0.207433 0.123432
H39   H     H_    0.813672 0.078619 0.188425 0.125862
H40   H     H_    0.624515 0.299457 0.298690 0.152595
H41   H     H_    0.746416 0.107903 0.311178 0.164543
H42   H     H_    0.172387 0.042129 0.351645 0.126792
N1    N     N_3   0.839712 0.942094 0.420877 -0.628052
N2    N     N_1   0.558119 0.370227 0.124470 -0.294879
N3    N     N_1   0.913766 0.859477 0.003831 -0.266360
N4    N     N_3   0.660737 0.039880 0.825163 -0.595921
N5    N     N_1   0.765802 0.942811 0.651591 -0.356366
N6    N     N_3   0.898484 0.072404 0.814602 -0.576998
N7    N     N_3   0.477753 0.914858 0.668556 -0.597607
N8    N     N_1   0.152352 0.717994 0.154868 -0.266887
O1    O     O_R   0.748670 0.497520 0.427970 -0.533179
O2    O     O_R   0.417470 0.174910 0.067830 -0.520237
O3    O     O_R   0.375160 0.946380 0.070880 -0.504618
O4    O     O_R   0.476470 0.723930 0.429450 -0.499409
O5    O     O_R   0.160500 0.919670 0.926690 -0.508087
O6    O     O_R   0.933140 0.190380 0.936050 -0.472104
O7    O     O_R   0.909010 0.403210 0.925030 -0.517147
O8    O     O_R   0.179590 0.361290 0.918480 -0.508222
O9    O     O_R   0.391360 0.170840 0.907510 -0.523040
O10   O     O_R   0.350950 0.942600 0.922260 -0.512259
O11   O     O_3   0.166650 0.166610 0.999880 -0.328433
O12   O     O_R   0.300170 0.471020 0.567120 -0.517326
O13   O     O_R   0.264730 0.744140 0.416740 -0.502368
O14   O     O_R   0.309440 0.472410 0.418220 -0.494021
O15   O     O_R   0.501630 0.260530 0.414310 -0.531430
O16   O     O_R   0.727920 0.305730 0.428950 -0.486664
O17   O     O_R   0.738670 0.496020 0.588600 -0.523895
O18   O     O_R   0.467190 0.722540 0.578350 -0.501169
O19   O     O_R   0.254720 0.742640 0.577370 -0.524280
O20   O     O_R   0.491630 0.259030 0.574940 -0.506358
O21   O     O_R   0.718640 0.304340 0.577850 -0.511097
O22   O     O_3   0.500010 0.500010 0.500020 -0.260229
O23   O     O_R   0.186620 0.923750 0.087000 -0.464185
O24   O     O_R   0.957350 0.194160 0.084660 -0.506000
O25   O     O_R   0.935120 0.407280 0.085350 -0.536527
O26   O     O_R   0.203800 0.365060 0.067090 -0.490210

loop_
_geom_bond_atom_site_label_1
_geom_bond_atom_site_label_2
_ccdc_geom_bond_type
C36   H9    S    
C66   C68   A    
C21   C26   S    
C17   C69   S    
C26   H3    S    
C23   C45   A    
C22   C29   A    
C40   O12   A    
C73   C74   A    
C5    C67   A    
C71   N5    T    
Cr3   O21   S    
Cr1   O4    S    
C61   O3    A    
C7    C8    A    
C39   C41   A    
H33   N6    S    
Cr5   O11   S    
C53   C54   A    
C57   H22   S    
C12   C68   A    
C26   C27   S    
C49   C65   S    
C13   C18   S    
Cr6   O2    S    
C36   C37   S    
C10   C15   A    
C52   O21   A    
C30   C31   A    
C73   H27   S    
C20   C25   A    
Cr2   O22   S    
C49   C54   A    
C16   O16   A    
C41   C42   A    
C62   O6    A    
C20   C61   S    
C27   H5    S    
C16   O1    A    
C24   C29   A    
C43   H13   S    
Cr5   O26   S    
C65   O10   A    
C11   C17   S    
C46   H15   S    
C56   C72   S    
C12   C73   A    
C70   C74   S    
C41   C46   S    
C51   C57   S    
C34   H1    S    
C32   C38   A    
H37   N7    S    
C43   C48   A    
H32   N4    S    
C28   O19   A    
C7    H23   S    
C30   C63   S    
C8    C56   A    
C68   H26   S    
Cr3   O22   S    
C24   H42   S    
C59   O24   A    
Cr1   O1    S    
C50   C51   A    
C6    C7    A    
C23   C60   S    
C28   O18   A    
C13   C19   A    
C24   C25   A    
C3    C8    S    
Cr4   O11   S    
C51   C58   A    
C59   O25   A    
H29   N1    S    
C69   N2    T    
Cr1   O17   S    
C14   H34   S    
Cr6   O3    S    
Cr4   O24   S    
C64   C66   A    
C27   H6    S    
C43   C44   A    
C60   O26   A    
C1    O13   A    
H30   N1    S    
C35   H8    S    
C31   C32   A    
C46   H14   S    
C48   C52   S    
Cr1   O22   S    
C47   H16   S    
H31   N4    S    
C67   H11   S    
C17   C18   S    
C40   O20   A    
C34   C45   A    
C42   C48   A    
C32   C37   S    
C3    C9    A    
C65   O5    A    
C37   H10   S    
C70   N3    T    
Cr5   O7    S    
Cr6   O11   S    
C52   O17   A    
C22   C27   S    
C37   C71   S    
C25   H2    S    
C63   O8    A    
C53   N7    S    
C66   H25   S    
C1    O4    A    
C56   C67   A    
Cr2   O14   S    
Cr4   O5    S    
C57   H24   S    
C55   H21   S    
C46   C47   S    
C44   N6    S    
C26   H4    S    
C60   O2    A    
C14   C15   A    
C63   O9    A    
C14   C19   A    
C36   N4    S    
C50   C55   S    
C12   C45   S    
C61   O23   A    
Cr3   O20   S    
C4    O14   A    
C53   C58   A    
Cr4   O23   S    
C72   N8    T    
C39   C44   A    
H36   N7    S    
C28   C58   S    
Cr1   O18   S    
Cr6   O9    S    
C30   C35   A    
C5    N1    S    
C33   C38   A    
C47   H17   S    
C15   H38   S    
C55   C57   S    
C2    C3    A    
C33   H7    S    
Cr6   O10   S    
C17   H39   S    
C38   C40   S    
C11   C13   A    
C1    C29   S    
C5    C6    A    
Cr3   O15   S    
Cr2   O19   S    
C16   C19   S    
C6    H12   S    
C4    O15   A    
C2    H28   S    
C33   C35   A    
C9    C34   A    
C10   C59   S    
C42   C47   S    
C62   O7    A    
C10   C11   A    
H35   N6    S    
C18   H41   S    
Cr5   O25   S    
Cr2   O13   S    
C64   H20   S    
Cr5   O8    S    
C20   C21   A    
C49   C50   A    
C55   H19   S    
C2    C23   A    
C39   C62   S    
C64   C74   A    
C31   C36   S    
C54   H18   S    
C4    C9    S    
C21   C22   A    
Cr4   O6    S    
Cr3   O16   S    
C18   H40   S    
Cr2   O12   S    
