data_mof_unit_60279.cif
_audit_creation_date              2012-12-10T20:46:44-0500
_audit_creation_method            fapswitch 2.2
_symmetry_space_group_name_H-M    P1
_symmetry_Int_Tables_number       1
_space_group_crystal_system       triclinic
_cell_length_a                    15.372166
_cell_length_b                    19.095844
_cell_length_c                    19.216862
_cell_angle_alpha                 94.469736
_cell_angle_beta                  102.363816
_cell_angle_gamma                 96.663603
_cell_volume                      5442.15650987

loop_
_atom_site_label
_atom_site_type_symbol
_atom_type_description
_atom_site_fract_x
_atom_site_fract_y
_atom_site_fract_z
_atom_type_partial_charge
C1    C     C_R   0.509539 0.311476 0.493971 0.566356
C2    C     C_R   0.886919 0.519969 0.507259 -0.133256
C3    C     C_R   0.882762 0.566544 0.626312 -0.075561
C4    C     C_R   0.490562 0.688533 0.506315 0.532447
C5    C     C_R   0.159390 0.445408 0.456321 0.045672
C6    C     C_R   0.483347 0.765403 0.507428 -0.015398
C7    C     C_R   0.476402 0.798659 0.443284 -0.039033
C8    C     C_R   0.463874 0.870730 0.443916 0.141262
C9    C     C_R   0.459936 0.909797 0.508137 0.218887
C10   C     C_R   0.457424 0.875140 0.569871 -0.032554
C11   C     C_R   0.475004 0.804264 0.571285 -0.051707
C12   C     C_R   0.019145 0.390315 0.376332 0.017862
C13   C     C_R   0.512516 0.131049 0.559277 0.130745
C14   C     C_R   0.497883 0.201758 0.553935 0.052599
C15   C     C_R   0.530696 0.090669 0.500640 0.200722
C16   C     C_R   0.508465 0.507299 0.691220 0.520560
C17   C     C_R   0.513041 0.235072 0.494034 0.013379
C18   C     C_R   0.540384 0.197201 0.438395 -0.008535
C19   C     C_R   0.549428 0.124689 0.441609 -0.003710
C20   C     C_R   0.493863 0.482964 0.232519 -0.009842
C21   C     C_R   0.574963 0.496687 0.209002 -0.007846
C22   C     C_R   0.572781 0.487878 0.135166 0.120564
C23   C     C_R   0.970186 0.416363 0.425305 0.028000
C24   C     C_R   0.490816 0.465470 0.085419 0.232673
C25   C     C_R   0.410615 0.449386 0.109024 0.005661
C26   C     C_R   0.413314 0.458473 0.182424 -0.181631
C27   C     C_R   0.539850 0.460540 0.884188 -0.053118
C28   C     C_R   0.492128 0.490144 0.309174 0.513800
C29   C     C_R   0.546304 0.456847 0.812255 -0.026333
C30   C     C_R   0.495002 0.511860 0.913127 0.218591
C31   C     C_R   0.508117 0.507288 0.768389 -0.033510
C32   C     C_R   0.466009 0.559676 0.798845 -0.111472
C33   C     C_R   0.459677 0.562178 0.870203 0.116954
C34   C     C_R   0.017472 0.462567 0.487793 -0.040824
C35   C     C_R   0.741894 0.534713 0.535717 0.511526
C36   C     C_R   0.257755 0.464843 0.467035 0.544343
C37   C     C_R   0.973663 0.561379 0.650504 0.064730
C38   C     C_R   0.839768 0.547212 0.554709 0.013364
C39   C     C_R   0.111895 0.410041 0.390220 -0.165858
C40   C     C_2   0.435543 0.913016 0.632892 0.272750
C41   C     C_2   0.484909 0.771711 0.640102 0.265706
C42   C     C_2   0.580460 0.085229 0.383901 0.319514
C43   C     C_2   0.477409 0.756915 0.374981 0.296879
C44   C     C_2   0.590074 0.398121 0.785336 0.288992
C45   C     C_R   0.111793 0.464293 0.508912 0.019256
C46   C     C_2   0.322517 0.423731 0.059228 0.292313
C47   C     C_2   0.175444 0.589958 0.673845 0.249914
C48   C     C_2   0.662272 0.517443 0.260973 0.290456
C49   C     C_2   0.873874 0.388020 0.416901 0.286455
C50   C     C_2   0.978586 0.340705 0.310931 0.318253
C51   C     C_2   0.228931 0.448701 0.619514 0.304521
C52   C     C_R   0.974809 0.504039 0.532098 -0.010644
C53   C     C_R   0.022778 0.534005 0.602129 0.008838
C54   C     C_R   0.116404 0.532185 0.622430 -0.021958
C55   C     C_R   0.155528 0.486181 0.581402 0.050983
H1    H     H_    0.843972 0.582193 0.664409 0.154114
H2    H     H_    0.441777 0.703413 0.362119 0.098455
H3    H     H_    0.574603 0.378214 0.729384 0.168998
H4    H     H_    0.262800 0.413350 0.080445 0.110404
H5    H     H_    0.147309 0.635084 0.693148 0.160875
H6    H     H_    0.672282 0.563616 0.299774 0.144188
H7    H     H_    0.849418 0.373415 0.463465 0.114315
H8    H     H_    0.008469 0.342558 0.264662 0.108163
H9    H     H_    0.264085 0.466633 0.674246 0.167791
H10   H     H_    0.569193 0.422536 0.917893 0.204804
H11   H     H_    0.351776 0.446881 0.200858 0.128557
H12   H     H_    0.437521 0.599308 0.767032 0.204588
H13   H     H_    0.852287 0.508810 0.451662 0.151518
H14   H     H_    0.148187 0.393941 0.350421 0.129402
H15   H     H_    0.470905 0.906667 0.686791 0.120369
H16   H     H_    0.441409 0.782236 0.676196 0.115814
H17   H     H_    0.565375 0.099625 0.329598 0.152238
I1    I     I_    0.526044 0.090261 0.660593 -0.123401
I2    I     I_    0.575534 0.252161 0.352923 -0.221929
I3    I     I_    0.431214 0.918605 0.346170 -0.131129
I4    I     I_    0.692564 0.510283 0.096207 -0.150300
I5    I     I_    0.393322 0.641986 0.910730 -0.161254
I6    I     I_    0.018563 0.573960 0.764470 -0.254514
I7    I     I_    0.445921 0.257218 0.633936 -0.192347
N1    N     N_2   0.459724 0.984432 0.511489 -0.153883
N2    N     N_2   0.530193 0.016017 0.499711 -0.147873
N3    N     N_2   0.490593 0.458013 0.011764 -0.172071
N4    N     N_2   0.488468 0.515881 0.985937 -0.167622
O1    O     O_3   0.500000 0.500000 0.500000 -0.458589
O2    O     O_R   0.703360 0.489010 0.567610 -0.531354
O3    O     O_R   0.300660 0.429640 0.429680 -0.537712
O4    O     O_R   0.695340 0.566530 0.487850 -0.522458
O5    O     O_R   0.300650 0.514820 0.514850 -0.531668
O6    O     O_2   0.374965 0.949784 0.624961 -0.418397
O7    O     O_2   0.543798 0.734698 0.658142 -0.465571
O8    O     O_2   0.625212 0.037008 0.396644 -0.412040
O9    O     O_2   0.520682 0.780774 0.333740 -0.419034
O10   O     O_2   0.643612 0.369613 0.826518 -0.449714
O11   O     O_2   0.314910 0.413619 0.994567 -0.421232
O12   O     O_R   0.453370 0.540700 0.651360 -0.502476
O13   O     O_2   0.256815 0.591233 0.691166 -0.516022
O14   O     O_2   0.723856 0.482407 0.261188 -0.410982
O15   O     O_2   0.820386 0.384706 0.359365 -0.386461
O16   O     O_2   0.915960 0.294560 0.309208 -0.398123
O17   O     O_2   0.246959 0.394023 0.591934 -0.492810
O18   O     O_R   0.442100 0.444740 0.334100 -0.527402
O19   O     O_R   0.561930 0.354050 0.543340 -0.525186
O20   O     O_R   0.542600 0.660510 0.471200 -0.536337
O21   O     O_R   0.453390 0.335660 0.446330 -0.502295
O22   O     O_R   0.442080 0.649780 0.539130 -0.508673
O23   O     O_R   0.561920 0.473910 0.663190 -0.555726
O24   O     O_R   0.542610 0.540650 0.351350 -0.563830
Zn1   Zn    Zn3+2 0.425320 0.550450 0.550460 1.013546
Zn2   Zn    Zn3+2 0.580410 0.455020 0.567370 0.997539
Zn3   Zn    Zn3+2 0.568940 0.565780 0.453410 0.976289
Zn4   Zn    Zn3+2 0.425330 0.428750 0.428760 0.995709

loop_
_geom_bond_atom_site_label_1
_geom_bond_atom_site_label_2
_ccdc_geom_bond_type
C5    C36   S    
C46   H4    S    
C27   C29   A    
C22   I4    S    
C7    C8    A    
C15   N2    S    
O4    Zn3   S    
C53   C54   A    
C36   O5    A    
C16   C31   S    
C15   C19   A    
C48   O14   D    
C12   C23   A    
C50   O16   D    
C40   H15   S    
O20   Zn3   S    
C18   C19   A    
O2    Zn2   S    
O5    Zn1   S    
C23   C49   S    
C28   O24   A    
C4    O20   A    
C10   C40   S    
C42   O8    D    
C30   N4    S    
C24   N3    S    
C44   O10   D    
C47   H5    S    
C35   O4    A    
C28   O18   A    
C3    C38   A    
C44   H3    S    
C8    C9    A    
C47   O13   D    
C7    C43   S    
C40   O6    D    
C9    C10   A    
C19   C42   S    
C16   O23   A    
C41   H16   S    
C21   C48   S    
C37   C53   A    
C41   O7    D    
C49   O15   D    
C18   I2    S    
C21   C22   A    
C27   C30   A    
C50   H8    S    
C14   C17   A    
O22   Zn1   S    
O1    Zn4   S    
C26   H11   S    
C35   C38   S    
C24   C25   A    
C4    C6    S    
O12   Zn1   S    
C6    C11   A    
C20   C28   S    
C36   O3    A    
C25   C26   A    
C5    C45   A    
C8    I3    S    
O1    Zn3   S    
C9    N1    S    
C27   H10   S    
C3    H1    S    
C2    C38   A    
C31   C32   A    
C46   O11   D    
C23   C34   A    
C42   H17   S    
C17   C18   A    
C39   H14   S    
C34   C45   A    
C14   I7    S    
C1    O21   A    
C3    C37   A    
C2    C52   A    
C32   H12   S    
C13   I1    S    
C47   C54   S    
C29   C44   S    
O24   Zn3   S    
C22   C24   A    
C34   C52   A    
C52   C53   A    
C37   I6    S    
C51   O17   D    
C5    C39   A    
C54   C55   A    
C16   O12   A    
C49   H7    S    
C30   C33   A    
C1    C17   S    
C51   H9    S    
C43   O9    D    
N1    N2    D    
O21   Zn4   S    
C12   C50   S    
C6    C7    A    
O18   Zn4   S    
C4    O22   A    
C2    H13   S    
O1    Zn2   S    
C32   C33   A    
C12   C39   A    
C13   C15   A    
O3    Zn4   S    
C29   C31   A    
C35   O2    A    
C33   I5    S    
C48   H6    S    
C20   C26   A    
C1    O19   A    
O1    Zn1   S    
C11   C41   S    
C51   C55   S    
C10   C11   A    
C43   H2    S    
C20   C21   A    
C45   C55   A    
N3    N4    D    
O19   Zn2   S    
C13   C14   A    
C25   C46   S    
O23   Zn2   S    
