data_mof_unit_16315.cif
_audit_creation_date              2013-03-05T15:55:19-0500
_audit_creation_method            fapswitch 2.2
_symmetry_space_group_name_H-M    P1
_symmetry_Int_Tables_number       1
_space_group_crystal_system       triclinic
_cell_length_a                    27.723876
_cell_length_b                    10.573049
_cell_length_c                    9.865429
_cell_angle_alpha                 90.647306
_cell_angle_beta                  89.945738
_cell_angle_gamma                 91.733309
_cell_volume                      2890.30459073

loop_
_atom_site_label
_atom_site_type_symbol
_atom_site_description
_atom_site_fract_x
_atom_site_fract_y
_atom_site_fract_z
_atom_type_partial_charge
O1    O     O_R   0.500000 0.316780 0.614690 -0.664725
O2    O     O_R   0.500000 0.316750 0.385360 -0.572959
C1    C     C_R   0.502209 0.257794 0.499528 0.906631
O3    O     O_R   0.428760 0.500030 0.614650 -0.632308
O4    O     O_R   0.428750 0.500010 0.385320 -0.667524
C2    C     C_R   0.406021 0.499340 0.500013 0.816254
Zn1   Zn    Zn3+2 0.500000 0.500020 0.653130 0.981311
Zn2   Zn    Zn3+2 0.500000 0.499980 0.346870 1.015635
O5    O     O_R   0.500000 0.683250 0.614640 -0.589090
O6    O     O_R   0.500000 0.683220 0.385310 -0.537794
O7    O     O_R   0.571250 0.499990 0.614680 -0.563582
O8    O     O_R   0.571240 0.499970 0.385350 -0.585403
C3    C     C_R   0.489484 0.735168 0.501113 0.922801
C4    C     C_R   0.594044 0.500638 0.499957 0.924851
C5    C     C_R   0.175962 0.388991 0.523175 0.514335
O9    O     O_2   0.199385 0.282879 0.553578 -0.541050
N1    N     N_R   0.201504 0.498442 0.496730 -0.359312
C6    C     C_R   0.179207 0.607964 0.466061 0.507664
C7    C     C_R   0.278267 0.505787 0.375926 -0.096858
C8    C     C_R   0.328328 0.505997 0.376492 -0.219498
C9    C     C_R   0.327631 0.490120 0.622205 -0.179592
C10   C     C_R   0.277491 0.489668 0.621219 -0.089583
C11   C     C_R   0.252873 0.497828 0.498131 0.308642
C12   C     C_R   0.101723 0.497625 0.483709 -0.052435
C13   C     C_R   0.125545 0.386437 0.517087 -0.021652
C14   C     C_R   0.098611 0.276226 0.545764 -0.166032
C15   C     C_R   0.128858 0.609829 0.459488 -0.022298
C16   C     C_R   0.353355 0.498524 0.499717 -0.035547
H1    H     H_    0.346150 0.483796 0.718439 0.176888
H2    H     H_    0.257720 0.483510 0.715776 0.145926
H3    H     H_    0.115970 0.191106 0.577729 0.195951
C17   C     C_R   0.646906 0.499783 0.498333 -0.094944
C18   C     C_R   0.973438 0.378783 0.469977 -0.008472
C19   C     C_R   0.976173 0.612499 0.461193 0.072421
C20   C     C_R   0.949548 0.495711 0.466051 0.002827
C21   C     C_R   0.945806 0.264301 0.450491 0.426227
C22   C     C_R   0.895299 0.266972 0.452178 -0.242725
C23   C     C_R   0.871657 0.381240 0.464374 -0.074021
C24   C     C_R   0.898588 0.496073 0.467414 -0.057300
C25   C     C_R   0.874445 0.611415 0.472592 -0.007202
C26   C     C_R   0.824037 0.609438 0.478382 0.513335
N2    N     N_R   0.798746 0.496609 0.478077 -0.348883
C27   C     C_R   0.821249 0.383641 0.470069 0.542188
C28   C     C_R   0.720131 0.464799 0.370847 -0.100366
C29   C     C_R   0.670215 0.466316 0.377072 -0.276305
C30   C     C_R   0.674434 0.532401 0.614817 0.434467
C31   C     C_R   0.724919 0.530423 0.606822 -0.213644
C32   C     C_R   0.747426 0.496883 0.485416 0.272686
O10   O     O_2   0.794852 0.274218 0.468919 -0.543523
C33   C     C_R   0.024048 0.381420 0.491331 0.062448
C34   C     C_R   0.050789 0.496791 0.475473 0.058841
C35   C     C_R   0.027083 0.611613 0.453411 0.046637
C36   C     C_R   0.048686 0.274190 0.534988 -0.132221
H4    H     H_    0.649841 0.440597 0.286712 0.195737
H5    H     H_    0.874495 0.179028 0.441278 0.191969
O11   O     O_2   0.205777 0.714609 0.442640 -0.544696
C37   C     C_R   0.105300 0.720785 0.428581 -0.125848
H6    H     H_    0.347334 0.512369 0.280689 0.170020
H7    H     H_    0.259095 0.511751 0.280700 0.144713
H8    H     H_    0.125435 0.807688 0.407091 0.196386
C38   C     C_R   0.950920 0.726586 0.466761 -0.209753
C39   C     C_R   0.900953 0.725790 0.472875 -0.134526
O12   O     O_2   0.800362 0.719110 0.483675 -0.543732
C40   C     C_R   0.055274 0.722031 0.426050 -0.213424
H9    H     H_    0.968897 0.818379 0.471566 0.149761
H10   H     H_    0.883187 0.815601 0.478245 0.187952
H11   H     H_    0.746911 0.555291 0.694432 0.140310
C41   C     C_R   0.520065 0.103897 0.745648 -0.103402
H12   H     H_    0.544398 0.185699 0.745997 0.175321
C42   C     C_R   0.511454 0.045298 0.869503 -0.247607
H13   H     H_    0.527000 0.085667 0.961424 0.183124
C43   C     C_R   0.481653 0.937393 0.875348 -0.125947
H14   H     H_    0.472817 0.896303 0.972622 0.192812
C44   C     C_R   0.463747 0.881179 0.756200 0.538651
C45   C     C_R   0.477462 0.933409 0.628369 -0.060911
C46   C     C_R   0.499052 0.054421 0.624527 0.000073
C47   C     C_R   0.499378 0.119873 0.499289 -0.232926
C48   C     C_R   0.486458 0.055887 0.376947 0.425155
C49   C     C_R   0.471484 0.929181 0.381431 0.363202
C50   C     C_R   0.474341 0.865533 0.504924 -0.354760
C51   C     C_R   0.436362 0.335196 0.138621 -0.116088
H15   H     H_    0.434370 0.329378 0.245992 0.233016
C52   C     C_R   0.405393 0.252522 0.067724 -0.311308
C53   C     C_R   0.405430 0.251132 0.926372 0.450549
C54   C     C_R   0.436584 0.334008 0.857699 -0.141129
H16   H     H_    0.434470 0.328856 0.750259 0.222105
C55   C     C_R   0.468706 0.418294 0.926740 0.062847
C56   C     C_R   0.468659 0.418585 0.071411 0.069870
N3    N     N_R   0.499540 0.498800 0.142780 -0.126316
C57   C     C_R   0.529951 0.579187 0.073272 0.504100
H17   H     H_    0.553710 0.642387 0.873662 0.171425
C58   C     C_R   0.529724 0.578717 0.928734 -0.174117
N4    N     N_R   0.499520 0.498720 0.857170 -0.112241
O13   O     O_3   0.651717 0.567789 0.733496 -0.758336
H18   H     H_    0.676392 0.587675 0.803936 0.332179
H19   H     H_    0.039645 0.810384 0.398894 0.156355
O14   O     O_3   0.489819 0.118397 0.254558 -0.762183
H20   H     H_    0.480095 0.061734 0.178312 0.370177
O15   O     O_3   0.431768 0.779282 0.768792 -0.749834
H21   H     H_    0.414414 0.766240 0.681740 0.329133
O16   O     O_3   0.455702 0.868648 0.263924 -0.771730
H22   H     H_    0.433785 0.796817 0.289214 0.346219
O17   O     O_3   0.560419 0.659830 0.145997 -0.709918
H23   H     H_    0.579784 0.711945 0.081726 0.316894
H24   H     H_    0.381501 0.189068 0.123582 0.168349
O18   O     O_3   0.375558 0.169964 0.852055 -0.752999
H25   H     H_    0.356142 0.116887 0.915360 0.347689
H26   H     H_    0.737725 0.439139 0.276827 0.155624
O19   O     O_3   0.968226 0.152782 0.418405 -0.792433
H27   H     H_    0.943723 0.083154 0.407110 0.330090
H28   H     H_    0.029981 0.189029 0.567880 0.202234

loop_
_geom_bond_atom_site_label_1
_geom_bond_atom_site_label_2
_geom_bond_distance
_ccdc_geom_bond_type
C55   C56   1.427209 A    
O16   H22   0.992136 S    
C17   C29   1.405963 A    
C20   C24   1.412989 A    
C7    C8    1.387836 A    
C12   C15   1.408028 A    
C51   H15   1.063024 S    
C47   C48   1.417903 A    
Zn1   O7    2.011074 S    
N1    C11   1.424429 S    
C52   C53   1.394409 A    
C21   C22   1.401467 A    
C23   C24   1.406001 A    
O7    C4    1.295732 A    
C5    C13   1.398544 A    
O18   H25   0.991836 S    
C5    O9    1.349971 S    
O14   H20   0.988854 S    
C18   C21   1.424043 A    
C25   C39   1.395934 A    
C5    N1    1.365862 A    
C19   C20   1.420578 A    
C26   N2    1.365321 A    
O5    C3    1.290309 A    
O17   H23   0.991598 S    
C2    C16   1.459901 S    
C31   C32   1.397138 A    
C41   H12   1.080647 S    
C53   O18   1.379794 S    
C42   H13   1.082195 S    
C45   C50   1.407959 A    
C6    O11   1.350082 S    
C36   H28   1.078422 S    
C12   C34   1.414256 A    
C28   H26   1.083202 S    
C3    C50   1.453047 S    
C14   H3    1.083476 S    
C9    C10   1.389998 A    
C38   C39   1.386307 A    
O3    Zn1   2.011561 S    
C31   H11   1.083551 S    
C51   C52   1.390098 A    
C33   C34   1.418252 A    
C46   C47   1.422826 A    
C54   C55   1.410877 A    
Zn1   N4    2.013172 S    
C33   C36   1.412763 A    
C44   C45   1.429008 A    
C39   H10   1.083613 S    
C34   C35   1.416916 A    
C53   C54   1.392598 A    
C40   H19   1.078217 S    
O3    C2    1.295130 A    
C35   C40   1.413560 A    
C24   C25   1.409164 A    
C48   C49   1.391637 A    
C27   O10   1.350062 S    
C37   H8    1.083501 S    
C8    C16   1.404487 A    
C7    H7    1.083221 S    
C18   C33   1.418409 A    
C54   H16   1.062313 S    
C9    H1    1.083446 S    
C19   C38   1.413413 A    
C52   H24   1.083201 S    
O1    C1    1.292147 A    
C7    C11   1.397611 A    
C45   C46   1.396945 A    
C22   C23   1.395779 A    
C57   C58   1.425894 A    
O15   H21   0.991021 S    
C30   O13   1.382181 S    
Zn2   O8    2.011558 S    
C48   O14   1.384722 S    
N1    C6    1.366076 A    
N2    C32   1.424651 S    
C12   C13   1.408102 A    
C43   C44   1.396006 A    
C25   C26   1.398158 A    
C9    C16   1.404872 A    
O8    C4    1.295772 A    
C29   H4    1.083449 S    
C15   C37   1.396643 A    
N2    C27   1.365625 A    
C26   O12   1.350101 S    
C8    H6    1.083433 S    
C1    C47   1.457962 S    
C14   C36   1.387787 A    
H17   C58   1.082164 S    
C28   C29   1.385733 A    
C37   C40   1.387616 A    
Zn1   O5    1.978369 S    
C30   C31   1.402560 A    
C10   H2    1.083111 S    
O1    Zn1   1.969963 S    
C17   C30   1.413782 A    
Zn2   O6    1.969962 S    
O2    Zn2   1.978367 S    
C6    C15   1.398184 A    
C4    C17   1.465893 S    
C43   H14   1.082689 S    
O6    C3    1.298740 A    
O4    Zn2   2.011076 S    
C44   O15   1.381013 S    
C41   C46   1.417598 A    
C19   C35   1.413745 A    
O2    C1    1.295841 A    
C13   C14   1.396380 A    
C23   C27   1.399583 A    
O19   H27   0.991900 S    
O4    C2    1.294586 A    
C55   N4    1.375534 A    
C58   N4    1.363752 A    
C18   C20   1.421004 A    
O13   H18   0.991967 S    
C57   O17   1.378042 S    
C51   C56   1.408198 A    
C49   C50   1.401919 A    
C22   H5    1.083609 S    
C38   H9    1.078100 S    
C56   N3    1.375404 A    
C41   C42   1.393359 A    
C21   O19   1.382872 S    
C10   C11   1.398329 A    
C49   O16   1.382816 S    
C42   C43   1.389944 A    
Zn2   N3    2.013383 S    
N3    C57   1.368273 A    
C28   C32   1.393784 A    
