data_mof_unit_68201.cif
_audit_creation_date              2012-12-11T16:32:28-0500
_audit_creation_method            fapswitch 2.2
_symmetry_space_group_name_H-M    P1
_symmetry_Int_Tables_number       1
_space_group_crystal_system       triclinic
_cell_length_a                    7.015924
_cell_length_b                    14.402967
_cell_length_c                    15.969238
_cell_angle_alpha                 89.975317
_cell_angle_beta                  90.047282
_cell_angle_gamma                 89.984787
_cell_volume                      1613.69268946

loop_
_atom_site_label
_atom_site_type_symbol
_atom_type_description
_atom_site_fract_x
_atom_site_fract_y
_atom_site_fract_z
_atom_type_partial_charge
O1    O     O_R   0.361630 0.167340 0.164570 -0.549655
O2    O     O_R   0.638370 0.832660 0.835430 -0.545513
O3    O     O_R   0.690860 0.157560 0.338690 -0.532075
O4    O     O_R   0.309140 0.842440 0.661310 -0.533401
O5    O     O_R   0.861260 0.336420 0.339380 -0.514216
O6    O     O_R   0.138740 0.663580 0.660620 -0.525559
C1    C     C_R   0.521900 0.135313 0.368172 0.749066
C2    C     C_R   0.478127 0.864966 0.632058 0.749592
O7    O     O_R   0.691330 0.156310 0.165190 -0.547884
O8    O     O_R   0.308670 0.843690 0.834810 -0.551470
O9    O     O_R   0.861730 0.335160 0.164640 -0.532738
O10   O     O_R   0.138270 0.664840 0.835360 -0.551255
C3    C     C_R   0.523807 0.140743 0.131591 0.692785
C4    C     C_R   0.477245 0.858256 0.868922 0.691241
O11   O     O_R   0.361150 0.168600 0.339320 -0.527475
O12   O     O_R   0.638850 0.831400 0.660680 -0.525324
O13   O     O_3   0.527950 0.310560 0.252000 -0.345362
O14   O     O_3   0.472050 0.689440 0.748000 -0.351181
V1    V     V_3+5 0.802770 0.240990 0.251980 1.475807
V2    V     V_3+5 0.197230 0.759010 0.748020 1.454957
O15   O     O_R   0.191450 0.346190 0.165260 -0.548167
O16   O     O_R   0.808550 0.653810 0.834740 -0.532973
C5    C     C_R   0.021696 0.371140 0.139309 0.719421
C6    C     C_R   0.977801 0.627779 0.859691 0.720416
O17   O     O_R   0.190980 0.347440 0.338770 -0.527885
O18   O     O_R   0.809020 0.652560 0.661230 -0.517630
C7    C     C_R   0.022468 0.369113 0.367771 0.796413
C8    C     C_R   0.978092 0.630777 0.632521 0.800454
V3    V     V_3+5 0.302780 0.262760 0.251980 1.479077
V4    V     V_3+5 0.697220 0.737240 0.748020 1.487951
O19   O     O_3   0.027730 0.193200 0.251960 -0.378007
O20   O     O_3   0.972270 0.806800 0.748040 -0.376882
C9    C     C_3   0.890709 0.426888 0.517883 0.231217
C10   C     C_3   0.112953 0.571882 0.483878 0.203963
C11   C     C_3   0.060085 0.459533 0.572593 -0.156072
C12   C     C_3   0.943857 0.539596 0.429382 -0.164082
H1    H     H_    0.107354 0.426400 0.631872 0.173703
H2    H     H_    0.902227 0.577565 0.372154 0.183713
C13   C     C_3   0.990219 0.560586 0.562936 -0.101941
C14   C     C_3   0.012833 0.438468 0.438489 -0.104059
C15   C     C_3   0.820386 0.528262 0.509228 -0.125384
C16   C     C_3   0.183115 0.470584 0.492378 -0.143613
H3    H     H_    0.670315 0.551465 0.516098 0.179540
H4    H     H_    0.333155 0.447384 0.485338 0.179164
H5    H     H_    0.940104 0.298560 0.762886 0.177541
H6    H     H_    0.915724 0.692564 0.236393 0.169533
C17   C     C_R   0.026567 0.691374 0.030173 -0.262981
C18   C     C_R   0.053077 0.306644 0.968770 -0.256145
C19   C     C_R   0.010993 0.726905 0.111627 0.170116
C20   C     C_R   0.032648 0.268572 0.888672 0.166341
C21   C     C_R   0.958333 0.665977 0.175958 -0.118681
C22   C     C_R   0.977655 0.327243 0.823208 -0.121563
C23   C     C_R   0.929282 0.571799 0.159603 0.045550
C24   C     C_R   0.938551 0.420983 0.837736 0.049244
C25   C     C_R   0.981791 0.533442 0.081248 0.050154
C26   C     C_R   0.982530 0.462683 0.916262 0.043139
C27   C     C_R   0.003321 0.595245 0.013100 0.005647
C28   C     C_R   0.021879 0.402404 0.984635 0.006550
C29   C     C_R   0.008995 0.436788 0.067846 -0.126928
C30   C     C_R   0.986683 0.560689 0.930034 -0.126126
H7    H     H_    0.043122 0.740972 0.979828 0.113214
H8    H     H_    0.074525 0.258377 0.019814 0.107644
C31   C     C_3   0.432386 0.964208 0.428682 -0.185262
C32   C     C_3   0.567482 0.036609 0.572037 -0.186442
C33   C     C_3   0.603876 0.926374 0.479475 0.220693
C34   C     C_3   0.396092 0.074405 0.521107 0.216981
H9    H     H_    0.371820 0.934489 0.370566 0.137517
H10   H     H_    0.626021 0.066822 0.630485 0.141306
C35   C     C_3   0.489874 0.936853 0.561580 -0.092150
C36   C     C_3   0.510131 0.063866 0.439033 -0.089754
C37   C     C_3   0.317946 0.974520 0.511399 -0.141512
C38   C     C_3   0.682039 0.026281 0.489277 -0.139305
H11   H     H_    0.166884 0.953726 0.520114 0.163965
H12   H     H_    0.833093 0.047084 0.480553 0.163787
H13   H     H_    0.477133 0.842601 0.263577 0.160540
H14   H     H_    0.471230 0.156249 0.736411 0.164782
C39   C     C_R   0.540417 0.189860 0.944741 0.104922
C40   C     C_R   0.518747 0.808077 0.054337 0.101275
C41   C     C_R   0.513908 0.209291 0.859349 -0.084742
C42   C     C_R   0.497682 0.789111 0.140019 -0.088646
C43   C     C_R   0.485976 0.139401 0.802111 -0.187964
C44   C     C_R   0.485005 0.859567 0.197756 -0.182760
C45   C     C_R   0.481682 0.048135 0.828255 -0.145912
C46   C     C_R   0.491750 0.951017 0.171930 -0.142013
C47   C     C_R   0.496803 0.023769 0.914167 0.052737
C48   C     C_R   0.503492 0.975191 0.085931 0.052074
C49   C     C_R   0.519674 0.095825 0.975415 -0.008297
C50   C     C_R   0.506227 0.902738 0.024352 -0.009616
C51   C     C_R   0.492786 0.928389 0.937582 -0.160477
C52   C     C_R   0.516398 0.070498 0.062569 -0.163468
H15   H     H_    0.523630 0.279713 0.835851 0.162605
H16   H     H_    0.502124 0.718427 0.163269 0.161795
H17   H     H_    0.463742 0.997182 0.779271 0.109970
H18   H     H_    0.486691 0.002388 0.221157 0.105178
C53   C     C_3   0.623975 0.269857 0.993459 -0.438087
C54   C     C_3   0.477051 0.333629 0.030265 -0.666261
H19   H     H_    0.414325 0.378259 0.980675 0.222441
H20   H     H_    0.367602 0.289930 0.057977 0.239898
H21   H     H_    0.542107 0.378859 0.078645 0.248477
H22   H     H_    0.728608 0.245774 0.039899 0.198428
H23   H     H_    0.701826 0.315191 0.950053 0.217136
C55   C     C_3   0.597242 0.727248 0.004984 -0.428208
C56   C     C_3   0.447066 0.664643 0.968762 -0.670881
H24   H     H_    0.383332 0.621795 0.019226 0.225032
H25   H     H_    0.339691 0.708682 0.939630 0.236511
H26   H     H_    0.509442 0.617187 0.921501 0.243679
H27   H     H_    0.701201 0.750758 0.958240 0.201270
H28   H     H_    0.676014 0.681093 0.047697 0.214377
I1    I     I_    0.710212 0.312331 0.546947 -0.393036
I2    I     I_    0.292900 0.685284 0.451027 -0.403599
C57   C     C_3   0.015078 0.831644 0.122905 -0.356965
C58   C     C_3   0.007983 0.866016 0.213556 -0.700096
H29   H     H_    0.865548 0.853086 0.241069 0.244073
H30   H     H_    0.117546 0.830860 0.252375 0.244312
H31   H     H_    0.034755 0.941994 0.215078 0.218396
H32   H     H_    0.145571 0.859412 0.093335 0.197406
H33   H     H_    0.893713 0.862664 0.088263 0.186450
C59   C     C_3   0.031605 0.163378 0.880862 -0.353328
C60   C     C_3   0.010385 0.124858 0.792022 -0.705018
H34   H     H_    0.866785 0.140142 0.766666 0.233240
H35   H     H_    0.118794 0.155246 0.749793 0.250333
H36   H     H_    0.029303 0.048313 0.793116 0.220877
H37   H     H_    0.164001 0.135592 0.908476 0.199366
H38   H     H_    0.913895 0.135064 0.919481 0.183499
I3    I     I_    0.695872 0.517758 0.228142 -0.430133
I4    I     I_    0.716616 0.467619 0.758090 -0.430771
I5    I     I_    0.782989 0.813841 0.442764 -0.455699
I6    I     I_    0.216955 0.187329 0.556509 -0.455852

loop_
_geom_bond_atom_site_label_1
_geom_bond_atom_site_label_2
_ccdc_geom_bond_type
C31   C33   S    
C25   C29   A    
C3    C52   S    
C40   C55   S    
O13   V3    S    
C57   C58   S    
C10   C16   S    
O4    C2    A    
V1    O19   S    
C1    C36   S    
C58   H30   S    
C17   C19   A    
C5    C29   S    
C24   I4    S    
O9    V1    S    
C2    C35   S    
C33   I5    S    
C11   H1    S    
C46   C48   A    
O3    C1    A    
C40   C42   A    
O12   V4    S    
C45   H17   S    
C54   H21   S    
C48   C50   A    
C35   C37   S    
C11   C16   S    
O7    C3    A    
C59   C60   S    
C9    C11   S    
O5    C7    A    
O7    V1    S    
O6    C8    A    
C53   C54   S    
O8    V2    S    
C19   C21   A    
C54   H20   S    
C20   C22   A    
C55   H28   S    
C57   H32   S    
O14   V4    S    
C41   H15   S    
C19   C57   S    
C60   H35   S    
C2    O12   A    
C15   H3    S    
C12   C15   S    
C16   H4    S    
C58   H29   S    
C43   C45   A    
C22   C24   A    
O11   V3    S    
C24   C26   A    
C23   C25   A    
O17   V3    S    
C31   H9    S    
C9    C14   S    
C47   C49   A    
C10   C13   S    
C12   C14   S    
C42   C44   A    
O8    C4    A    
C37   H11   S    
C47   C51   A    
C53   H22   S    
C27   C30   A    
C46   H18   S    
C1    O11   A    
C8    C13   S    
C28   C29   A    
O15   V3    S    
H6    C21   S    
C39   C53   S    
C26   C30   A    
C21   C23   A    
C32   C34   S    
C42   H16   S    
C11   C13   S    
C4    C51   S    
C17   C27   A    
C18   H8    S    
C34   C37   S    
C31   C36   S    
C7    C14   S    
C6    C30   S    
C54   H19   S    
O10   V2    S    
O1    V3    S    
C39   C41   A    
C55   H27   S    
C56   H25   S    
C59   H38   S    
C32   C35   S    
O3    V1    S    
C18   C20   A    
C39   C49   A    
C23   I3    S    
C38   H12   S    
C45   C47   A    
C31   C37   S    
O18   V4    S    
C44   C46   A    
C25   C27   A    
C48   C52   A    
C10   I2    S    
O16   C6    A    
C9    I1    S    
C12   H2    S    
C32   H10   S    
C41   C43   A    
V2    O20   S    
C60   H36   S    
C40   C50   A    
O16   V4    S    
C20   C59   S    
C34   I6    S    
C14   C16   S    
H14   C43   S    
C17   H7    S    
C60   H34   S    
H13   C44   S    
C18   C28   A    
O5    V1    S    
O17   C7    A    
C33   C38   S    
O6    V2    S    
O10   C6    A    
O18   C8    A    
H5    C22   S    
C57   H33   S    
O2    V4    S    
C9    C15   S    
O15   C5    A    
V3    O19   S    
V4    O20   S    
C34   C36   S    
C33   C35   S    
O9    C5    A    
O13   V1    S    
C10   C12   S    
C26   C28   A    
C56   H26   S    
O14   V2    S    
C59   H37   S    
C32   C38   S    
C55   C56   S    
O2    C4    A    
O4    V2    S    
O1    C3    A    
C50   C51   A    
C13   C15   S    
C49   C52   A    
C56   H24   S    
C36   C38   S    
C58   H31   S    
C53   H23   S    
