data_mof_unit_56593.cif
_audit_creation_date              2012-12-10T17:23:42-0500
_audit_creation_method            fapswitch 2.2
_symmetry_space_group_name_H-M    P1
_symmetry_Int_Tables_number       1
_space_group_crystal_system       triclinic
_cell_length_a                    9.630779
_cell_length_b                    10.760413
_cell_length_c                    17.362462
_cell_angle_alpha                 92.730676
_cell_angle_beta                  86.023721
_cell_angle_gamma                 90.401943
_cell_volume                      1792.91029871

loop_
_atom_site_label
_atom_site_type_symbol
_atom_type_description
_atom_site_fract_x
_atom_site_fract_y
_atom_site_fract_z
_atom_type_partial_charge
C1    C     C_R   0.500030 0.737272 0.502655 0.803961
C2    C     C_R   0.359147 0.553164 0.776458 -0.202331
C3    C     C_R   0.420247 0.449259 0.146143 -0.147732
C4    C     C_R   0.411703 0.456404 0.226257 -0.212819
C5    C     C_R   0.654513 0.518594 0.224724 -0.198354
C6    C     C_R   0.662580 0.512966 0.144320 -0.175465
C7    C     C_R   0.544975 0.480500 0.104562 0.193136
C8    C     C_2   0.444978 0.493290 0.978670 -0.230555
C9    C     C_2   0.556059 0.478520 0.019793 -0.232829
C10   C     C_R   0.528341 0.491949 0.266066 -0.024311
C11   C     C_R   0.343336 0.878653 0.627340 -0.181112
C12   C     C_R   0.481682 0.499875 0.649375 0.772419
C13   C     C_R   0.266068 0.947430 0.685163 -0.144143
C14   C     C_R   0.264728 0.076657 0.684785 -0.135361
C15   C     C_R   0.340676 0.137911 0.626592 -0.177253
C16   C     C_R   0.418014 0.070029 0.566597 0.089954
C17   C     C_R   0.419135 0.938655 0.566925 0.098864
C18   C     C_R   0.500139 0.871450 0.508115 -0.092120
C19   C     C_R   0.583659 0.932744 0.452979 -0.216188
C20   C     C_R   0.582880 0.060853 0.452751 -0.214980
C21   C     C_R   0.498443 0.129460 0.507599 -0.090050
C22   C     C_R   0.867822 0.333806 0.397653 -0.137130
C23   C     C_R   0.499360 0.262987 0.502370 0.765184
C24   C     C_R   0.945474 0.251954 0.347986 -0.213695
C25   C     C_R   0.088564 0.251528 0.348297 -0.214447
C26   C     C_R   0.154951 0.333045 0.398221 -0.141513
C27   C     C_R   0.080156 0.417824 0.450082 0.208050
C28   C     C_R   0.930827 0.417966 0.449982 0.186435
C29   C     C_R   0.922984 0.579690 0.547321 0.057769
C30   C     C_R   0.070280 0.578431 0.547064 -0.097060
C31   C     C_R   0.518286 0.498314 0.350379 0.769553
C32   C     C_R   0.471282 0.496327 0.733050 -0.010476
C33   C     C_R   0.573301 0.434473 0.769923 -0.222157
C34   C     C_R   0.564865 0.431069 0.849835 -0.156492
C35   C     C_R   0.455370 0.491904 0.893924 0.191005
C36   C     C_R   0.351472 0.551102 0.856664 -0.175835
Cu1   Cu    Cu3+1 0.359340 0.500010 0.500010 0.926892
Cu2   Cu    Cu3+1 0.640660 0.499990 0.499990 0.935141
H1    H     H_    0.658372 0.387105 0.736831 0.143029
H2    H     H_    0.760141 0.535584 0.113133 0.121703
H3    H     H_    0.647392 0.880864 0.408794 0.148737
H4    H     H_    0.344957 0.778771 0.631524 0.134979
H5    H     H_    0.208421 0.900284 0.731002 0.131467
H6    H     H_    0.206027 0.129811 0.730356 0.135379
H7    H     H_    0.339864 0.238410 0.630152 0.155008
H8    H     H_    0.646163 0.106715 0.408391 0.139163
H9    H     H_    0.759009 0.327282 0.392144 0.193853
H10   H     H_    0.893934 0.188632 0.308736 0.144766
H11   H     H_    0.314121 0.432554 0.256913 0.153540
H12   H     H_    0.148969 0.187920 0.309266 0.148927
H13   H     H_    0.265050 0.326006 0.393273 0.195745
H14   H     H_    0.122891 0.642582 0.585359 0.139558
H15   H     H_    0.746252 0.545138 0.254410 0.155312
H16   H     H_    0.659686 0.471802 0.991149 0.140026
H17   H     H_    0.265358 0.597041 0.889700 0.120757
H18   H     H_    0.329389 0.417897 0.117375 0.123242
H19   H     H_    0.279133 0.600827 0.748470 0.135726
H20   H     H_    0.343810 0.513854 0.007773 0.142036
H21   H     H_    0.643130 0.379316 0.876364 0.123710
N1    N     N_R   0.852190 0.498790 0.499250 -0.217569
N2    N     N_R   0.148060 0.498710 0.499220 -0.204135
O1    O     O_R   0.381190 0.680360 0.500010 -0.579282
O2    O     O_R   0.618760 0.680340 0.500000 -0.571147
O3    O     O_R   0.367440 0.500030 0.613600 -0.597765
O4    O     O_R   0.605010 0.500010 0.613590 -0.573913
O5    O     O_R   0.381240 0.319660 0.500000 -0.599626
O6    O     O_R   0.618810 0.319640 0.499990 -0.595121
O7    O     O_R   0.394990 0.499990 0.386410 -0.596260
O8    O     O_R   0.632560 0.499970 0.386400 -0.605831
C37   C     C_R   0.850907 0.673121 0.600236 0.158692
C38   C     C_R   0.815948 0.646191 0.677495 -0.130986
C39   C     C_R   0.753841 0.736924 0.728814 -0.154376
C40   C     C_R   0.731574 0.856484 0.704115 -0.131032
C41   C     C_R   0.773829 0.886067 0.628527 -0.138893
C42   C     C_R   0.835353 0.795268 0.577032 -0.119623
H22   H     H_    0.835414 0.554607 0.697602 0.122233
H23   H     H_    0.723651 0.714669 0.787798 0.142117
H24   H     H_    0.683319 0.926632 0.743802 0.134171
H25   H     H_    0.758791 0.979268 0.609798 0.147523
H26   H     H_    0.868721 0.819451 0.518755 0.130207

loop_
_geom_bond_atom_site_label_1
_geom_bond_atom_site_label_2
_ccdc_geom_bond_type
C16   C21   A    
C40   C41   A    
C35   C36   A    
C1    O1    A    
Cu1   O1    S    
C2    H19   S    
C1    C18   S    
C33   H1    S    
C23   O5    A    
C5    H15   S    
Cu1   Cu2   S    
C18   C19   A    
C3    C7    A    
C5    C6    A    
C12   O3    A    
C15   C16   A    
Cu1   O7    S    
C11   H4    S    
C2    C32   A    
C34   C35   A    
C23   O6    A    
C25   H12   S    
C27   N2    A    
C39   H23   S    
C8    H20   S    
C10   C31   S    
C19   C20   A    
C16   C17   A    
C40   H24   S    
Cu2   O4    S    
C37   C38   A    
C42   H26   S    
C22   H9    S    
Cu2   O8    S    
C22   C28   A    
C13   C14   A    
C12   C32   S    
C1    O2    A    
C5    C10   A    
C33   C34   A    
C28   N1    A    
C31   O7    A    
C41   C42   A    
C24   H10   S    
C24   C25   A    
C8    C9    D    
C25   C26   A    
C29   C37   S    
C8    C35   S    
C29   C30   A    
C3    H18   S    
C29   N1    A    
Cu1   O5    S    
C17   C18   A    
C26   C27   A    
C20   C21   A    
Cu2   N1    S    
C41   H25   S    
C21   C23   S    
C34   H21   S    
C6    H2    S    
C15   H7    S    
C4    C10   A    
C3    C4    A    
C13   H5    S    
Cu1   O3    S    
C14   H6    S    
Cu2   O2    S    
C2    C36   A    
C7    C9    S    
C30   H14   S    
C11   C17   A    
C39   C40   A    
Cu1   N2    S    
C6    C7    A    
C12   O4    A    
C4    H11   S    
C32   C33   A    
C38   C39   A    
C36   H17   S    
C26   H13   S    
C11   C13   A    
C38   H22   S    
C22   C24   A    
C31   O8    A    
Cu2   O6    S    
C30   N2    A    
C37   C42   A    
C14   C15   A    
C9    H16   S    
C20   H8    S    
C19   H3    S    
C27   C28   A    
