data_mof_unit_66110.cif
_audit_creation_date              2012-12-10T18:30:38-0500
_audit_creation_method            fapswitch 2.2
_symmetry_space_group_name_H-M    P1
_symmetry_Int_Tables_number       1
_space_group_crystal_system       triclinic
_cell_length_a                    18.241131
_cell_length_b                    18.283775
_cell_length_c                    42.975339
_cell_angle_alpha                 89.919286
_cell_angle_beta                  89.928599
_cell_angle_gamma                 89.992049
_cell_volume                      14332.9692608

loop_
_atom_site_label
_atom_site_type_symbol
_atom_type_description
_atom_site_fract_x
_atom_site_fract_y
_atom_site_fract_z
_atom_type_partial_charge
C1    C     C_R   0.999976 0.500045 0.665830 0.907683
C2    C     C_R   0.499967 0.000016 0.334198 0.917937
C3    C     C_R   0.999979 0.499961 0.334176 0.922196
C4    C     C_R   0.500028 0.999900 0.665796 0.923580
C5    C     C_R   0.500033 0.000038 0.165822 0.927524
C6    C     C_R   0.999954 0.499986 0.834196 0.907469
C7    C     C_R   0.499922 0.999969 0.834183 0.905225
C8    C     C_R   0.000054 0.499960 0.165796 0.912648
C9    C     C_R   0.999840 0.499907 0.868551 -0.339205
C10   C     C_R   0.500163 0.000074 0.131447 -0.328393
C11   C     C_R   0.000205 0.499890 0.131420 -0.326222
C12   C     C_R   0.499610 0.999978 0.868562 -0.337028
C13   C     C_R   0.499940 0.000058 0.368568 -0.323976
C14   C     C_R   0.999898 0.500120 0.631481 -0.314194
C15   C     C_R   0.500020 0.999513 0.631421 -0.339536
C16   C     C_R   0.999845 0.499920 0.368536 -0.338086
C17   C     C_R   0.500202 0.999433 0.531481 0.374410
C18   C     C_R   0.999621 0.500024 0.468498 0.396815
C19   C     C_R   0.500140 0.999840 0.468444 0.358915
C20   C     C_R   0.999562 0.500150 0.531543 0.395428
C21   C     C_R   0.999839 0.499857 0.031504 0.380925
C22   C     C_R   0.499740 0.999811 0.968512 0.373964
C23   C     C_R   0.999538 0.499695 0.968473 0.396958
C24   C     C_R   0.500154 0.999876 0.031554 0.358194
C25   C     C_R   0.141212 0.641232 0.749999 0.992447
C26   C     C_R   0.641157 0.858753 0.250053 0.982311
C27   C     C_R   0.858847 0.358674 0.750202 0.917134
C28   C     C_R   0.358818 0.141271 0.250051 0.991881
C29   C     C_R   0.859283 0.641793 0.249594 0.940478
C30   C     C_R   0.358260 0.859182 0.750331 1.008879
C31   C     C_R   0.140736 0.358182 0.249595 0.931950
C32   C     C_R   0.641618 0.140895 0.750066 0.922729
C33   C     C_R   0.641226 0.141222 0.249996 0.997900
C34   C     C_R   0.141577 0.359083 0.749928 0.921515
C35   C     C_R   0.358806 0.858717 0.250182 0.920267
C36   C     C_R   0.858298 0.640859 0.749824 0.895816
C37   C     C_R   0.358676 0.141136 0.749918 0.998481
C38   C     C_R   0.858285 0.359161 0.250323 1.004591
C39   C     C_R   0.641614 0.859144 0.750216 0.965123
C40   C     C_R   0.141590 0.640925 0.250054 0.912778
C41   C     C_3   0.174878 0.234687 0.730016 0.358126
C42   C     C_3   0.230374 0.828363 0.267140 0.359013
C43   C     C_3   0.834939 0.774882 0.753988 0.353229
C44   C     C_3   0.760520 0.180082 0.273996 0.340004
C45   C     C_3   0.823375 0.235916 0.271777 0.349615
C46   C     C_3   0.775043 0.834157 0.757552 0.317861
C47   C     C_3   0.174462 0.765652 0.269635 0.353739
C48   C     C_3   0.230589 0.171824 0.732592 0.349081
C49   C     C_3   0.679131 0.738741 0.226587 0.342295
C50   C     C_3   0.730720 0.328009 0.767447 0.368026
C51   C     C_3   0.320903 0.261324 0.226523 0.343088
C52   C     C_3   0.260316 0.680274 0.774093 0.331246
C53   C     C_3   0.323172 0.736099 0.771885 0.368611
C54   C     C_3   0.264806 0.323946 0.228669 0.354966
C55   C     C_3   0.674846 0.265273 0.769917 0.357305
C56   C     C_3   0.735224 0.676108 0.228735 0.356188
C57   C     C_3   0.276481 0.336311 0.736404 0.068172
C58   C     C_3   0.332129 0.729500 0.269617 0.145594
C59   C     C_3   0.752656 0.692916 0.717485 0.047740
C60   C     C_3   0.660343 0.277033 0.258765 0.069866
C61   C     C_3   0.724534 0.336135 0.264194 0.077334
C62   C     C_3   0.700697 0.763536 0.715891 0.156785
C63   C     C_3   0.276023 0.663642 0.264161 0.141813
C64   C     C_3   0.332786 0.270093 0.731265 0.143238
C65   C     C_3   0.776799 0.839219 0.240410 0.138018
C66   C     C_3   0.832498 0.229113 0.769344 0.151845
C67   C     C_3   0.223209 0.160805 0.240491 0.134519
C68   C     C_3   0.160234 0.777118 0.758629 0.076249
C69   C     C_3   0.224384 0.836265 0.764064 0.074564
C70   C     C_3   0.164304 0.224517 0.234830 0.069338
C71   C     C_3   0.776305 0.163345 0.763854 0.137411
C72   C     C_3   0.835716 0.775517 0.234750 0.068820
C73   C     C_3   0.211911 0.272241 0.783503 0.910503
C74   C     C_3   0.278620 0.781382 0.216600 0.916243
C75   C     C_3   0.746593 0.686726 0.778013 0.933690
C76   C     C_3   0.736004 0.204195 0.217741 0.892634
C77   C     C_3   0.790287 0.269825 0.217212 0.878715
C78   C     C_3   0.683401 0.743010 0.776332 0.902829
C79   C     C_3   0.213400 0.726692 0.216521 0.907907
C80   C     C_3   0.277237 0.217582 0.783598 0.892794
C81   C     C_3   0.705344 0.765351 0.282459 0.881430
C82   C     C_3   0.778160 0.281839 0.716631 0.909522
C83   C     C_3   0.294584 0.234565 0.282437 0.886106
C84   C     C_3   0.236165 0.704024 0.717780 0.882413
C85   C     C_3   0.290447 0.769657 0.717238 0.889609
C86   C     C_3   0.228972 0.288902 0.282774 0.915047
C87   C     C_3   0.712928 0.227153 0.716580 0.916079
C88   C     C_3   0.770958 0.711009 0.282786 0.919394
C89   C     C_3   0.200829 0.302902 0.749640 -0.458237
C90   C     C_3   0.302295 0.799848 0.251097 -0.482698
C91   C     C_3   0.799179 0.697220 0.749189 -0.455253
C92   C     C_3   0.697556 0.200220 0.250437 -0.408574
C93   C     C_3   0.799351 0.302508 0.250942 -0.392722
C94   C     C_3   0.698404 0.800595 0.749561 -0.418474
C95   C     C_3   0.200969 0.696955 0.250418 -0.483532
C96   C     C_3   0.301957 0.199845 0.749183 -0.428177
C97   C     C_3   0.700184 0.802463 0.249571 -0.428176
C98   C     C_3   0.802374 0.299763 0.751112 -0.487930
C99   C     C_3   0.299803 0.197547 0.249570 -0.433700
C100  C     C_3   0.197513 0.700252 0.750437 -0.403916
C101  C     C_3   0.299296 0.802551 0.750943 -0.411182
C102  C     C_3   0.197249 0.299170 0.248848 -0.447230
C103  C     C_3   0.701029 0.196888 0.750424 -0.497755
C104  C     C_3   0.802752 0.700821 0.248845 -0.452002
C105  C     C_R   0.062367 0.477299 0.885100 0.567720
C106  C     C_R   0.525901 0.938755 0.115011 0.565608
C107  C     C_R   0.937192 0.522408 0.885087 0.559870
C108  C     C_R   0.474520 0.061372 0.114933 0.564887
C109  C     C_R   0.937616 0.522283 0.114901 0.557619
C110  C     C_R   0.523364 0.938037 0.885128 0.558781
C111  C     C_R   0.062989 0.477525 0.114905 0.569380
C112  C     C_R   0.475440 0.061961 0.885026 0.572438
C113  C     C_R   0.561560 0.025313 0.384987 0.565471
C114  C     C_R   0.023177 0.437964 0.614945 0.559856
C115  C     C_R   0.438357 0.974788 0.385095 0.561071
C116  C     C_R   0.976493 0.562303 0.614945 0.548574
C117  C     C_R   0.437692 0.975905 0.614987 0.569528
C118  C     C_R   0.022480 0.437522 0.385118 0.566366
C119  C     C_R   0.562322 0.022604 0.614825 0.552376
C120  C     C_R   0.977078 0.562321 0.385039 0.565002
C121  C     C_R   0.062530 0.477154 0.917697 -0.047171
C122  C     C_R   0.526155 0.938297 0.082326 -0.014456
C123  C     C_R   0.936810 0.522377 0.917685 -0.046544
C124  C     C_R   0.474317 0.061732 0.082244 -0.014430
C125  C     C_R   0.937351 0.522355 0.082333 -0.034042
C126  C     C_R   0.523398 0.937780 0.917711 -0.039415
C127  C     C_R   0.063547 0.477691 0.082193 -0.023149
C128  C     C_R   0.474999 0.062322 0.917739 -0.027269
C129  C     C_R   0.562027 0.025474 0.417670 -0.015649
C130  C     C_R   0.023270 0.437759 0.582349 -0.042044
C131  C     C_R   0.438001 0.974511 0.417783 -0.012581
C132  C     C_R   0.976178 0.562546 0.582342 -0.033267
C133  C     C_R   0.437339 0.975384 0.582277 -0.025891
C134  C     C_R   0.022622 0.437323 0.417721 -0.045725
C135  C     C_R   0.562590 0.022552 0.582246 -0.039148
C136  C     C_R   0.976760 0.562560 0.417637 -0.045742
C137  C     C_R   0.999613 0.499722 0.934178 -0.071571
C138  C     C_R   0.500225 0.999977 0.065877 -0.096573
C139  C     C_R   0.000284 0.500068 0.065814 -0.084680
C140  C     C_R   0.499260 0.999919 0.934184 -0.084669
C141  C     C_R   0.500051 0.999950 0.434129 -0.097057
C142  C     C_R   0.999661 0.500157 0.565850 -0.071196
C143  C     C_R   0.500099 0.998996 0.565805 -0.085024
C144  C     C_R   0.999663 0.499962 0.434181 -0.071795
H1    H     H_    0.121699 0.214345 0.739387 0.150777
H2    H     H_    0.206056 0.872605 0.252618 0.137575
H3    H     H_    0.868084 0.774347 0.775720 0.133649
H4    H     H_    0.783524 0.125495 0.267954 0.157273
H5    H     H_    0.871407 0.208513 0.260813 0.129459
H6    H     H_    0.774892 0.853134 0.782149 0.125318
H7    H     H_    0.121660 0.785881 0.259892 0.149512
H8    H     H_    0.205682 0.127289 0.746792 0.130099
H9    H     H_    0.624676 0.716032 0.233248 0.154389
H10   H     H_    0.706173 0.372484 0.753125 0.148160
H11   H     H_    0.375345 0.284017 0.233128 0.156794
H12   H     H_    0.283369 0.625649 0.768142 0.158869
H13   H     H_    0.371269 0.708620 0.761011 0.149636
H14   H     H_    0.291822 0.371412 0.240120 0.137522
H15   H     H_    0.621903 0.285682 0.760384 0.159300
H16   H     H_    0.708185 0.628613 0.240239 0.140606
N1    N     N_R   0.969629 0.556220 0.984496 -0.138324
N2    N     N_R   0.523471 0.059345 0.015429 -0.127001
N3    N     N_R   0.029519 0.443215 0.984532 -0.135669
N4    N     N_R   0.476697 0.940343 0.015598 -0.128047
N5    N     N_R   0.029647 0.443284 0.015479 -0.129814
N6    N     N_R   0.523271 0.059307 0.984478 -0.128421
N7    N     N_R   0.969790 0.556307 0.015445 -0.137693
N8    N     N_R   0.476494 0.940313 0.984644 -0.134915
N9    N     N_R   0.440726 0.023612 0.484536 -0.127390
N10   N     N_R   0.022623 0.559742 0.515434 -0.136648
N11   N     N_R   0.559615 0.975925 0.484429 -0.129944
N12   N     N_R   0.976519 0.440501 0.515561 -0.135664
N13   N     N_R   0.559643 0.975723 0.515382 -0.138866
N14   N     N_R   0.022655 0.559676 0.484484 -0.137467
N15   N     N_R   0.440764 0.023418 0.515486 -0.128090
N16   N     N_R   0.976537 0.440444 0.484612 -0.136093
O1    O     O_3   0.000000 0.500000 0.750000 -0.585968
O2    O     O_3   0.500000 0.000000 0.250000 -0.594002
O3    O     O_3   0.000000 0.500000 0.250000 -0.585086
O4    O     O_3   0.500000 0.000000 0.750000 -0.597079
O5    O     O_R   0.000020 0.438710 0.680680 -0.562135
O6    O     O_R   0.438710 0.999980 0.319320 -0.570651
O7    O     O_R   0.999980 0.561290 0.680680 -0.582511
O8    O     O_R   0.561290 0.000020 0.319320 -0.567185
O9    O     O_R   0.999980 0.438710 0.319320 -0.560250
O10   O     O_R   0.561290 0.999980 0.680680 -0.573579
O11   O     O_R   0.000020 0.561290 0.319320 -0.567196
O12   O     O_R   0.438710 0.000020 0.680680 -0.564292
O13   O     O_R   0.500020 0.938710 0.180680 -0.562070
O14   O     O_R   0.938710 0.499980 0.819320 -0.568306
O15   O     O_R   0.499980 0.061290 0.180680 -0.567402
O16   O     O_R   0.061290 0.500020 0.819320 -0.562646
O17   O     O_R   0.499980 0.938710 0.819320 -0.564264
O18   O     O_R   0.061290 0.499980 0.180680 -0.563359
O19   O     O_R   0.500020 0.061290 0.819320 -0.570538
O20   O     O_R   0.938710 0.500020 0.180680 -0.568377
O21   O     O_R   0.086240 0.647480 0.731820 -0.568525
O22   O     O_R   0.647480 0.913760 0.268180 -0.579132
O23   O     O_R   0.913760 0.352520 0.731820 -0.605864
O24   O     O_R   0.352520 0.086240 0.268180 -0.574630
O25   O     O_R   0.913760 0.647480 0.268180 -0.608250
O26   O     O_R   0.352520 0.913760 0.731820 -0.592539
O27   O     O_R   0.086240 0.352520 0.268180 -0.609885
O28   O     O_R   0.647480 0.086240 0.731820 -0.601921
O29   O     O_R   0.586240 0.147480 0.231820 -0.579163
O30   O     O_R   0.147480 0.413760 0.768180 -0.604997
O31   O     O_R   0.413760 0.852520 0.231820 -0.608476
O32   O     O_R   0.852520 0.586240 0.768180 -0.554422
O33   O     O_R   0.413760 0.147480 0.768180 -0.584720
O34   O     O_R   0.852520 0.413760 0.231820 -0.595433
O35   O     O_R   0.586240 0.852520 0.768180 -0.568871
O36   O     O_R   0.147480 0.586240 0.231820 -0.607425
O37   O     O_R   0.852520 0.413810 0.768170 -0.581807
O38   O     O_R   0.413810 0.147480 0.231830 -0.608321
O39   O     O_R   0.147480 0.586190 0.768170 -0.628168
O40   O     O_R   0.586190 0.852520 0.231830 -0.616141
O41   O     O_R   0.147480 0.413810 0.231830 -0.591949
O42   O     O_R   0.586190 0.147480 0.768170 -0.601952
O43   O     O_R   0.852520 0.586190 0.231830 -0.582904
O44   O     O_R   0.413810 0.852520 0.768170 -0.584791
O45   O     O_R   0.352520 0.913810 0.268170 -0.581358
O46   O     O_R   0.913810 0.647480 0.731830 -0.611835
O47   O     O_R   0.647480 0.086190 0.268170 -0.610016
O48   O     O_R   0.086190 0.352520 0.731830 -0.601788
O49   O     O_R   0.647480 0.913810 0.731830 -0.590060
O50   O     O_R   0.086190 0.647480 0.268170 -0.610513
O51   O     O_R   0.352520 0.086190 0.731830 -0.588638
O52   O     O_R   0.913810 0.352520 0.268170 -0.603604
Zn1   Zn    Zn3+2 0.087550 0.500010 0.775970 1.072734
Zn2   Zn    Zn3+2 0.500010 0.912450 0.224030 1.083232
Zn3   Zn    Zn3+2 0.912450 0.499990 0.775970 1.108085
Zn4   Zn    Zn3+2 0.499990 0.087550 0.224030 1.107028
Zn5   Zn    Zn3+2 0.912450 0.500010 0.224030 1.097082
Zn6   Zn    Zn3+2 0.499990 0.912450 0.775970 1.121526
Zn7   Zn    Zn3+2 0.087550 0.499990 0.224030 1.077236
Zn8   Zn    Zn3+2 0.500010 0.087550 0.775970 1.090296
Zn9   Zn    Zn3+2 0.587550 0.000010 0.275970 1.098535
Zn10  Zn    Zn3+2 0.000010 0.412450 0.724030 1.072704
Zn11  Zn    Zn3+2 0.412450 0.999990 0.275970 1.102491
Zn12  Zn    Zn3+2 0.999990 0.587550 0.724030 1.071558
Zn13  Zn    Zn3+2 0.412450 0.000010 0.724030 1.110543
Zn14  Zn    Zn3+2 0.999990 0.412450 0.275970 1.089185
Zn15  Zn    Zn3+2 0.587550 0.999990 0.724030 1.076308
Zn16  Zn    Zn3+2 0.000010 0.587550 0.275970 1.074091
F1    F     F_    0.160666 0.251054 0.699151 -0.571451
F2    F     F_    0.241983 0.859903 0.296075 -0.553630
F3    F     F_    0.883965 0.793718 0.730725 -0.596016
F4    F     F_    0.736111 0.173050 0.304357 -0.571833
F5    F     F_    0.846899 0.256099 0.301247 -0.548449
F6    F     F_    0.791722 0.895882 0.740120 -0.583226
F7    F     F_    0.159149 0.749916 0.300481 -0.586737
F8    F     F_    0.243303 0.140993 0.703582 -0.546560
F9    F     F_    0.670812 0.761907 0.196122 -0.569349
F10   F     F_    0.742810 0.359073 0.796439 -0.548371
F11   F     F_    0.329278 0.238236 0.196070 -0.570570
F12   F     F_    0.235701 0.673436 0.804431 -0.585712
F13   F     F_    0.346501 0.756483 0.801358 -0.537729
F14   F     F_    0.245894 0.348709 0.199210 -0.551477
F15   F     F_    0.660011 0.249027 0.800758 -0.583047
F16   F     F_    0.754180 0.651429 0.199277 -0.552526
N17   N     N_3   0.265020 0.376838 0.706932 -0.403088
H17   H     H_    0.228370 0.351321 0.692023 0.266775
H18   H     H_    0.241836 0.428101 0.711394 0.200527
N18   N     N_3   0.338940 0.745408 0.303273 -0.354894
H19   H     H_    0.288814 0.751385 0.314539 0.302223
H20   H     H_    0.368930 0.793430 0.306768 0.223458
N19   N     N_3   0.800073 0.689806 0.689514 -0.393309
H21   H     H_    0.845531 0.723860 0.690832 0.289645
H22   H     H_    0.820603 0.636922 0.686266 0.223644
N20   N     N_3   0.611799 0.269226 0.286182 -0.408385
H23   H     H_    0.635852 0.244334 0.305343 0.265544
H24   H     H_    0.591552 0.320255 0.293002 0.199104
N21   N     N_3   0.735133 0.353039 0.297564 -0.354962
H25   H     H_    0.733815 0.306967 0.311751 0.290089
H26   H     H_    0.693772 0.387806 0.305645 0.196778
N22   N     N_3   0.728392 0.817653 0.693070 -0.313851
H27   H     H_    0.784465 0.826920 0.694999 0.297148
H28   H     H_    0.719706 0.798747 0.670399 0.205148
N23   N     N_3   0.263321 0.623291 0.293599 -0.359478
H29   H     H_    0.226087 0.649041 0.308229 0.257244
H30   H     H_    0.240284 0.572033 0.289018 0.187155
N24   N     N_3   0.341383 0.251975 0.697898 -0.349849
H31   H     H_    0.291698 0.250129 0.686081 0.296312
H32   H     H_    0.372359 0.292403 0.686717 0.214354
N25   N     N_3   0.768131 0.886914 0.212795 -0.403295
H33   H     H_    0.741067 0.862595 0.194258 0.267811
H34   H     H_    0.819480 0.904572 0.204931 0.230508
N26   N     N_3   0.839836 0.244483 0.803024 -0.362243
H35   H     H_    0.789886 0.250233 0.814451 0.299293
H36   H     H_    0.869839 0.292477 0.806565 0.211965
N27   N     N_3   0.231931 0.113184 0.212904 -0.408883
H37   H     H_    0.259027 0.137555 0.194329 0.268378
H38   H     H_    0.180596 0.095546 0.205089 0.227282
N28   N     N_3   0.111508 0.769486 0.785996 -0.422012
H39   H     H_    0.135446 0.744747 0.805218 0.257470
H40   H     H_    0.091194 0.820557 0.792725 0.188024
N29   N     N_3   0.234757 0.853394 0.797427 -0.359058
H41   H     H_    0.233359 0.807416 0.811667 0.289200
H42   H     H_    0.193330 0.888199 0.805415 0.192508
N30   N     N_3   0.149027 0.232950 0.201179 -0.389777
H43   H     H_    0.195992 0.237112 0.187567 0.301293
H44   H     H_    0.117435 0.279758 0.197177 0.227669
N31   N     N_3   0.764066 0.122513 0.793208 -0.367789
H45   H     H_    0.727022 0.147996 0.808007 0.255906
H46   H     H_    0.741001 0.071311 0.788538 0.175155
N32   N     N_3   0.851053 0.767175 0.201095 -0.392634
H47   H     H_    0.804112 0.763054 0.187520 0.300872
H48   H     H_    0.882648 0.720376 0.197102 0.225411
F17   F     F_    0.223273 0.327192 0.805178 -0.555289
F18   F     F_    0.336010 0.753350 0.199237 -0.601859
F19   F     F_    0.718159 0.616464 0.779979 -0.562374
F20   F     F_    0.685998 0.210030 0.193574 -0.566359
F21   F     F_    0.766821 0.321938 0.196089 -0.602557
F22   F     F_    0.617154 0.707302 0.772459 -0.599992
F23   F     F_    0.225917 0.671111 0.195236 -0.573175
F24   F     F_    0.334120 0.245340 0.801269 -0.585175
F25   F     F_    0.712410 0.816155 0.306212 -0.565976
F26   F     F_    0.835281 0.254085 0.699030 -0.600032
F27   F     F_    0.287474 0.183691 0.306229 -0.563322
F28   F     F_    0.186305 0.709699 0.693553 -0.566926
F29   F     F_    0.267120 0.821638 0.696028 -0.589716
F30   F     F_    0.176164 0.265042 0.303569 -0.589699
F31   F     F_    0.725078 0.171895 0.695105 -0.559417
F32   F     F_    0.823726 0.734815 0.303526 -0.590109
F33   F     F_    0.148601 0.236377 0.793096 -0.640108
F34   F     F_    0.257352 0.845299 0.201579 -0.611628
F35   F     F_    0.785960 0.697275 0.805328 -0.598431
F36   F     F_    0.774229 0.139666 0.212376 -0.644993
F37   F     F_    0.858000 0.245830 0.206452 -0.626072
F38   F     F_    0.678595 0.778786 0.804796 -0.567429
F39   F     F_    0.150429 0.762153 0.206331 -0.642769
F40   F     F_    0.255597 0.153355 0.798289 -0.609264
F41   F     F_    0.640754 0.727698 0.288639 -0.647841
F42   F     F_    0.756664 0.345992 0.701852 -0.613552
F43   F     F_    0.359158 0.272204 0.288545 -0.643633
F44   F     F_    0.274424 0.639462 0.712533 -0.646965
F45   F     F_    0.358225 0.745595 0.706582 -0.612540
F46   F     F_    0.252902 0.356028 0.293985 -0.615830
F47   F     F_    0.649805 0.262786 0.706671 -0.632736
F48   F     F_    0.747004 0.643857 0.294065 -0.610357
N33   N     N_3   0.309043 0.389921 0.758231 -0.409553
H49   H     H_    0.274999 0.434873 0.762011 0.251933
H50   H     H_    0.323540 0.368051 0.779674 0.276772
N34   N     N_3   0.406685 0.707849 0.259445 -0.365995
H51   H     H_    0.446146 0.742704 0.269012 0.200934
H52   H     H_    0.413913 0.710332 0.235484 0.261779
N35   N     N_3   0.708350 0.625107 0.716597 -0.417606
H53   H     H_    0.741055 0.579520 0.721445 0.223410
H54   H     H_    0.664798 0.624915 0.732216 0.270829
N36   N     N_3   0.611212 0.298491 0.232915 -0.347606
H55   H     H_    0.575891 0.340555 0.239782 0.199889
H56   H     H_    0.638944 0.316978 0.213292 0.265290
N37   N     N_3   0.707907 0.407266 0.249289 -0.400792
H57   H     H_    0.657188 0.427035 0.256910 0.191974
H58   H     H_    0.707739 0.406465 0.225128 0.266788
N38   N     N_3   0.625731 0.745395 0.705247 -0.431040
H59   H     H_    0.628102 0.714289 0.684853 0.228366
H60   H     H_    0.594241 0.717116 0.721413 0.254397
N39   N     N_3   0.309581 0.609857 0.242637 -0.379657
H61   H     H_    0.275025 0.565711 0.238126 0.244625
H62   H     H_    0.326591 0.632045 0.221555 0.274419
N40   N     N_3   0.407526 0.288598 0.742162 -0.404825
H63   H     H_    0.425016 0.337521 0.731900 0.230360
H64   H     H_    0.411940 0.294552 0.766124 0.269383
N41   N     N_3   0.800012 0.888800 0.265764 -0.341952
H65   H     H_    0.843033 0.922239 0.258164 0.220427
H66   H     H_    0.819642 0.861052 0.285183 0.268558
N42   N     N_3   0.906891 0.207607 0.758903 -0.367702
H67   H     H_    0.946523 0.242262 0.768474 0.197993
H68   H     H_    0.913758 0.210474 0.734931 0.264619
N43   N     N_3   0.199957 0.111153 0.265898 -0.335584
H69   H     H_    0.156960 0.077722 0.258353 0.220864
H70   H     H_    0.180279 0.138849 0.285310 0.269738
N44   N     N_3   0.111269 0.798402 0.732695 -0.332713
H71   H     H_    0.075870 0.840484 0.739472 0.217411
H72   H     H_    0.139123 0.816784 0.713085 0.263617
N45   N     N_3   0.207843 0.907295 0.749054 -0.403877
H73   H     H_    0.157066 0.927099 0.756587 0.190344
H74   H     H_    0.207847 0.906342 0.724894 0.270477
N46   N     N_3   0.093218 0.204096 0.249103 -0.419087
H75   H     H_    0.050318 0.234251 0.239272 0.219663
H76   H     H_    0.090863 0.213761 0.272891 0.269586
N47   N     N_3   0.809551 0.109923 0.742078 -0.363552
H77   H     H_    0.775021 0.065764 0.737565 0.267665
H78   H     H_    0.826178 0.132434 0.721004 0.273933
N48   N     N_3   0.906778 0.795901 0.248955 -0.421117
H79   H     H_    0.949693 0.765760 0.239120 0.215576
H80   H     H_    0.909084 0.786195 0.272751 0.269514
F49   F     F_    0.123399 0.454384 0.869780 -0.578367
F50   F     F_    0.553038 0.880191 0.130754 -0.594530
F51   F     F_    0.876258 0.545393 0.869753 -0.577157
F52   F     F_    0.447390 0.119981 0.130606 -0.596098
F53   F     F_    0.876540 0.545045 0.130234 -0.592124
F54   F     F_    0.548429 0.878018 0.869819 -0.578234
F55   F     F_    0.123658 0.455048 0.130569 -0.592974
F56   F     F_    0.450035 0.121321 0.869304 -0.580902
F57   F     F_    0.620426 0.052051 0.369230 -0.595446
F58   F     F_    0.047674 0.377683 0.630281 -0.594395
F59   F     F_    0.379452 0.948111 0.369440 -0.603704
F60   F     F_    0.952064 0.622537 0.630289 -0.627389
F61   F     F_    0.377958 0.951149 0.630738 -0.585273
F62   F     F_    0.046304 0.376985 0.369823 -0.580307
F63   F     F_    0.622711 0.047079 0.630100 -0.586109
F64   F     F_    0.953303 0.622846 0.369673 -0.581107
N49   N     N_3   0.127489 0.455669 0.934090 -0.394413
H81   H     H_    0.140684 0.402214 0.927525 0.254550
H82   H     H_    0.170374 0.489906 0.927089 0.247445
N50   N     N_3   0.554676 0.876430 0.065540 -0.384645
H83   H     H_    0.564520 0.832138 0.080334 0.275558
H84   H     H_    0.605270 0.891848 0.056142 0.204807
N51   N     N_3   0.871755 0.543794 0.934069 -0.391575
H85   H     H_    0.828906 0.509605 0.927073 0.250490
H86   H     H_    0.858616 0.597287 0.927489 0.251535
N52   N     N_3   0.445823 0.123555 0.065377 -0.385269
H87   H     H_    0.436008 0.167901 0.080102 0.275666
H88   H     H_    0.395219 0.108132 0.056063 0.203370
N53   N     N_3   0.872212 0.543500 0.065982 -0.391117
H89   H     H_    0.829517 0.509074 0.073025 0.250413
H90   H     H_    0.858790 0.596910 0.072531 0.246828
N54   N     N_3   0.550184 0.874903 0.934119 -0.391651
H91   H     H_    0.518681 0.829724 0.927555 0.255800
H92   H     H_    0.604284 0.865421 0.927136 0.245050
N55   N     N_3   0.128518 0.456892 0.065338 -0.387922
H93   H     H_    0.168550 0.435596 0.080158 0.275457
H94   H     H_    0.150482 0.504351 0.055436 0.208803
N56   N     N_3   0.448005 0.124860 0.934526 -0.385198
H95   H     H_    0.439191 0.169366 0.919732 0.279075
H96   H     H_    0.397073 0.110659 0.943941 0.205540
N57   N     N_3   0.624211 0.053492 0.434442 -0.385595
H97   H     H_    0.668664 0.063072 0.419644 0.274820
H98   H     H_    0.609064 0.104038 0.443807 0.205515
N58   N     N_3   0.049511 0.374677 0.565975 -0.393334
H99   H     H_    0.017597 0.329770 0.572606 0.254828
H100  H     H_    0.103514 0.364702 0.572923 0.242210
N59   N     N_3   0.375871 0.946433 0.434671 -0.386220
H101  H     H_    0.331387 0.936863 0.419947 0.274526
H102  H     H_    0.391060 0.895872 0.444054 0.201628
N60   N     N_3   0.949844 0.625648 0.565962 -0.397684
H103  H     H_    0.895891 0.635628 0.573025 0.235206
H104  H     H_    0.981809 0.670540 0.572479 0.250560
N61   N     N_3   0.374429 0.948970 0.565524 -0.386533
H105  H     H_    0.329745 0.940585 0.580326 0.277402
H106  H     H_    0.388235 0.898021 0.556182 0.203891
N62   N     N_3   0.048261 0.373980 0.434132 -0.392055
H107  H     H_    0.015887 0.329395 0.427598 0.253034
H108  H     H_    0.102148 0.363468 0.427120 0.249130
N63   N     N_3   0.625855 0.048659 0.565804 -0.393014
H109  H     H_    0.670854 0.016829 0.572421 0.246125
H110  H     H_    0.635841 0.102559 0.572704 0.249291
N64   N     N_3   0.951010 0.625918 0.433959 -0.393386
H111  H     H_    0.983400 0.670508 0.427357 0.251510
H112  H     H_    0.897154 0.636398 0.426939 0.249060

loop_
_geom_bond_atom_site_label_1
_geom_bond_atom_site_label_2
_ccdc_geom_bond_type
O5    Zn10  S    
C20   N10   A    
C136  N64   S    
C75   F35   S    
N51   H86   S    
C118  C134  A    
N27   H37   S    
O3    Zn5   S    
C117  C133  A    
C87   F31   S    
N31   H46   S    
N11   N13   A    
N24   H31   S    
C30   O44   A    
N54   H91   S    
N3    N5    A    
C35   O45   A    
O20   Zn5   S    
C82   C87   S    
C67   N27   S    
C65   N25   S    
C88   F48   S    
C4    O10   A    
C46   F6    S    
N53   H90   S    
C125  N53   S    
C34   O48   A    
C44   C92   S    
C72   N32   S    
C22   N8    A    
C60   C92   S    
O4    Zn6   S    
C19   C141  S    
N52   H88   S    
C114  C130  A    
O12   Zn13  S    
C56   F16   S    
C108  C124  A    
N42   H67   S    
N37   H58   S    
C113  F57   S    
O16   Zn1   S    
C30   O26   A    
C84   C100  S    
N4    N8    A    
C33   C92   S    
C1    O5    A    
C14   C114  A    
C78   F38   S    
C37   C96   S    
C48   F8    S    
N48   H80   S    
N63   H110  S    
C39   C94   S    
C128  N56   S    
O22   Zn9   S    
C16   C118  A    
C25   C100  S    
O50   Zn16  S    
N31   H45   S    
N32   H47   S    
C38   O52   A    
C123  N51   S    
C85   F29   S    
C13   C115  A    
C87   C103  S    
C36   C91   S    
N58   H99   S    
C20   N12   A    
N50   H84   S    
C74   C79   S    
C54   F14   S    
N20   H24   S    
O19   Zn8   S    
C21   C139  S    
C40   C95   S    
N47   H77   S    
O23   Zn10  S    
O17   Zn6   S    
O28   Zn15  S    
N30   H43   S    
C109  F53   S    
N10   N14   A    
C49   H9    S    
C67   N43   S    
C107  F51   S    
C48   C96   S    
O11   Zn16  S    
C3    O11   A    
C84   F28   S    
O9    Zn14  S    
C69   C101  S    
C132  C142  A    
C59   N19   S    
C4    O12   A    
C66   N26   S    
O13   Zn2   S    
C80   F24   S    
O24   Zn11  S    
C5    O13   A    
N25   H34   S    
N49   H81   S    
C71   N47   S    
N28   H39   S    
C78   C94   S    
C126  N54   S    
N23   H30   S    
C40   O50   A    
N36   H55   S    
C81   C88   S    
C49   C97   S    
C22   N6    A    
C64   N24   S    
C118  F62   S    
C83   C86   S    
O4    Zn8   S    
C63   N39   S    
N39   H61   S    
C131  N59   S    
C130  N58   S    
N41   H65   S    
C87   F47   S    
O2    Zn9   S    
C32   O42   A    
C17   N15   A    
C85   F45   S    
N46   H75   S    
N59   H102  S    
C73   F33   S    
C41   C89   S    
C34   O30   A    
C78   F22   S    
C63   C95   S    
C10   C108  A    
C69   N45   S    
N62   H108  S    
C45   C93   S    
O41   Zn7   S    
C6    C9    S    
C12   C110  A    
C1    O7    A    
N57   H97   S    
C82   F26   S    
C135  N63   S    
O45   Zn11  S    
C62   N38   S    
N27   H38   S    
O2    Zn2   S    
C16   C120  A    
N17   H17   S    
C54   H14   S    
N40   H63   S    
C9    C105  A    
C36   O32   A    
O34   Zn5   S    
C121  C137  A    
N44   H71   S    
C45   F5    S    
C43   F3    S    
N18   H19   S    
C46   C94   S    
C47   F7    S    
O37   Zn3   S    
C75   C91   S    
C75   F19   S    
C135  C143  A    
N2    N6    A    
O30   Zn1   S    
N29   H42   S    
C3    O9    A    
C88   C104  S    
O6    Zn11  S    
N33   H50   S    
C7    C12   S    
C61   N37   S    
C50   C98   S    
C39   O49   A    
C39   O35   A    
C25   O39   A    
C27   O23   A    
C5    O15   A    
C127  N55   S    
O47   Zn9   S    
C68   N44   S    
C52   C100  S    
C29   C104  S    
N62   H107  S    
C42   C90   S    
N26   H36   S    
C68   C100  S    
O7    Zn12  S    
C116  C132  A    
C106  C122  A    
N38   H60   S    
C111  F55   S    
C38   O34   A    
C8    O18   A    
N1    N7    A    
C110  C126  A    
C18   N14   A    
C28   C99   S    
N18   H20   S    
C108  F52   S    
C10   C106  A    
C51   F11   S    
C86   C102  S    
C114  F58   S    
C12   C112  A    
C52   C53   S    
C76   F36   S    
O4    Zn15  S    
C71   C103  S    
C42   F2    S    
C61   N21   S    
C58   N18   S    
N22   H28   S    
N19   H21   S    
C9    C107  A    
C65   C72   S    
C123  C137  A    
N24   H32   S    
C67   C70   S    
C66   C98   S    
N54   H92   S    
C128  C140  A    
C34   C89   S    
C63   N23   S    
O48   Zn10  S    
C74   C90   S    
C38   C93   S    
N58   H100  S    
N21   H26   S    
C15   C119  A    
C64   C96   S    
C55   F15   S    
C26   O22   A    
C115  F59   S    
N45   H74   S    
C26   C97   S    
C134  C144  A    
O39   Zn1   S    
C110  F54   S    
N34   H51   S    
C69   N29   S    
C1    C14   S    
C3    C16   S    
N12   N16   A    
C18   N16   A    
N41   H66   S    
C82   C98   S    
O43   Zn5   S    
N64   H112  S    
C107  C123  A    
O18   Zn7   S    
O38   Zn4   S    
N42   H68   S    
N37   H57   S    
N55   H94   S    
O27   Zn14  S    
C59   N35   S    
C57   N17   S    
C80   F40   S    
O25   Zn16  S    
C57   C89   S    
C124  C138  A    
C71   N31   S    
C120  F64   S    
O10   Zn15  S    
C61   C93   S    
N61   H106  S    
C129  C141  A    
N56   H95   S    
N43   H69   S    
C22   C140  S    
C21   N5    A    
C26   O40   A    
O14   Zn3   S    
N60   H103  S    
O2    Zn11  S    
C76   F20   S    
C53   C101  S    
C68   C69   S    
C58   N34   S    
N32   H48   S    
N23   H29   S    
C72   N48   S    
C73   F17   S    
C67   C99   S    
C55   H15   S    
C83   C99   S    
C79   F23   S    
N30   H44   S    
C53   F13   S    
C11   C111  A    
N63   H109  S    
C31   C102  S    
C70   N46   S    
C29   O25   A    
C84   C85   S    
C56   C104  S    
N35   H53   S    
C72   C104  S    
C66   N42   S    
O4    Zn13  S    
C119  C135  A    
C15   C117  A    
C60   C61   S    
C120  C136  A    
C77   F37   S    
C32   O28   A    
C79   C95   S    
N25   H33   S    
C24   N4    A    
C51   C99   S    
C66   C71   S    
C106  F50   S    
C51   H11   S    
N9    N15   A    
C32   C103  S    
C2    O8    A    
C86   F30   S    
N36   H56   S    
C58   C90   S    
C122  C138  A    
C33   O47   A    
C35   O31   A    
C47   H7    S    
C48   H8    S    
N52   H87   S    
C7    O19   A    
C42   H2    S    
O8    Zn9   S    
C44   C45   S    
N46   H76   S    
C41   F1    S    
C54   C102  S    
C124  N52   S    
C70   C102  S    
O31   Zn2   S    
O49   Zn15  S    
C40   O36   A    
C21   N7    A    
C133  N61   S    
C17   C143  S    
C18   C144  S    
N48   H79   S    
C52   F12   S    
O33   Zn8   S    
C73   C89   S    
C136  C144  A    
N19   H22   S    
C129  N57   S    
N40   H64   S    
C30   C101  S    
O46   Zn12  S    
C81   C97   S    
C8    O20   A    
C79   F39   S    
N44   H72   S    
C112  C128  A    
C44   F4    S    
O32   Zn3   S    
C35   C90   S    
C134  N62   S    
C37   O51   A    
C41   H1    S    
N50   H83   S    
C81   F41   S    
C6    O16   A    
N51   H85   S    
C27   O37   A    
C70   N30   S    
N20   H23   S    
C83   F43   S    
C60   N20   S    
C74   F34   S    
O1    Zn10  S    
C31   O41   A    
C27   C98   S    
C11   C109  A    
N29   H41   S    
N53   H89   S    
C115  C131  A    
N33   H49   S    
C125  C139  A    
O2    Zn4   S    
C126  C140  A    
C28   O24   A    
C113  C129  A    
C50   F10   S    
O44   Zn6   S    
C19   N11   A    
N49   H82   S    
O1    Zn1   S    
O21   Zn12  S    
C55   C103  S    
C121  N49   S    
C105  F49   S    
C2    O6    A    
C2    C13   S    
C17   N13   A    
C41   C48   S    
O15   Zn4   S    
N43   H70   S    
C68   N28   S    
O40   Zn2   S    
C64   N40   S    
C80   C96   S    
C88   F32   S    
C31   O27   A    
O3    Zn16  S    
C65   N41   S    
N64   H111  S    
C127  C139  A    
C130  C142  A    
C43   C46   S    
C57   N33   S    
C23   N3    A    
N57   H98   S    
C28   O38   A    
C133  C143  A    
C20   C142  S    
C82   F42   S    
C43   H3    S    
C76   C77   S    
O3    Zn7   S    
N55   H93   S    
N17   H18   S    
C62   N22   S    
C24   C138  S    
O26   Zn13  S    
C43   C91   S    
C86   F46   S    
C60   N36   S    
N47   H78   S    
C74   F18   S    
N35   H54   S    
C49   F9    S    
C112  F56   S    
C6    O14   A    
N21   H25   S    
C105  C121  A    
N39   H62   S    
N22   H27   S    
C37   O33   A    
N45   H73   S    
C76   C92   S    
O1    Zn12  S    
C109  C125  A    
C46   H6    S    
N34   H52   S    
C111  C127  A    
C7    O17   A    
C119  F63   S    
C36   O46   A    
O36   Zn7   S    
C85   C101  S    
C77   C93   S    
C57   C64   S    
C117  F61   S    
C59   C91   S    
C58   C63   S    
C59   C62   S    
C132  N60   S    
C33   O29   A    
C116  F60   S    
C23   C137  S    
C24   N2    A    
C19   N9    A    
C131  C141  A    
O51   Zn13  S    
C52   H12   S    
C49   C56   S    
C77   F21   S    
C84   F44   S    
C53   H13   S    
C50   C55   S    
O35   Zn6   S    
C51   C54   S    
N26   H35   S    
C4    C15   S    
C62   C94   S    
C65   C97   S    
C5    C10   S    
C56   H16   S    
N28   H40   S    
C81   F25   S    
N61   H105  S    
N56   H96   S    
C50   H10   S    
C8    C11   S    
C14   C116  A    
C83   F27   S    
N38   H59   S    
C44   H4    S    
C73   C80   S    
C45   H5    S    
C42   C47   S    
C75   C78   S    
N60   H104  S    
O3    Zn14  S    
C25   O21   A    
N59   H101  S    
O42   Zn8   S    
C29   O43   A    
O52   Zn14  S    
O1    Zn3   S    
C47   C95   S    
O29   Zn4   S    
C13   C113  A    
C23   N1    A    
C122  N50   S    
