data_mof_unit_12556.cif
_audit_creation_date              2013-03-05T15:48:50-0500
_audit_creation_method            fapswitch 2.2
_symmetry_space_group_name_H-M    P1
_symmetry_Int_Tables_number       1
_space_group_crystal_system       triclinic
_cell_length_a                    10.193124
_cell_length_b                    10.802653
_cell_length_c                    27.653797
_cell_angle_alpha                 90.477239
_cell_angle_beta                  82.373336
_cell_angle_gamma                 95.925118
_cell_volume                      3001.9314911

loop_
_atom_site_label
_atom_site_type_symbol
_atom_site_description
_atom_site_fract_x
_atom_site_fract_y
_atom_site_fract_z
_atom_type_partial_charge
O1    O     O_R   0.431060 0.692470 0.504020 -0.625928
O2    O     O_R   0.568940 0.307530 0.495980 -0.627349
O3    O     O_R   0.651120 0.659650 0.491200 -0.580693
O4    O     O_R   0.348880 0.340350 0.508800 -0.572813
C1    C     C_R   0.556111 0.732453 0.495403 0.959066
C2    C     C_R   0.443699 0.267469 0.501934 0.957206
O5    O     O_R   0.389980 0.516390 0.577660 -0.628555
O6    O     O_R   0.610020 0.483610 0.422340 -0.626771
O7    O     O_R   0.610040 0.483570 0.564830 -0.543638
O8    O     O_R   0.389960 0.516430 0.435170 -0.562261
C3    C     C_R   0.500837 0.502613 0.593972 0.942372
C4    C     C_R   0.498365 0.497310 0.406295 0.951812
Zn1   Zn    Zn3+2 0.353060 0.521910 0.508560 1.041726
Zn2   Zn    Zn3+2 0.646940 0.478090 0.491440 1.044290
C5    C     C_R   0.414683 0.645854 0.826720 0.608571
C6    C     C_R   0.469112 0.397299 0.176156 0.612085
O9    O     O_2   0.407376 0.753259 0.803418 -0.605158
O10   O     O_2   0.462426 0.286460 0.199059 -0.530959
N1    N     N_R   0.411475 0.535890 0.801925 -0.326924
N2    N     N_R   0.498926 0.505310 0.200381 -0.343971
C7    C     C_R   0.381172 0.425526 0.827142 0.565243
C8    C     C_R   0.524972 0.616542 0.175884 0.528618
C9    C     C_R   0.347110 0.466055 0.723416 -0.142486
C10   C     C_R   0.606602 0.556975 0.273440 -0.143908
C11   C     C_R   0.375719 0.449505 0.673737 -0.239413
C12   C     C_R   0.603983 0.556907 0.323682 -0.259250
C13   C     C_R   0.583264 0.582955 0.672429 0.174858
C14   C     C_R   0.393769 0.424137 0.332472 0.206632
C15   C     C_R   0.556235 0.597422 0.723824 0.406069
C16   C     C_R   0.386700 0.441398 0.282546 0.426630
C17   C     C_R   0.437868 0.535181 0.749345 0.157416
C18   C     C_R   0.497295 0.502002 0.252472 0.115184
C19   C     C_R   0.397217 0.534531 0.903043 -0.123053
C20   C     C_R   0.469011 0.513795 0.101846 -0.127472
C21   C     C_R   0.423720 0.646492 0.876753 -0.069223
C22   C     C_R   0.442827 0.401412 0.127893 -0.095436
C23   C     C_R   0.461645 0.755585 0.900301 -0.264721
C24   C     C_R   0.389505 0.295509 0.105918 -0.259520
C25   C     C_R   0.359334 0.425263 0.878391 -0.095409
C26   C     C_R   0.521433 0.620887 0.125258 -0.098905
C27   C     C_R   0.492939 0.506953 0.647540 -0.186886
C28   C     C_R   0.497170 0.492906 0.353537 -0.207133
H1    H     H_    0.482056 0.842735 0.880281 0.185577
H2    H     H_    0.373219 0.207583 0.125470 0.194928
C29   C     C_R   0.491566 0.629295 0.024969 0.015428
C30   C     C_R   0.361029 0.420444 0.980659 0.023483
C31   C     C_R   0.382221 0.411921 0.030625 -0.022456
C32   C     C_R   0.464573 0.639403 0.976038 -0.023320
C33   C     C_R   0.446315 0.518512 0.052307 0.018530
C34   C     C_R   0.407380 0.531587 0.953629 0.018247
C35   C     C_R   0.568061 0.724239 0.047358 -0.305835
C36   C     C_R   0.292109 0.323635 0.956153 -0.324521
C37   C     C_R   0.571482 0.727395 0.097514 0.475986
C38   C     C_R   0.299910 0.320493 0.905240 0.488231
O11   O     O_2   0.550872 0.722579 0.200574 -0.514698
O12   O     O_2   0.376104 0.316453 0.802987 -0.523335
C39   C     C_R   0.486392 0.753817 0.948698 0.464849
C40   C     C_R   0.350372 0.300092 0.059561 0.441825
H3    H     H_    0.686515 0.605787 0.339317 0.189146
H4    H     H_    0.303147 0.393666 0.655250 0.192537
H5    H     H_    0.692955 0.601965 0.250835 0.190921
H6    H     H_    0.254107 0.422203 0.742178 0.198328
H7    H     H_    0.634777 0.793870 0.026943 0.229407
H8    H     H_    0.225944 0.251677 0.975005 0.217264
H9    H     H_    0.612816 0.106650 0.473874 0.198904
H10   H     H_    0.384483 0.892222 0.486921 0.203940
C41   C     C_2   0.587424 0.864868 0.488426 -0.310940
C42   C     C_2   0.411638 0.134764 0.498567 -0.265604
C43   C     C_2   0.487098 0.933251 0.485203 -0.151682
C44   C     C_2   0.510738 0.065873 0.483873 -0.123010
H11   H     H_    0.309856 0.093417 0.508534 0.171775
H12   H     H_    0.689727 0.906481 0.486753 0.180119
N3    N     N_2   0.842700 0.448890 0.480020 -0.238619
N4    N     N_2   0.157300 0.551110 0.519980 -0.239433
C45   C     C_2   0.927301 0.501695 0.506436 0.229224
C46   C     C_2   0.073247 0.496232 0.493656 0.237822
H13   H     H_    0.121786 0.597802 0.550744 0.209455
H14   H     H_    0.878573 0.406134 0.448311 0.204968
N5    N     N_R   0.696472 0.651748 0.645619 0.231944
O13   O     O_R   0.813341 0.650454 0.659637 -0.293682
O14   O     O_R   0.678171 0.735096 0.614161 -0.386898
N6    N     N_R   0.307981 0.326873 0.359631 0.275207
O15   O     O_R   0.354426 0.263117 0.392070 -0.374373
O16   O     O_R   0.193767 0.285889 0.346227 -0.267293
N7    N     N_R   0.120696 0.430088 0.451304 0.231208
O17   O     O_R   0.116309 0.309561 0.453810 -0.331206
O18   O     O_R   0.125609 0.483463 0.409030 -0.408289
N8    N     N_R   0.880046 0.558129 0.550875 0.235133
O19   O     O_R   0.869160 0.491465 0.590393 -0.346843
O20   O     O_R   0.893958 0.678884 0.553645 -0.334120
O21   O     O_3   0.649372 0.660987 0.750026 -0.588123
C47   C     C_3   0.661784 0.791058 0.740503 0.193697
H15   H     H_    0.565721 0.826479 0.735547 0.170175
H16   H     H_    0.731980 0.816603 0.707317 0.199489
C48   C     C_3   0.719843 0.860135 0.782264 -0.749727
H17   H     H_    0.822413 0.835747 0.783867 0.257707
H18   H     H_    0.723386 0.962136 0.776583 0.212731
H19   H     H_    0.658521 0.834498 0.817483 0.264314
O22   O     O_3   0.277427 0.389042 0.262113 -0.544095
C49   C     C_3   0.191700 0.481940 0.258041 0.118138
H20   H     H_    0.243976 0.563753 0.236626 0.126568
H21   H     H_    0.150172 0.513269 0.294902 0.183427
C50   C     C_3   0.076991 0.428362 0.231666 -0.753106
H22   H     H_    0.021506 0.347054 0.252217 0.280419
H23   H     H_    0.007943 0.500165 0.228635 0.200422
H24   H     H_    0.115831 0.398303 0.194418 0.240814
O23   O     O_3   0.643794 0.825639 0.117891 -0.568960
C51   C     C_3   0.585337 0.937057 0.112504 0.106775
H25   H     H_    0.476739 0.925567 0.126101 0.152221
H26   H     H_    0.600456 0.967932 0.073738 0.135581
C52   C     C_3   0.651425 0.039194 0.141967 -0.701578
H27   H     H_    0.760109 0.052545 0.129449 0.233268
H28   H     H_    0.608683 0.127938 0.136980 0.217824
H29   H     H_    0.634637 0.013863 0.181306 0.288377
O24   O     O_3   0.228611 0.226409 0.882174 -0.570327
C53   C     C_3   0.273753 0.110353 0.890585 0.092651
H30   H     H_    0.234817 0.077114 0.928097 0.127173
H31   H     H_    0.384552 0.115563 0.884816 0.153189
C54   C     C_3   0.221180 0.015387 0.855095 -0.699202
H32   H     H_    0.260385 0.044029 0.816997 0.286083
H33   H     H_    0.253421 0.922952 0.862267 0.213496
H34   H     H_    0.110722 0.007692 0.859653 0.247965
O25   O     O_3   0.547491 0.862111 0.965967 -0.644048
C55   C     C_3   0.457659 0.952921 0.975543 0.074017
H35   H     H_    0.411430 0.945075 0.014260 0.173306
H36   H     H_    0.376660 0.944793 0.952107 0.118513
C56   C     C_3   0.536031 0.080311 0.967074 -0.774363
H37   H     H_    0.468198 0.154210 0.971002 0.245675
H38   H     H_    0.608107 0.096379 0.993831 0.250051
H39   H     H_    0.591134 0.085947 0.929581 0.248016
O26   O     O_3   0.295124 0.189364 0.041862 -0.655374
C57   C     C_3   0.164636 0.160181 0.066447 0.052199
H40   H     H_    0.101795 0.236946 0.062220 0.148755
H41   H     H_    0.165389 0.142402 0.105967 0.163297
C58   C     C_3   0.100919 0.042410 0.044878 -0.829067
H42   H     H_    0.162508 0.964499 0.047868 0.249492
H43   H     H_    0.000123 0.016892 0.065002 0.230253
H44   H     H_    0.091357 0.057573 0.005931 0.243719

loop_
_geom_bond_atom_site_label_1
_geom_bond_atom_site_label_2
_geom_bond_distance
_ccdc_geom_bond_type
C58   H44   1.109231 S    
C45   C46   1.489868 S    
C10   H5    1.082782 S    
C13   C15   1.421831 A    
C48   H17   1.110780 S    
C1    C41   1.441955 S    
N1    C17   1.443272 S    
C10   C18   1.399787 A    
C48   H19   1.105954 S    
O25   C55   1.409849 S    
C31   C33   1.431559 A    
N7    O17   1.300272 A    
C53   H30   1.109062 S    
C5    N1    1.366285 A    
C19   C25   1.403407 A    
N4    C46   1.291856 D    
O1    C1    1.294419 A    
N1    C7    1.372500 A    
C10   C12   1.386118 A    
C13   N5    1.427786 S    
C42   H11   1.087345 S    
C29   C32   1.423399 A    
H10   C43   1.088213 S    
C29   C35   1.412707 A    
O24   C53   1.410668 S    
C30   C36   1.417514 A    
C51   H25   1.115381 S    
C58   H43   1.110688 S    
C41   H12   1.087372 S    
O4    Zn1   1.957438 S    
C13   C27   1.413589 A    
C49   H20   1.115123 S    
C4    C28   1.460962 S    
C24   C40   1.394916 A    
C9    H6    1.083107 S    
C52   H28   1.110074 S    
C52   H27   1.110845 S    
C53   H31   1.115052 S    
C57   H40   1.114809 S    
N4    H13   1.028602 S    
O23   C51   1.414399 S    
C11   H4    1.084228 S    
C50   H24   1.111712 S    
C58   H42   1.110558 S    
C12   H3    1.083743 S    
O6    C4    1.297687 A    
C2    C42   1.442114 S    
N3    C45   1.288949 D    
O2    C2    1.294385 A    
C53   C54   1.520582 S    
C5    C21   1.398726 A    
C36   C38   1.399926 A    
C54   H33   1.110312 S    
N7    O18   1.300516 A    
C14   N6    1.442865 S    
Zn2   N3    2.035166 S    
C32   C39   1.436280 A    
C35   H7    1.070773 S    
O4    C2    1.302278 A    
C36   H8    1.065871 S    
C11   C27   1.400806 A    
O21   C47   1.421375 S    
N5    O14   1.301166 A    
C19   C34   1.417215 A    
N3    H14   1.029065 S    
C16   O22   1.382553 S    
C49   C50   1.521106 S    
C35   C37   1.392087 A    
C9    C17   1.397184 A    
C23   H1    1.083426 S    
O5    C3    1.293688 A    
O7    Zn2   2.015907 S    
C56   H38   1.110487 S    
C24   H2    1.083634 S    
C39   O25   1.379758 S    
C37   O23   1.387790 S    
O22   C49   1.411522 S    
C7    C25   1.405077 A    
C29   C33   1.423055 A    
C40   O26   1.382693 S    
C6    N2    1.367622 A    
C8    C26   1.406533 A    
C38   O24   1.388438 S    
C47   H16   1.104312 S    
C50   H23   1.110620 S    
Zn1   N4    2.035167 S    
C32   C34   1.422707 A    
O7    C3    1.318031 A    
O3    Zn2   1.957438 S    
O8    C4    1.308212 A    
C55   C56   1.521703 S    
C6    O10   1.350479 S    
N8    O20   1.300254 A    
C26   C37   1.400839 A    
N6    O16   1.301602 A    
C20   C26   1.412368 A    
O1    Zn1   1.928113 S    
C56   H37   1.104420 S    
C15   O21   1.391944 S    
C22   C24   1.386096 A    
C12   C28   1.400176 A    
C55   H36   1.111545 S    
C49   H21   1.114493 S    
N2    C18   1.439098 S    
C54   H34   1.110703 S    
C5    O9    1.345368 S    
C30   C31   1.431739 A    
C20   C33   1.421464 A    
O6    Zn2   1.998510 S    
C21   C23   1.386474 A    
N2    C8    1.368657 A    
O3    C1    1.302211 A    
O8    Zn1   2.015904 S    
C7    O12   1.349322 S    
C54   H32   1.110641 S    
C48   H18   1.110535 S    
C8    O11   1.349223 S    
C30   C34   1.423929 A    
C51   C52   1.520618 S    
C14   C16   1.406975 A    
C56   H39   1.110692 S    
C15   C17   1.421362 A    
C6    C22   1.397644 A    
C31   C40   1.439179 A    
C16   C18   1.413835 A    
C57   C58   1.521780 S    
C14   C28   1.412878 A    
C47   H15   1.112589 S    
C19   C21   1.399794 A    
C51   H26   1.111631 S    
C3    C27   1.473441 S    
C52   H29   1.110640 S    
C20   C22   1.400199 A    
C47   C48   1.522032 S    
C43   C44   1.428005 S    
O2    Zn2   1.928111 S    
N5    O13   1.302185 A    
C25   C38   1.397223 A    
C45   N8    1.415947 S    
O5    Zn1   1.998513 S    
C9    C11   1.380110 A    
N8    O19   1.299845 A    
C57   H41   1.112371 S    
N6    O15   1.301362 A    
C50   H22   1.111201 S    
C42   C44   1.334380 D    
C41   C43   1.334426 D    
H9    C44   1.088194 S    
C46   N7    1.422401 S    
C23   C39   1.395059 A    
O26   C57   1.416929 S    
C55   H35   1.111254 S    
