data_mof_unit_16238.cif
_audit_creation_date              2012-12-10T17:57:50-0500
_audit_creation_method            fapswitch 2.2
_symmetry_space_group_name_H-M    P1
_symmetry_Int_Tables_number       1
_space_group_crystal_system       triclinic
_cell_length_a                    10.996274
_cell_length_b                    9.674108
_cell_length_c                    15.265944
_cell_angle_alpha                 88.84387
_cell_angle_beta                  91.76121
_cell_angle_gamma                 89.096244
_cell_volume                      1622.66204402

loop_
_atom_site_label
_atom_site_type_symbol
_atom_type_description
_atom_site_fract_x
_atom_site_fract_y
_atom_site_fract_z
_atom_type_partial_charge
C1    C     C_R   0.262137 0.500685 0.497151 0.713748
C2    C     C_R   0.737053 0.498901 0.508942 0.738033
C3    C     C_R   0.284851 0.534454 0.034605 -0.046868
C4    C     C_R   0.729836 0.550294 0.962326 -0.116981
C5    C     C_R   0.066044 0.375239 0.507593 -0.144550
C6    C     C_R   0.933757 0.623170 0.507918 -0.118380
C7    C     C_R   0.939433 0.373814 0.512658 -0.174041
C8    C     C_R   0.060242 0.624647 0.502354 -0.195568
C9    C     C_R   0.871672 0.497947 0.511576 -0.010843
C10   C     C_R   0.127821 0.500649 0.501306 -0.016334
C11   C     C_R   0.443344 0.078961 0.432736 0.412408
C12   C     C_R   0.556804 0.925256 0.566487 0.405942
C13   C     C_R   0.571915 0.071518 0.558031 0.441495
C14   C     C_R   0.453106 0.930905 0.428535 0.400621
C15   C     C_R   0.498848 0.501980 0.329057 0.819141
C16   C     C_R   0.507879 0.498855 0.671277 0.828849
C17   C     C_R   0.622429 0.503440 0.818391 -0.125569
C18   C     C_R   0.388860 0.510502 0.182746 -0.085959
C19   C     C_R   0.511334 0.500471 0.769075 -0.194899
C20   C     C_R   0.499205 0.509471 0.231821 -0.199214
C21   C     C_R   0.401697 0.517710 0.812339 0.425403
C22   C     C_R   0.609407 0.531475 0.190108 0.427846
C23   C     C_R   0.402040 0.534933 0.903608 -0.053680
C24   C     C_R   0.614606 0.538856 0.097389 -0.021520
C25   C     C_R   0.510808 0.526526 0.953879 -0.011647
C26   C     C_R   0.505799 0.526068 0.047021 -0.027498
C27   C     C_R   0.622935 0.524555 0.911028 0.014734
C28   C     C_R   0.391349 0.519036 0.089069 0.027521
C29   C     C_R   0.294069 0.564390 0.945474 0.020220
C30   C     C_R   0.724751 0.562969 0.053710 -0.032737
Cu1   Cu    Cu3+1 0.500000 0.640660 0.500000 1.002471
Cu2   Cu    Cu3+1 0.500000 0.359340 0.500000 1.007982
H1    H     H_    0.115331 0.277793 0.508361 0.143376
H2    H     H_    0.884444 0.720661 0.507817 0.150037
H3    H     H_    0.894399 0.275644 0.516099 0.183936
H4    H     H_    0.105066 0.722955 0.498705 0.139046
N1    N     N_R   0.500000 0.852070 0.500000 -0.282839
N2    N     N_R   0.500000 0.147930 0.500000 -0.279227
O1    O     O_R   0.319640 0.618740 0.499990 -0.611055
O2    O     O_R   0.680360 0.381260 0.500010 -0.555369
O3    O     O_R   0.680360 0.618740 0.500010 -0.589163
O4    O     O_R   0.319640 0.381260 0.499990 -0.588381
O5    O     O_R   0.499970 0.618800 0.370260 -0.512830
O6    O     O_R   0.500030 0.381200 0.629740 -0.582594
O7    O     O_R   0.500030 0.618800 0.629740 -0.541983
O8    O     O_R   0.499970 0.381200 0.370260 -0.529299
C31   C     C_2   0.736117 0.469983 0.774646 0.318553
H5    H     H_    0.779202 0.369808 0.785431 0.116487
O9    O     O_2   0.788626 0.558329 0.733142 -0.596612
C32   C     C_2   0.275534 0.516282 0.234610 0.332937
H6    H     H_    0.266971 0.588815 0.286564 0.032521
O10   O     O_2   0.198718 0.427975 0.228720 -0.505811
O11   O     O_3   0.292090 0.493326 0.769115 -0.557850
C33   C     C_3   0.257972 0.607436 0.714889 -0.222364
H7    H     H_    0.268475 0.578468 0.647566 0.184142
H8    H     H_    0.309456 0.703649 0.727202 0.134333
H9    H     H_    0.160098 0.630979 0.722170 0.215343
O12   O     O_3   0.710663 0.565141 0.240933 -0.581005
C34   C     C_3   0.757630 0.447668 0.287212 -0.162317
H10   H     H_    0.710036 0.349539 0.275127 0.141178
H11   H     H_    0.756127 0.469033 0.356193 0.154387
H12   H     H_    0.854563 0.430952 0.273276 0.227828
C35   C     C_2   0.206543 0.663496 0.902216 0.346427
H13   H     H_    0.240274 0.760943 0.875823 0.059261
O13   O     O_2   0.100230 0.637753 0.890494 -0.530471
C36   C     C_2   0.833886 0.615514 0.100350 0.464413
H14   H     H_    0.850669 0.726212 0.099608 0.037620
O14   O     O_2   0.906236 0.536492 0.137258 -0.502454
C37   C     C_2   0.160311 0.529029 0.068077 0.358681
H15   H     H_    0.072886 0.525249 0.033639 0.292016
O15   O     O_2   0.106185 0.421732 0.066631 -0.480989
C38   C     C_2   0.848175 0.574210 0.922739 0.435334
H16   H     H_    0.871458 0.677123 0.899553 0.098463
O16   O     O_2   0.919406 0.477247 0.916243 -0.453566
O17   O     O_3   0.406477 0.151861 0.357357 -0.525130
C39   C     C_3   0.281337 0.188271 0.358185 -0.155144
H17   H     H_    0.268514 0.300002 0.366383 0.207087
H18   H     H_    0.228174 0.128574 0.406297 0.067655
H19   H     H_    0.240370 0.170494 0.292223 0.194989
O18   O     O_3   0.567750 0.868958 0.650417 -0.590213
C40   C     C_3   0.687079 0.820981 0.670370 -0.173003
H20   H     H_    0.705977 0.726670 0.634812 0.230581
H21   H     H_    0.694418 0.797987 0.742104 0.192625
H22   H     H_    0.757595 0.896831 0.655035 0.147300
O19   O     O_3   0.686061 0.121106 0.578360 -0.589013
C41   C     C_3   0.692810 0.173982 0.663139 -0.240312
H23   H     H_    0.702215 0.286614 0.657362 0.186177
H24   H     H_    0.778216 0.134802 0.696000 0.152622
H25   H     H_    0.615912 0.147088 0.705498 0.162831
O20   O     O_3   0.445607 0.874053 0.345914 -0.508748
C42   C     C_3   0.324327 0.848282 0.319370 -0.226879
H26   H     H_    0.277366 0.783566 0.368369 0.146157
H27   H     H_    0.326798 0.796231 0.255842 0.161845
H28   H     H_    0.270942 0.943178 0.305182 0.148309

loop_
_geom_bond_atom_site_label_1
_geom_bond_atom_site_label_2
_ccdc_geom_bond_type
C36   O14   D    
C35   O13   D    
C39   H19   S    
C40   H22   S    
C6    C9    A    
C29   C35   S    
C40   H20   S    
C31   O9    D    
O19   C41   S    
Cu1   O5    S    
C23   C29   A    
C3    C28   A    
C3    C37   S    
C24   C26   A    
C11   C14   A    
C41   H24   S    
C2    O3    A    
C3    C29   A    
C8    H4    S    
C12   N1    A    
C37   O15   D    
C14   O20   S    
Cu1   Cu2   S    
C5    H1    S    
C32   O10   D    
Cu2   N2    S    
C16   O6    A    
Cu2   O2    S    
C36   H14   S    
C34   H10   S    
C7    H3    S    
C40   H21   S    
C15   C20   S    
C33   H8    S    
C34   H11   S    
C17   C27   A    
C18   C28   A    
C39   H17   S    
C38   O16   D    
C42   H26   S    
C5    C7    A    
C41   H23   S    
C38   H16   S    
C6    C8    A    
C25   C26   A    
O11   C33   S    
Cu1   N1    S    
C11   N2    A    
O17   C39   S    
C2    O2    A    
C42   H27   S    
C31   H5    S    
C32   H6    S    
Cu2   O6    S    
C13   N2    A    
C30   C36   S    
C20   C22   A    
C21   C23   A    
C22   C24   A    
C4    C38   S    
C4    C27   A    
C18   C32   S    
C7    C9    A    
C33   H7    S    
C34   H12   S    
Cu1   O3    S    
C19   C21   A    
Cu2   O8    S    
C1    C10   S    
C17   C31   S    
C39   H18   S    
O18   C40   S    
C41   H25   S    
C16   O7    A    
C22   O12   S    
C25   C27   A    
C26   C28   A    
O12   C34   S    
C15   O5    A    
C5    C10   A    
C11   O17   S    
C42   H28   S    
C21   O11   S    
O20   C42   S    
C16   C19   S    
C12   O18   S    
C17   C19   A    
Cu1   O1    S    
C18   C20   A    
C23   C25   A    
C37   H15   S    
C24   C30   A    
C1    O1    A    
C35   H13   S    
C6    H2    S    
C1    O4    A    
C12   C13   A    
C8    C10   A    
Cu1   O7    S    
C13   O19   S    
Cu2   O4    S    
C15   O8    A    
C2    C9    S    
C4    C30   A    
C14   N1    A    
C33   H9    S    
