data_mof_unit_39163.cif
_audit_creation_date              2012-12-11T14:04:03-0500
_audit_creation_method            fapswitch 2.2
_symmetry_space_group_name_H-M    P1
_symmetry_Int_Tables_number       1
_space_group_crystal_system       triclinic
_cell_length_a                    19.010523
_cell_length_b                    11.226485
_cell_length_c                    18.743097
_cell_angle_alpha                 89.866961
_cell_angle_beta                  89.69524
_cell_angle_gamma                 90.049797
_cell_volume                      4000.10816455

loop_
_atom_site_label
_atom_site_type_symbol
_atom_type_description
_atom_site_fract_x
_atom_site_fract_y
_atom_site_fract_z
_atom_type_partial_charge
C1    C     C_R   0.240024 0.468439 0.646866 0.545585
C2    C     C_R   0.759954 0.468278 0.353107 0.544858
C3    C     C_R   0.740024 0.968439 0.646866 0.545585
C4    C     C_R   0.259954 0.968278 0.353107 0.544858
C5    C     C_2   0.278466 0.836170 0.533992 -0.139246
C6    C     C_2   0.721634 0.835868 0.466234 -0.138654
C7    C     C_2   0.778468 0.336172 0.533993 -0.139249
C8    C     C_2   0.221635 0.335868 0.466234 -0.138654
C9    C     C_R   0.006297 0.663782 0.424563 -0.028181
C10   C     C_R   0.993887 0.663689 0.575289 -0.028432
C11   C     C_R   0.506297 0.163782 0.424563 -0.028181
C12   C     C_R   0.493887 0.163689 0.575289 -0.028432
C13   C     C_R   0.011050 0.880284 0.426082 -0.098640
C14   C     C_R   0.988850 0.879981 0.573344 -0.099214
C15   C     C_R   0.511049 0.380283 0.426083 -0.098640
C16   C     C_R   0.488850 0.379980 0.573344 -0.099215
C17   C     C_R   0.002526 0.984840 0.462564 -0.083581
C18   C     C_R   0.997106 0.984666 0.536678 -0.083815
C19   C     C_R   0.502525 0.484840 0.462565 -0.083580
C20   C     C_R   0.497105 0.484666 0.536678 -0.083816
C21   C     C_R   0.995671 0.771644 0.537552 0.009306
C22   C     C_R   0.004433 0.771742 0.462075 0.009809
C23   C     C_R   0.495670 0.271644 0.537552 0.009306
C24   C     C_R   0.504433 0.271742 0.462075 0.009809
C25   C     C_R   0.989282 0.558627 0.535709 -0.021300
C26   C     C_R   0.011022 0.558734 0.464352 -0.021506
C27   C     C_R   0.489281 0.058627 0.535709 -0.021299
C28   C     C_R   0.511022 0.058734 0.464353 -0.021505
C29   C     C_R   0.965674 0.451989 0.565846 -0.105773
C30   C     C_R   0.034594 0.452264 0.434375 -0.106067
C31   C     C_R   0.465673 0.951989 0.565846 -0.105773
C32   C     C_R   0.534593 0.952263 0.434376 -0.106066
C33   C     C_R   0.977985 0.345117 0.530617 0.060617
C34   C     C_R   0.022212 0.345245 0.469743 0.060778
C35   C     C_R   0.477984 0.845117 0.530618 0.060618
C36   C     C_R   0.522211 0.845245 0.469744 0.060779
C37   C     C_2   0.238803 0.895766 0.928856 -0.092026
C38   C     C_2   0.761079 0.896722 0.071298 -0.089992
C39   C     C_2   0.738803 0.395766 0.928856 -0.092026
C40   C     C_2   0.261079 0.396722 0.071298 -0.089992
C41   C     C_2   0.247503 0.898416 0.085582 -0.105621
C42   C     C_2   0.752273 0.898459 0.914671 -0.109014
C43   C     C_2   0.747502 0.398416 0.085582 -0.105621
C44   C     C_2   0.252273 0.398459 0.914671 -0.109014
C45   C     C_R   0.227567 0.874662 0.648195 0.554546
C46   C     C_R   0.772413 0.874565 0.351790 0.554558
C47   C     C_R   0.727567 0.374662 0.648195 0.554546
C48   C     C_R   0.272413 0.374565 0.351789 0.554558
C49   C     C_2   0.188502 0.917682 0.049295 -0.162926
C50   C     C_2   0.811345 0.917734 0.950795 -0.163353
C51   C     C_2   0.688502 0.417682 0.049295 -0.162926
C52   C     C_2   0.311345 0.417734 0.950795 -0.163353
C53   C     C_2   0.183314 0.891062 0.973781 -0.149438
C54   C     C_2   0.816522 0.891553 0.026381 -0.149435
C55   C     C_2   0.683314 0.391062 0.973781 -0.149438
C56   C     C_2   0.316522 0.391553 0.026381 -0.149435
C57   C     C_2   0.012242 0.655060 0.926972 -0.101812
C58   C     C_2   0.010576 0.664585 0.084032 -0.110373
C59   C     C_2   0.512242 0.155059 0.926972 -0.101812
C60   C     C_2   0.510576 0.164585 0.084032 -0.110373
C61   C     C_2   0.026606 0.567632 0.046477 -0.162681
C62   C     C_2   0.041407 0.573528 0.970578 -0.152346
C63   C     C_2   0.526606 0.067632 0.046477 -0.162681
C64   C     C_2   0.541407 0.073528 0.970578 -0.152346
C65   C     C_R   0.027465 0.654929 0.646558 0.528663
C66   C     C_R   0.972575 0.654904 0.353395 0.526755
C67   C     C_R   0.527465 0.154929 0.646558 0.528664
C68   C     C_R   0.472575 0.154904 0.353395 0.526755
C69   C     C_R   0.239417 0.464104 0.849479 0.548332
C70   C     C_R   0.760521 0.464168 0.150587 0.551368
C71   C     C_R   0.739417 0.964104 0.849479 0.548332
C72   C     C_R   0.260521 0.964168 0.150587 0.551368
C73   C     C_R   0.225799 0.869217 0.854596 0.549237
C74   C     C_R   0.774090 0.869688 0.145521 0.549315
C75   C     C_R   0.725799 0.369217 0.854596 0.549237
C76   C     C_R   0.274090 0.369688 0.145521 0.549315
C77   C     C_R   0.032443 0.651253 0.852453 0.543802
C78   C     C_R   0.971743 0.652666 0.150365 0.546432
C79   C     C_R   0.532443 0.151253 0.852453 0.543802
C80   C     C_R   0.471743 0.152666 0.150365 0.546432
C81   C     C_2   0.250024 0.915941 0.578468 -0.114935
C82   C     C_2   0.749927 0.915722 0.421435 -0.114655
C83   C     C_2   0.750024 0.415942 0.578469 -0.114937
C84   C     C_2   0.249926 0.415722 0.421434 -0.114655
C85   C     C_2   0.242920 0.908171 0.419255 -0.130263
C86   C     C_2   0.757082 0.908634 0.580758 -0.130380
C87   C     C_2   0.742921 0.408170 0.419255 -0.130261
C88   C     C_2   0.257082 0.408633 0.580758 -0.130381
C89   C     C_2   0.293937 0.866349 0.460391 -0.149967
C90   C     C_2   0.706159 0.866132 0.539787 -0.150148
C91   C     C_2   0.793938 0.366351 0.460391 -0.149964
C92   C     C_2   0.206159 0.366132 0.539787 -0.150147
Cr1   Cr    Cr6+3 0.113970 0.508630 0.747920 1.039395
Cr2   Cr    Cr6+3 0.886030 0.508630 0.252080 1.041233
Cr3   Cr    Cr6+3 0.613970 0.008630 0.747920 1.039394
Cr4   Cr    Cr6+3 0.386030 0.008630 0.252080 1.041233
Cr5   Cr    Cr6+3 0.269200 0.666740 0.749850 1.069539
Cr6   Cr    Cr6+3 0.730800 0.666740 0.250150 1.067419
Cr7   Cr    Cr6+3 0.769200 0.166740 0.749850 1.069539
Cr8   Cr    Cr6+3 0.230800 0.166740 0.250150 1.067420
Cr9   Cr    Cr6+3 0.112300 0.820070 0.749800 1.027033
Cr10  Cr    Cr6+3 0.887700 0.820070 0.250200 1.025529
Cr11  Cr    Cr6+3 0.612300 0.320070 0.749800 1.027033
Cr12  Cr    Cr6+3 0.387700 0.320070 0.250200 1.025529
H1    H     H_    0.347849 0.860627 0.441436 0.202117
H2    H     H_    0.652312 0.859676 0.558881 0.202077
H3    H     H_    0.847851 0.360633 0.441437 0.202115
H4    H     H_    0.152312 0.359680 0.558879 0.202076
H5    H     H_    0.130476 0.875607 0.953826 0.154610
H6    H     H_    0.869331 0.875770 0.046332 0.151110
H7    H     H_    0.630476 0.375608 0.953826 0.154610
H8    H     H_    0.369331 0.375770 0.046332 0.151110
H9    H     H_    0.290411 0.847038 0.062667 0.111579
H10   H     H_    0.709227 0.847417 0.937845 0.105324
H11   H     H_    0.790411 0.347038 0.062667 0.111579
H12   H     H_    0.209227 0.347417 0.937845 0.105323
H13   H     H_    0.292247 0.910184 0.947009 0.097411
H14   H     H_    0.707659 0.911524 0.053152 0.089736
H15   H     H_    0.792246 0.410184 0.947009 0.097411
H16   H     H_    0.207659 0.411523 0.053152 0.089736
H17   H     H_    0.024125 0.479345 0.070244 0.158052
H18   H     H_    0.074308 0.502558 0.949447 0.155089
H19   H     H_    0.524125 0.979345 0.070244 0.158052
H20   H     H_    0.574308 0.002558 0.949447 0.155089
H21   H     H_    0.016865 0.753101 0.061247 0.097531
H22   H     H_    0.979673 0.727445 0.946573 0.087764
H23   H     H_    0.516865 0.253100 0.061247 0.097531
H24   H     H_    0.479673 0.227445 0.946573 0.087764
H25   H     H_    0.287927 0.745413 0.551164 0.192228
H26   H     H_    0.712211 0.745060 0.449330 0.191791
H27   H     H_    0.787929 0.245415 0.551164 0.192230
H28   H     H_    0.212214 0.245060 0.449330 0.191789
H29   H     H_    0.189209 0.913378 0.439447 0.114799
H30   H     H_    0.810755 0.914383 0.560491 0.114801
H31   H     H_    0.689209 0.413375 0.439447 0.114798
H32   H     H_    0.310756 0.414381 0.560492 0.114802
H33   H     H_    0.236150 0.004921 0.560377 0.112385
H34   H     H_    0.763727 0.004802 0.439232 0.112301
H35   H     H_    0.736149 0.504921 0.560377 0.112386
H36   H     H_    0.263725 0.504803 0.439231 0.112300
H37   H     H_    0.999665 0.064513 0.431660 0.209286
H38   H     H_    0.999858 0.064137 0.567512 0.209933
H39   H     H_    0.499664 0.564513 0.431660 0.209287
H40   H     H_    0.499857 0.564137 0.567512 0.209932
H41   H     H_    0.024095 0.886250 0.369971 0.141899
H42   H     H_    0.975808 0.885692 0.629447 0.142449
H43   H     H_    0.524095 0.386250 0.369972 0.141899
H44   H     H_    0.475808 0.385692 0.629447 0.142449
H45   H     H_    0.064361 0.453737 0.384824 0.158371
H46   H     H_    0.935847 0.453232 0.615357 0.159061
H47   H     H_    0.564360 0.953736 0.384825 0.158371
H48   H     H_    0.435846 0.953232 0.615358 0.159060
H49   H     H_    0.143935 0.962844 0.073651 0.155068
H50   H     H_    0.856012 0.962582 0.926204 0.156285
H51   H     H_    0.643935 0.462844 0.073651 0.155068
H52   H     H_    0.356012 0.462582 0.926204 0.156285
O1    O     O_R   0.043230 0.549300 0.667990 -0.507860
O2    O     O_R   0.956770 0.549300 0.332010 -0.509454
O3    O     O_R   0.543230 0.049300 0.667990 -0.507860
O4    O     O_R   0.456770 0.049300 0.332010 -0.509454
O5    O     O_R   0.262920 0.788600 0.824420 -0.493516
O6    O     O_R   0.737080 0.788600 0.175580 -0.495027
O7    O     O_R   0.762920 0.288600 0.824420 -0.493516
O8    O     O_R   0.237080 0.288600 0.175580 -0.495027
O9    O     O_R   0.167530 0.905110 0.830340 -0.514311
O10   O     O_R   0.832470 0.905110 0.169660 -0.514072
O11   O     O_R   0.667530 0.405110 0.830340 -0.514311
O12   O     O_R   0.332470 0.405110 0.169660 -0.514072
O13   O     O_R   0.054010 0.748440 0.822860 -0.506195
O14   O     O_R   0.945990 0.748440 0.177140 -0.509451
O15   O     O_R   0.554010 0.248440 0.822860 -0.506195
O16   O     O_R   0.445990 0.248440 0.177140 -0.509451
O17   O     O_3   0.165160 0.665150 0.749190 -0.266097
O18   O     O_3   0.834840 0.665150 0.250810 -0.263754
O19   O     O_3   0.665160 0.165150 0.749190 -0.266097
O20   O     O_3   0.334840 0.165150 0.250810 -0.263754
O21   O     O_R   0.178620 0.457600 0.674100 -0.492030
O22   O     O_R   0.821380 0.457600 0.325900 -0.492672
O23   O     O_R   0.678620 0.957600 0.674100 -0.492031
O24   O     O_R   0.321380 0.957600 0.325900 -0.492672
O25   O     O_R   0.284680 0.542100 0.669460 -0.498983
O26   O     O_R   0.715320 0.542100 0.330540 -0.499540
O27   O     O_R   0.784680 0.042100 0.669460 -0.498983
O28   O     O_R   0.215320 0.042100 0.330540 -0.499539
O29   O     O_R   0.262860 0.790390 0.676650 -0.473847
O30   O     O_R   0.737140 0.790390 0.323350 -0.473934
O31   O     O_R   0.762860 0.290390 0.676650 -0.473849
O32   O     O_R   0.237140 0.290390 0.323350 -0.473933
O33   O     O_R   0.167460 0.907030 0.670940 -0.501219
O34   O     O_R   0.832540 0.907030 0.329060 -0.501688
O35   O     O_R   0.667460 0.407030 0.670940 -0.501219
O36   O     O_R   0.332540 0.407030 0.329060 -0.501688
O37   O     O_R   0.053950 0.750220 0.675100 -0.506625
O38   O     O_R   0.946050 0.750220 0.324900 -0.507817
O39   O     O_R   0.553950 0.250220 0.675100 -0.506625
O40   O     O_R   0.446050 0.250220 0.324900 -0.507817
O41   O     O_R   0.043300 0.547370 0.827390 -0.509593
O42   O     O_R   0.956700 0.547370 0.172610 -0.509436
O43   O     O_R   0.543300 0.047370 0.827390 -0.509593
O44   O     O_R   0.456700 0.047370 0.172610 -0.509436
O45   O     O_R   0.178690 0.455820 0.821860 -0.505891
O46   O     O_R   0.821310 0.455820 0.178140 -0.498013
O47   O     O_R   0.678690 0.955820 0.821860 -0.505891
O48   O     O_R   0.321310 0.955820 0.178140 -0.498013
O49   O     O_R   0.284750 0.540170 0.828860 -0.511162
O50   O     O_R   0.715250 0.540170 0.171140 -0.513471
O51   O     O_R   0.784750 0.040170 0.828860 -0.511162
O52   O     O_R   0.215250 0.040170 0.171140 -0.513471
C93   C     C_2   0.933521 0.243322 0.550150 0.519001
O53   O     O_2   0.918619 0.224155 0.612752 -0.529530
O54   O     O_R   0.903921 0.173872 0.496259 -0.749798
H53   H     H_    0.872489 0.108108 0.515514 0.326592
C94   C     C_2   0.066447 0.243434 0.450185 0.519420
O55   O     O_2   0.081331 0.224791 0.387578 -0.530670
O56   O     O_R   0.095963 0.173493 0.504043 -0.749513
H54   H     H_    0.127251 0.107797 0.484756 0.326763
C95   C     C_2   0.433520 0.743323 0.550151 0.519001
O57   O     O_2   0.418616 0.724156 0.612752 -0.529530
O58   O     O_R   0.403920 0.673872 0.496259 -0.749799
H55   H     H_    0.372489 0.608108 0.515514 0.326593
C96   C     C_2   0.566446 0.743433 0.450185 0.519419
O59   O     O_2   0.581330 0.724791 0.387579 -0.530671
O60   O     O_R   0.595962 0.673493 0.504044 -0.749515
H56   H     H_    0.627250 0.607797 0.484757 0.326763

loop_
_geom_bond_atom_site_label_1
_geom_bond_atom_site_label_2
_ccdc_geom_bond_type
C70   O46   A    
C7    C83   D    
Cr10  O14   S    
Cr1   O17   S    
C6    C82   D    
C87   C91   D    
C20   H40   S    
Cr9   O17   S    
C35   C36   A    
C13   H41   S    
C6    H26   S    
C43   C51   D    
Cr7   O31   S    
Cr8   O52   S    
C57   C62   D    
Cr12  O20   S    
C94   O55   D    
Cr11  O11   S    
C12   C23   A    
C51   H51   S    
C59   C64   D    
C50   C54   S    
Cr11  O39   S    
C60   C63   D    
Cr3   O3    S    
C32   C36   A    
C14   C21   A    
C17   H37   S    
Cr8   O32   S    
C46   O34   A    
C15   C19   A    
Cr9   O33   S    
C2    O26   A    
Cr6   O18   S    
C49   C53   S    
C9    C22   A    
Cr5   O29   S    
Cr3   O47   S    
Cr12  O36   S    
C29   C33   A    
C11   C24   A    
C78   O14   A    
C54   H6    S    
C61   H17   S    
Cr2   O22   S    
C79   O15   A    
Cr3   O19   S    
C9    C66   S    
C42   C71   S    
C3    O23   A    
C82   H34   S    
C43   H11   S    
C29   H46   S    
C46   C82   S    
C33   C93   S    
C92   H4    S    
C39   C55   D    
C88   C92   D    
Cr9   O37   S    
C43   C70   S    
C40   C56   D    
O58   H55   S    
C17   C18   A    
Cr8   O20   S    
C73   O5    A    
C23   C24   A    
Cr9   O13   S    
C8    C92   S    
C39   C75   S    
Cr1   O45   S    
C95   O58   S    
Cr7   O27   S    
C72   O48   A    
C37   C53   D    
C69   O49   A    
C44   C52   D    
C1    C88   S    
C5    H25   S    
Cr10  O10   S    
C96   O60   S    
C21   C22   A    
C3    C86   S    
Cr11  O15   S    
C61   C62   S    
C1    O21   A    
C4    O24   A    
C67   O39   A    
C35   C95   S    
C41   C49   D    
Cr6   O6    S    
C86   H30   S    
C9    C26   A    
Cr4   O48   S    
C65   O37   A    
C94   O56   S    
C10   C21   A    
C25   C29   A    
C69   O45   A    
C12   C67   S    
Cr5   O17   S    
C30   C34   A    
C12   C27   A    
C27   C31   A    
Cr5   O25   S    
C87   H31   S    
C18   H38   S    
C79   O43   A    
C88   H32   S    
C74   O10   A    
C72   O52   A    
C86   C90   D    
C59   C79   S    
C57   H22   S    
C74   O6    A    
Cr1   O21   S    
Cr3   O23   S    
C30   H45   S    
C4    C85   S    
C51   C55   S    
C25   C26   A    
C64   H20   S    
C4    O28   A    
O60   H56   S    
C48   C84   S    
Cr7   O51   S    
Cr2   O42   S    
Cr6   O26   S    
C71   O47   A    
O56   H54   S    
Cr8   O8    S    
C8    H28   S    
C96   O59   D    
C93   O54   S    
C57   C77   S    
Cr12  O12   S    
C5    C81   D    
O54   H53   S    
C38   C54   D    
C28   C32   A    
C16   C20   A    
C7    C91   S    
C59   H24   S    
Cr11  O19   S    
C93   O53   D    
Cr12  O40   S    
Cr7   O19   S    
C2    C87   S    
C68   O40   A    
C46   O30   A    
Cr1   O1    S    
C66   O2    A    
C90   H2    S    
C42   C50   D    
C41   C72   S    
Cr2   O46   S    
C50   H50   S    
C10   C25   A    
C65   O1    A    
C15   C24   A    
C40   H16   S    
C73   O9    A    
Cr2   O18   S    
C26   C30   A    
C16   C23   A    
C85   C89   D    
C83   H35   S    
Cr7   O7    S    
C42   H10   S    
C76   O8    A    
Cr11  O35   S    
C80   O16   A    
C47   O31   A    
C68   O4    A    
Cr12  O16   S    
C62   H18   S    
C11   C68   S    
C67   O3    A    
C38   C74   S    
C10   C65   S    
C49   H49   S    
Cr4   O44   S    
C77   O13   A    
C37   C73   S    
C60   C80   S    
C1    O25   A    
Cr4   O20   S    
C55   H7    S    
C8    C84   D    
C7    H27   S    
C14   C18   A    
C60   H23   S    
C45   C81   S    
C41   H9    S    
C47   C83   S    
C34   C94   S    
Cr2   O2    S    
C63   H19   S    
C48   O32   A    
Cr10  O18   S    
C70   O50   A    
C78   O42   A    
C14   H42   S    
Cr5   O5    S    
C13   C17   A    
C3    O27   A    
C16   H44   S    
Cr4   O24   S    
C19   C20   A    
Cr4   O4    S    
C95   O57   D    
Cr6   O30   S    
C6    C90   S    
Cr9   O9    S    
C15   H43   S    
C31   H48   S    
C45   O29   A    
C32   H47   S    
C75   O7    A    
C11   C28   A    
C58   C61   D    
C39   H15   S    
Cr1   O41   S    
C71   O51   A    
C75   O11   A    
Cr10  O34   S    
C33   C34   A    
C13   C22   A    
C76   O12   A    
C31   C35   A    
C47   O35   A    
C52   H52   S    
Cr8   O28   S    
C19   H39   S    
C48   O36   A    
C58   C78   S    
C63   C64   S    
C38   H14   S    
Cr10  O38   S    
C40   C76   S    
C37   H13   S    
C44   H12   S    
C58   H21   S    
Cr3   O43   S    
C89   H1    S    
C84   H36   S    
C81   H33   S    
C45   O33   A    
C44   C69   S    
Cr6   O50   S    
C53   H5    S    
C2    O22   A    
Cr5   O49   S    
C66   O38   A    
C77   O41   A    
C36   C96   S    
C56   H8    S    
C5    C89   S    
C52   C56   S    
C85   H29   S    
C27   C28   A    
C91   H3    S    
C80   O44   A    
