data_mof_unit_56908.cif
_audit_creation_date              2013-03-05T15:48:44-0500
_audit_creation_method            fapswitch 2.2
_symmetry_space_group_name_H-M    P1
_symmetry_Int_Tables_number       1
_space_group_crystal_system       triclinic
_cell_length_a                    22.305814
_cell_length_b                    6.935644
_cell_length_c                    19.591006
_cell_angle_alpha                 90.004027
_cell_angle_beta                  98.598039
_cell_angle_gamma                 90.001681
_cell_volume                      2996.76820841

loop_
_atom_site_label
_atom_site_type_symbol
_atom_site_description
_atom_site_fract_x
_atom_site_fract_y
_atom_site_fract_z
_atom_type_partial_charge
O1    O     O_R   0.448420 0.506120 0.415750 -0.592342
O2    O     O_R   0.551580 0.006120 0.584250 -0.592379
O3    O     O_R   0.436490 0.174470 0.555610 -0.570900
O4    O     O_R   0.563510 0.674470 0.444390 -0.570780
C1    C     C_R   0.423470 0.344160 0.578578 1.046420
C2    C     C_R   0.576534 0.844154 0.421427 1.046399
O5    O     O_R   0.441310 0.176330 0.414520 -0.587200
O6    O     O_R   0.558690 0.676330 0.585480 -0.587130
O7    O     O_R   0.556430 0.007110 0.442150 -0.581968
O8    O     O_R   0.443570 0.507110 0.557850 -0.581831
C3    C     C_R   0.424691 0.345770 0.390286 0.993535
C4    C     C_R   0.575308 0.845788 0.609714 0.993486
O9    O     O_3   0.537770 0.339560 0.509230 -0.260406
O10   O     O_3   0.462230 0.839560 0.490770 -0.260361
V1    V     V_3+5 0.492990 0.064280 0.498290 1.275198
V2    V     V_3+5 0.507010 0.564280 0.501710 1.275302
C5    C     C_R   0.876645 0.854747 0.700031 0.288408
C6    C     C_R   0.123346 0.356507 0.300091 0.288415
C7    C     C_R   0.886801 0.933391 0.822055 -0.457679
C8    C     C_R   0.113204 0.433570 0.177946 -0.457850
C9    C     C_R   0.593384 0.831513 0.735639 -0.166678
C10   C     C_R   0.406568 0.330590 0.264374 -0.166593
C11   C     C_R   0.629564 0.825206 0.799605 -0.016759
C12   C     C_R   0.370365 0.323962 0.200426 -0.016755
C13   C     C_R   0.691984 0.848216 0.805145 -0.023650
C14   C     C_R   0.307963 0.347407 0.194889 -0.023740
C15   C     C_R   0.720407 0.885748 0.746706 0.106721
C16   C     C_R   0.279585 0.385743 0.253304 0.106640
C17   C     C_R   0.683805 0.877579 0.679923 -0.089152
C18   C     C_R   0.316203 0.377956 0.320083 -0.089180
C19   C     C_R   0.785053 0.911881 0.752932 -0.072052
C20   C     C_R   0.214955 0.412270 0.247075 -0.072025
C21   C     C_R   0.813128 0.887936 0.693083 -0.249872
C22   C     C_R   0.186886 0.389282 0.306972 -0.249983
C23   C     C_R   0.777190 0.897848 0.627518 0.304527
C24   C     C_R   0.222857 0.399626 0.372509 0.304362
C25   C     C_R   0.713675 0.890354 0.621136 0.193962
C26   C     C_R   0.286364 0.391543 0.378871 0.193966
C27   C     C_R   0.823186 0.958152 0.816421 0.271906
C28   C     C_R   0.176827 0.458061 0.183538 0.271751
C29   C     C_R   0.912836 0.873636 0.764623 0.195336
C30   C     C_R   0.087152 0.374645 0.235466 0.194825
C31   C     C_R   0.618923 0.854553 0.675177 -0.158394
C32   C     C_R   0.381068 0.354437 0.324827 -0.158431
C33   C     C_3   0.799612 0.734667 0.251510 -0.301602
C34   C     C_3   0.200395 0.234603 0.748490 -0.301639
C35   C     C_3   0.784840 0.098380 0.246327 0.159321
C36   C     C_3   0.215138 0.598329 0.753658 0.159292
C37   C     C_3   0.735101 0.082552 0.294412 -0.517467
C38   C     C_3   0.264883 0.582526 0.705577 -0.517428
C39   C     C_1   0.621505 0.854237 0.375028 -0.141956
C40   C     C_1   0.378497 0.354253 0.624973 -0.141968
C41   C     C_3   0.786494 0.910408 0.201532 -0.139248
C42   C     C_3   0.213500 0.410387 0.798461 -0.139219
C43   C     C_3   0.755511 0.730231 0.305547 -0.282061
C44   C     C_3   0.244496 0.230178 0.694454 -0.282141
C45   C     C_3   0.704398 0.881277 0.287556 0.050704
C46   C     C_3   0.295599 0.381280 0.712440 0.050773
C47   C     C_3   0.673312 0.857404 0.210707 0.021120
C48   C     C_3   0.326685 0.357476 0.789289 0.021093
C49   C     C_3   0.720877 0.884158 0.157235 0.341997
C50   C     C_3   0.279119 0.384224 0.842760 0.341996
C51   C     C_1   0.658958 0.865576 0.336056 0.104290
C52   C     C_1   0.341041 0.365590 0.663942 0.104320
C53   C     C_1   0.835312 0.927409 0.157048 0.207327
C54   C     C_1   0.164682 0.427383 0.842946 0.207286
C55   C     C_1   0.874569 0.939376 0.120347 -0.081723
C56   C     C_1   0.125426 0.439359 0.879648 -0.081460
O11   O     O_R   0.056480 0.288780 0.942210 -0.587485
O12   O     O_R   0.943520 0.788780 0.057790 -0.587353
O13   O     O_R   0.058700 0.616820 0.085490 -0.580122
O14   O     O_R   0.941300 0.116820 0.914510 -0.579924
C57   C     C_R   0.073487 0.447674 0.110764 1.139620
C58   C     C_R   0.926513 0.947651 0.889237 1.139126
O15   O     O_R   0.063520 0.618570 0.944410 -0.570466
O16   O     O_R   0.936480 0.118570 0.055590 -0.570393
O17   O     O_R   0.948420 0.787670 0.915740 -0.602321
O18   O     O_R   0.051580 0.287670 0.084260 -0.602320
C59   C     C_R   0.078865 0.449829 0.923945 1.022465
C60   C     C_R   0.921134 0.949833 0.076053 1.021931
O19   O     O_3   0.962260 0.453430 0.990800 -0.272560
O20   O     O_3   0.037740 0.953430 0.009200 -0.272716
V3    V     V_3+5 0.007000 0.728750 0.001710 1.322397
V4    V     V_3+5 0.993000 0.228750 0.998290 1.322501
N1    N     N_R   0.976603 0.831358 0.771805 0.260207
O21   O     O_R   0.994965 0.662673 0.754473 -0.304881
O22   O     O_R   0.016395 0.959947 0.796855 -0.352343
N2    N     N_R   0.023378 0.332412 0.228353 0.260072
O23   O     O_R   0.983581 0.460430 0.202838 -0.353031
O24   O     O_R   0.005008 0.164339 0.246288 -0.303613
H1    H     H_    0.847152 0.737839 0.278247 0.250347
H2    H     H_    0.152854 0.237718 0.721754 0.250345
H3    H     H_    0.772180 0.221650 0.210696 0.147038
H4    H     H_    0.227782 0.721639 0.789282 0.146957
N3    N     N_R   0.844326 0.144351 0.286204 0.266288
O25   O     O_R   0.866222 0.045264 0.340674 -0.279950
O26   O     O_R   0.873810 0.295397 0.270063 -0.306678
N4    N     N_R   0.155648 0.644196 0.713773 0.266311
O27   O     O_R   0.133773 0.545076 0.659297 -0.279882
O28   O     O_R   0.126134 0.795169 0.729922 -0.306569
H5    H     H_    0.754669 0.109840 0.349211 0.255159
H6    H     H_    0.245317 0.609775 0.650777 0.255235
H7    H     H_    0.700310 0.196301 0.280463 0.207511
H8    H     H_    0.299664 0.696312 0.719529 0.207461
N5    N     N_R   0.717467 0.717066 0.109571 0.279603
O29   O     O_R   0.764887 0.615204 0.101402 -0.352684
O30   O     O_R   0.667741 0.688662 0.066695 -0.237117
N6    N     N_R   0.282540 0.217165 0.890431 0.279639
O31   O     O_R   0.235126 0.115272 0.898605 -0.352652
O32   O     O_R   0.332268 0.188827 0.933307 -0.237075
N7    N     N_R   0.706857 0.057397 0.113160 0.229586
O33   O     O_R   0.737611 0.089886 0.062853 -0.286783
O34   O     O_R   0.661872 0.172225 0.119451 -0.296177
N8    N     N_R   0.293126 0.557504 0.886827 0.229594
O35   O     O_R   0.262368 0.590001 0.937132 -0.286683
O36   O     O_R   0.338108 0.672351 0.880538 -0.296161
N9    N     N_R   0.639193 0.675189 0.200965 0.271240
O37   O     O_R   0.580405 0.679058 0.185419 -0.325732
O38   O     O_R   0.666566 0.509184 0.206996 -0.370748
N10   N     N_R   0.360816 0.175293 0.799038 0.271234
O39   O     O_R   0.419604 0.179217 0.814585 -0.325793
O40   O     O_R   0.333454 0.009262 0.793011 -0.370711
H9    H     H_    0.795437 0.596601 0.222847 0.229520
H10   H     H_    0.204578 0.096556 0.777159 0.229461
H11   H     H_    0.736979 0.582851 0.309598 0.197973
H12   H     H_    0.263039 0.082813 0.690406 0.197935
N11   N     N_R   0.804613 0.937375 0.567016 0.276148
O41   O     O_R   0.795967 0.822883 0.513830 -0.268156
O42   O     O_R   0.836544 0.093401 0.564168 -0.267318
N12   N     N_R   0.195495 0.440067 0.432986 0.276166
O43   O     O_R   0.204060 0.326032 0.486296 -0.268154
O44   O     O_R   0.163747 0.596534 0.435698 -0.267601
H13   H     H_    0.638698 0.973205 0.203078 0.155760
H14   H     H_    0.361293 0.473308 0.796915 0.155769
N13   N     N_R   0.904159 0.784495 0.643083 0.278749
O45   O     O_R   0.886445 0.621315 0.614048 -0.263083
O46   O     O_R   0.951045 0.871880 0.625178 -0.199865
N14   N     N_R   0.095789 0.287536 0.357183 0.278834
O47   O     O_R   0.113283 0.124458 0.386437 -0.262461
O48   O     O_R   0.049057 0.375987 0.375010 -0.200156
N15   N     N_R   0.798855 0.051327 0.871890 0.229713
O49   O     O_R   0.812750 0.990929 0.935171 -0.397742
O50   O     O_R   0.762940 0.199012 0.859118 -0.344293
N16   N     N_R   0.201181 0.550553 0.127954 0.229668
O51   O     O_R   0.187247 0.489607 0.064741 -0.397948
O52   O     O_R   0.237161 0.698153 0.140552 -0.344103
H15   H     H_    0.544856 0.812412 0.733100 0.137077
H16   H     H_    0.455079 0.311092 0.266912 0.137016
H17   H     H_    0.717567 0.826028 0.855701 0.177205
H18   H     H_    0.282351 0.324907 0.144365 0.177227
H19   H     H_    0.609096 0.798570 0.845463 0.176265
H20   H     H_    0.390799 0.296705 0.154585 0.176250
N17   N     N_R   0.680731 0.885125 0.553290 0.207184
O53   O     O_R   0.674366 0.044223 0.517791 -0.382289
O54   O     O_R   0.676400 0.720359 0.521257 -0.384124
N18   N     N_R   0.319315 0.386284 0.446712 0.207234
O55   O     O_R   0.325795 0.545430 0.482185 -0.381954
O56   O     O_R   0.323527 0.221574 0.478772 -0.384497
H21   H     H_    0.781190 0.762457 0.357476 0.246484
H22   H     H_    0.218815 0.262354 0.642523 0.246484

loop_
_geom_bond_atom_site_label_1
_geom_bond_atom_site_label_2
_geom_bond_distance
_ccdc_geom_bond_type
C54   C56   1.216088 T    
C38   H8    1.111736 S    
C15   C17   1.436011 A    
N12   O44   1.301259 A    
N3    O25   1.301474 A    
O1    C3    1.298765 A    
C26   N18   1.419827 S    
O2    C4    1.298739 A    
O16   V4    1.963863 S    
C2    O7    1.302948 A    
N8    O35   1.301886 A    
O3    V1    1.963795 S    
N13   O45   1.301245 A    
C35   C37   1.562994 S    
N1    O21   1.301293 A    
C33   H9    1.106911 S    
O5    C3    1.300513 A    
N5    O30   1.302314 A    
C42   C54   1.497639 S    
C36   H4    1.113152 S    
C9    H15   1.084261 S    
C10   C12   1.386080 A    
C48   C50   1.609295 S    
N18   O55   1.300780 A    
C23   C25   1.404468 A    
C12   C14   1.389441 A    
C50   N8    1.485413 S    
C4    C31   1.490588 S    
C6    C30   1.401761 A    
C37   H5    1.112980 S    
C8    C28   1.417181 A    
C45   C47   1.569294 S    
C50   N6    1.483022 S    
O17   V3    2.013241 S    
C46   C48   1.569290 S    
C37   C45   1.551839 S    
N6    O31   1.301604 A    
C18   C26   1.416887 A    
C13   H17   1.077651 S    
C6    N14   1.436426 S    
O20   V4    2.150413 S    
C12   H20   1.082768 S    
C9    C31   1.398176 A    
C41   C49   1.596469 S    
N18   O56   1.300305 A    
C10   C32   1.398184 A    
C43   H11   1.109866 S    
N6    O32   1.302319 A    
C53   C55   1.216091 T    
C58   O17   1.289871 A    
C5    N13   1.436483 S    
C57   O18   1.289928 A    
C19   C21   1.419170 A    
C1    C40   1.452591 S    
C44   H12   1.109864 S    
C2    C39   1.452598 S    
N17   O54   1.300313 A    
C41   C53   1.497650 S    
C35   C41   1.575009 S    
C56   C59   1.451402 S    
C43   H21   1.113003 S    
C33   C41   1.563479 S    
C47   N9    1.472836 S    
C17   C31   1.445150 A    
C18   C32   1.445157 A    
C34   H10   1.106916 S    
C5    C21   1.421686 A    
O19   V3    2.150334 S    
N10   O40   1.300330 A    
C45   C51   1.493305 S    
O13   V3    2.015143 S    
N1    O22   1.301420 A    
C46   C52   1.493303 S    
C36   C38   1.562996 S    
C47   C49   1.609296 S    
O12   C60   1.295555 A    
C38   C46   1.551842 S    
C25   N17   1.419851 S    
C14   H18   1.077657 S    
C39   C51   1.215643 T    
N16   O52   1.301421 A    
C40   C52   1.215640 T    
O13   C57   1.296722 A    
C42   C50   1.596466 S    
C44   C46   1.549697 S    
C15   C19   1.440282 A    
C47   H13   1.108646 S    
N15   O50   1.301429 A    
C20   C22   1.419174 A    
O4    V2    1.963829 S    
C36   C42   1.575003 S    
N11   O42   1.301258 A    
C43   C45   1.549686 S    
O2    V1    2.012151 S    
C24   N12   1.439126 S    
C8    C30   1.403722 A    
O9    V1    2.150507 S    
C16   C20   1.440303 A    
O6    C4    1.300545 A    
C34   C42   1.563482 S    
C35   H3    1.113153 S    
C7    C29   1.403681 A    
C3    C32   1.490612 S    
N7    O34   1.301287 A    
O1    V2    2.012087 S    
C23   N11   1.439128 S    
O12   V3    1.962272 S    
C6    C22   1.421767 A    
O14   V4    2.015028 S    
C7    C27   1.417171 A    
C27   N15   1.438513 S    
O14   C58   1.296778 A    
N2    O24   1.301255 A    
C38   H6    1.112981 S    
N4    O28   1.300840 A    
C9    C11   1.386091 A    
O10   V2    2.150586 S    
O11   C59   1.295543 A    
O4    C2    1.308027 A    
C30   N2    1.438590 S    
C17   C25   1.416903 A    
C24   C26   1.404474 A    
C49   N7    1.485416 S    
C48   H14   1.108645 S    
O19   V4    1.700000 S    
C49   N5    1.483023 S    
N10   O39   1.301397 A    
N13   O46   1.301449 A    
C11   H19   1.082770 S    
N7    O33   1.301871 A    
C7    C58   1.475833 S    
C55   C60   1.451413 S    
O16   C60   1.299447 A    
C10   H16   1.084234 S    
N16   O51   1.301440 A    
O3    C1    1.308026 A    
C37   H7    1.111731 S    
N8    O36   1.301276 A    
N3    O26   1.300840 A    
N14   O48   1.301455 A    
C13   C15   1.413355 A    
C29   N1    1.438441 S    
N5    O29   1.301612 A    
C14   C16   1.413366 A    
C28   N16   1.438527 S    
N9    O38   1.300329 A    
N12   O43   1.301256 A    
O7    V1    1.958227 S    
C16   C18   1.436020 A    
C44   H22   1.113001 S    
O11   V4    1.962286 S    
O8    V2    1.958239 S    
N15   O49   1.301425 A    
O15   V3    1.963829 S    
O5    V1    2.015121 S    
C21   C23   1.410445 A    
C19   C27   1.434277 A    
C8    C57   1.475831 S    
C48   N10   1.472841 S    
C22   C24   1.410471 A    
C36   N4    1.470597 S    
C20   C28   1.434262 A    
C33   H1    1.110520 S    
C5    C29   1.401661 A    
N14   O47   1.301253 A    
O18   V4    2.013179 S    
C1    O8    1.302940 A    
C11   C13   1.389453 A    
C34   H2    1.110519 S    
N2    O23   1.301398 A    
C33   C43   1.549420 S    
O6    V2    2.015006 S    
N4    O27   1.301476 A    
O9    V2    1.700444 S    
C34   C44   1.549431 S    
C35   N3    1.470592 S    
O10   V1    1.700389 S    
O20   V3    1.699944 S    
N17   O53   1.300774 A    
N9    O37   1.301397 A    
O15   C59   1.299443 A    
N11   O41   1.301247 A    
