data_mof_unit_50718.cif
_audit_creation_date              2012-12-10T16:50:01-0500
_audit_creation_method            fapswitch 2.2
_symmetry_space_group_name_H-M    P1
_symmetry_Int_Tables_number       1
_space_group_crystal_system       triclinic
_cell_length_a                    7.795615
_cell_length_b                    8.599198
_cell_length_c                    10.62435
_cell_angle_alpha                 90.737112
_cell_angle_beta                  85.752365
_cell_angle_gamma                 93.303458
_cell_volume                      709.051398605

loop_
_atom_site_label
_atom_site_type_symbol
_atom_type_description
_atom_site_fract_x
_atom_site_fract_y
_atom_site_fract_z
_atom_type_partial_charge
C1    C     C_R   0.545399 0.794107 0.501000 0.888186
C2    C     C_R   0.455154 0.205912 0.506234 0.834911
C3    C     C_R   0.499623 0.510649 0.260766 0.924346
C4    C     C_R   0.429148 0.788139 0.865604 -0.108068
C5    C     C_R   0.382696 0.923544 0.928106 -0.158747
C6    C     C_R   0.368183 0.928291 0.058745 -0.231403
C7    C     C_R   0.402144 0.797332 0.129350 0.444902
C8    C     C_R   0.452693 0.657767 0.066068 0.043135
C9    C     C_R   0.462614 0.653928 0.933307 0.019875
C10   C     C_R   0.508939 0.515529 0.870687 -0.023388
C11   C     C_R   0.554903 0.385869 0.933501 -0.184686
C12   C     C_R   0.549606 0.388935 0.062089 -0.219615
C13   C     C_R   0.497185 0.521187 0.128039 -0.066461
C14   C     C_2   0.570082 0.956601 0.501139 0.287881
C15   C     C_2   0.432173 0.043904 0.518057 0.243019
C16   C     C_R   0.502200 0.500782 0.739163 0.800289
F1    F     F_    0.969733 0.640968 0.612830 -0.510010
F2    F     F_    0.735399 0.015814 0.477282 -0.607617
F3    F     F_    0.267857 0.984604 0.546467 -0.597976
H1    H     H_    0.591072 0.280997 0.882807 0.152004
H2    H     H_    0.440762 0.790599 0.763736 0.146378
H3    H     H_    0.357808 0.025385 0.874891 0.170942
H4    H     H_    0.331121 0.035309 0.105379 0.148679
H5    H     H_    0.584105 0.286401 0.110890 0.153803
H6    H     H_    0.340807 0.907276 0.285883 0.346315
H7    H     H_    0.936748 0.303930 0.343026 0.363043
N1    N     N_2   0.950330 0.457950 0.466250 0.168041
N2    N     N_2   0.049670 0.542050 0.533750 0.304169
O1    O     O_R   0.389250 0.738570 0.508280 -0.550616
O2    O     O_3   0.030479 0.358897 0.386978 -0.631242
O3    O     O_R   0.678390 0.711630 0.486650 -0.535823
O4    O     O_R   0.355400 0.513470 0.694050 -0.613678
O5    O     O_R   0.644540 0.486530 0.672420 -0.579270
O6    O     O_R   0.321610 0.288370 0.513350 -0.544153
O7    O     O_R   0.610750 0.261430 0.491720 -0.600322
O8    O     O_R   0.355460 0.513470 0.327580 -0.548889
O9    O     O_R   0.644600 0.486530 0.305950 -0.648637
O10   O     O_3   0.385809 0.805657 0.258880 -0.774146
Zn1   Zn    Zn3+2 0.306930 0.517990 0.514440 1.174005
Zn2   Zn    Zn3+2 0.693070 0.482010 0.485560 1.120824

loop_
_geom_bond_atom_site_label_1
_geom_bond_atom_site_label_2
_ccdc_geom_bond_type
C2    O7    A    
C11   C12   A    
C6    C7    A    
C2    C15   S    
H6    O10   S    
C16   O4    A    
C9    C10   A    
C14   F2    S    
C3    C13   S    
N1    Zn2   S    
C2    O6    A    
C1    O1    A    
O7    Zn2   S    
C7    C8    A    
C10   C16   S    
C12   C13   A    
N1    O2    S    
C15   F3    S    
C4    H2    S    
O1    Zn1   S    
C8    C13   A    
C3    O8    A    
C6    H4    S    
C7    O10   S    
H7    O2    S    
O9    Zn2   S    
C5    C6    A    
C16   O5    A    
C11   H1    S    
O5    Zn2   S    
C10   C11   A    
O6    Zn1   S    
C1    O3    A    
O3    Zn2   S    
C3    O9    A    
O4    Zn1   S    
N1    N2    D    
C12   H5    S    
C14   C15   D    
C8    C9    A    
C1    C14   S    
N2    Zn1   S    
C4    C9    A    
F1    N2    S    
O8    Zn1   S    
C5    H3    S    
C4    C5    A    
