data_mof_unit_36235.cif
_audit_creation_date              2012-12-10T20:41:56-0500
_audit_creation_method            fapswitch 2.2
_symmetry_space_group_name_H-M    P1
_symmetry_Int_Tables_number       1
_space_group_crystal_system       triclinic
_cell_length_a                    14.922121
_cell_length_b                    15.362156
_cell_length_c                    9.929672
_cell_angle_alpha                 90.585678
_cell_angle_beta                  90.400887
_cell_angle_gamma                 89.733349
_cell_volume                      2276.03926586

loop_
_atom_site_label
_atom_site_type_symbol
_atom_type_description
_atom_site_fract_x
_atom_site_fract_y
_atom_site_fract_z
_atom_type_partial_charge
C1    C     C_R   0.381396 0.879361 0.499032 0.938109
C2    C     C_R   0.381267 0.120696 0.500443 0.924589
C3    C     C_R   0.881217 0.379295 0.499472 0.927992
C4    C     C_R   0.880327 0.619870 0.500224 0.926058
C5    C     C_3   0.218797 0.148586 0.701600 -0.572073
C6    C     C_3   0.352935 0.729083 0.718399 -0.527094
C7    C     C_3   0.683979 0.619116 0.628406 -0.550614
C8    C     C_3   0.778338 0.294840 0.750687 -0.493275
C9    C     C_R   0.423932 0.018702 0.069730 0.107861
C10   C     C_R   0.922410 0.488705 0.068758 0.082845
C11   C     C_R   0.576967 0.990303 0.074502 -0.148530
C12   C     C_R   0.077482 0.499757 0.075086 -0.155535
C13   C     C_R   0.578077 0.990201 0.931165 0.172952
C14   C     C_R   0.078699 0.497955 0.931826 0.211384
C15   C     C_R   0.424210 0.021225 0.928068 0.058645
C16   C     C_R   0.922584 0.486653 0.927476 0.044086
C17   C     C_3   0.334784 0.978942 0.916489 -0.650716
C18   C     C_3   0.835605 0.533922 0.915201 -0.629531
C19   C     C_3   0.334897 0.973559 0.070482 0.976878
C20   C     C_3   0.835460 0.539229 0.070125 0.979042
C21   C     C_R   0.620019 0.119954 0.499587 0.919057
C22   C     C_R   0.620873 0.881404 0.500056 0.950421
C23   C     C_R   0.118723 0.620972 0.500109 0.917250
C24   C     C_R   0.119287 0.379734 0.498849 0.930872
C25   C     C_R   0.271747 0.209894 0.617582 0.060118
C26   C     C_R   0.329606 0.737676 0.572586 0.126872
C27   C     C_R   0.750413 0.688903 0.597256 0.014910
C28   C     C_R   0.804258 0.261748 0.614148 0.087667
C29   C     C_R   0.321086 0.191802 0.502101 -0.146480
C30   C     C_R   0.318656 0.810861 0.493496 -0.155430
C31   C     C_R   0.818297 0.689418 0.502556 -0.128855
C32   C     C_R   0.822500 0.307053 0.496967 -0.131432
C33   C     C_R   0.308945 0.240631 0.385485 -0.295655
C34   C     C_R   0.248396 0.815376 0.400215 -0.313433
C35   C     C_R   0.830328 0.761385 0.419161 -0.267273
C36   C     C_R   0.784636 0.280886 0.374319 -0.332652
C37   C     C_R   0.767101 0.828375 0.420473 0.492678
C38   C     C_R   0.719520 0.216741 0.370922 0.519791
C39   C     C_R   0.239600 0.300434 0.379217 0.500776
C40   C     C_R   0.183316 0.750688 0.396144 0.491788
C41   C     C_R   0.691370 0.819830 0.502843 -0.195941
C42   C     C_R   0.691909 0.180760 0.495138 -0.176430
C43   C     C_R   0.187665 0.315797 0.495612 -0.195921
C44   C     C_R   0.185799 0.686392 0.496601 -0.178777
C45   C     C_R   0.687233 0.753536 0.596580 -0.054942
C46   C     C_R   0.739129 0.199525 0.613222 -0.070660
C47   C     C_R   0.204000 0.270073 0.612565 -0.047034
C48   C     C_R   0.261899 0.677789 0.577133 -0.084203
C49   C     C_3   0.613257 0.691662 0.629328 0.424224
C50   C     C_3   0.706123 0.225432 0.749970 0.405652
C51   C     C_3   0.141142 0.212809 0.688990 0.429995
C52   C     C_3   0.274846 0.665774 0.725280 0.383566
H1    H     H_    0.348320 0.228181 0.295938 0.199322
H2    H     H_    0.241217 0.871487 0.336529 0.215096
H3    H     H_    0.887415 0.765057 0.352777 0.191971
H4    H     H_    0.799712 0.315232 0.282659 0.209272
H5    H     H_    0.587221 0.704657 0.732215 0.070698
H6    H     H_    0.716594 0.172360 0.824207 0.038713
H7    H     H_    0.122341 0.240865 0.788004 0.081656
H8    H     H_    0.298789 0.598853 0.746899 0.076744
H9    H     H_    0.245893 0.148860 0.805787 0.177138
H10   H     H_    0.418765 0.696448 0.733002 0.189754
H11   H     H_    0.695403 0.591673 0.730035 0.168676
H12   H     H_    0.831636 0.283278 0.827289 0.164700
H13   H     H_    0.210886 0.082920 0.655736 0.192099
H14   H     H_    0.346150 0.789619 0.776755 0.197470
H15   H     H_    0.679269 0.568896 0.547663 0.201719
H16   H     H_    0.751507 0.362413 0.748155 0.214846
H17   H     H_    0.638481 0.981259 0.131252 0.195787
H18   H     H_    0.139427 0.502224 0.132380 0.185962
H19   H     H_    0.282834 0.022850 0.876701 0.192066
H20   H     H_    0.336505 0.916467 0.862210 0.189685
H21   H     H_    0.840734 0.597267 0.863216 0.212166
H22   H     H_    0.783073 0.490657 0.872505 0.183802
N1    N     N_R   0.499140 0.000000 0.142800 -0.144265
N2    N     N_R   0.999140 0.500000 0.142800 -0.150904
N3    N     N_R   0.499160 0.000000 0.857150 -0.111204
N4    N     N_R   0.999160 0.500000 0.857150 -0.111387
O1    O     O_R   0.408400 0.908380 0.614690 -0.631558
O2    O     O_R   0.408400 0.091620 0.614690 -0.600153
O3    O     O_R   0.908400 0.408380 0.614690 -0.607367
O4    O     O_R   0.908400 0.591620 0.614690 -0.624962
O5    O     O_R   0.408370 0.908370 0.385350 -0.587600
O6    O     O_R   0.408370 0.091630 0.385350 -0.608780
O7    O     O_R   0.908370 0.408370 0.385350 -0.619000
O8    O     O_R   0.908370 0.591630 0.385350 -0.580416
O9    O     O_R   0.591610 0.091610 0.614650 -0.631996
O10   O     O_R   0.591610 0.908390 0.614650 -0.642868
O11   O     O_R   0.091610 0.591610 0.614650 -0.618059
O12   O     O_R   0.091610 0.408390 0.614650 -0.636391
O13   O     O_R   0.591590 0.091600 0.385310 -0.564268
O14   O     O_R   0.591590 0.908400 0.385310 -0.601998
O15   O     O_R   0.091590 0.591600 0.385310 -0.608607
O16   O     O_R   0.091590 0.408400 0.385310 -0.580672
Zn1   Zn    Zn3+2 0.500010 0.000000 0.653130 0.945654
Zn2   Zn    Zn3+2 0.000010 0.500000 0.653130 0.956821
Zn3   Zn    Zn3+2 0.499980 0.000000 0.346870 1.003973
Zn4   Zn    Zn3+2 0.999980 0.500000 0.346870 0.985663
O17   O     O_3   0.270411 0.029174 0.131149 -0.633394
C53   C     C_3   0.182343 0.997127 0.113042 -0.336551
H23   H     H_    0.159324 0.967061 0.207575 0.192007
H24   H     H_    0.174534 0.949337 0.028696 0.152412
H25   H     H_    0.137161 0.052930 0.091684 0.166591
O18   O     O_3   0.332691 0.887658 0.124656 -0.632363
C54   C     C_3   0.404033 0.831467 0.086371 -0.379631
H26   H     H_    0.457492 0.832764 0.164432 0.219867
H27   H     H_    0.434203 0.845383 0.987372 0.145300
H28   H     H_    0.378022 0.763989 0.081074 0.187847
O19   O     O_3   0.836858 0.625536 0.126066 -0.610659
C55   C     C_3   0.913275 0.675389 0.094521 -0.356493
H29   H     H_    0.941593 0.662281 0.993423 0.140577
H30   H     H_    0.965736 0.665226 0.172127 0.236318
H31   H     H_    0.894262 0.745250 0.097907 0.199755
O20   O     O_3   0.767913 0.487345 0.128298 -0.631117
C56   C     C_3   0.683297 0.528400 0.118298 -0.294411
H32   H     H_    0.665982 0.545663 0.012778 0.144753
H33   H     H_    0.680255 0.587160 0.184032 0.195051
H34   H     H_    0.631578 0.482535 0.153823 0.179077
O21   O     O_3   0.776364 0.898050 0.334890 -0.603240
C57   C     C_3   0.823320 0.964175 0.404638 -0.338670
H35   H     H_    0.785640 0.987511 0.494545 0.139186
H36   H     H_    0.831248 0.020355 0.336709 0.183350
H37   H     H_    0.891694 0.941977 0.434567 0.164902
O22   O     O_3   0.672095 0.200505 0.252335 -0.571830
C58   C     C_3   0.730620 0.177490 0.146505 -0.340722
H38   H     H_    0.691404 0.142492 0.068293 0.174830
H39   H     H_    0.785546 0.133124 0.179549 0.147794
H40   H     H_    0.758321 0.236444 0.098557 0.164999
O23   O     O_3   0.219100 0.338731 0.257371 -0.602446
C59   C     C_3   0.168732 0.278642 0.179279 -0.301600
H41   H     H_    0.213680 0.229489 0.131661 0.183617
H42   H     H_    0.133291 0.314170 0.098318 0.188149
H43   H     H_    0.115754 0.245577 0.238470 0.152888
O24   O     O_3   0.111290 0.757226 0.307915 -0.625989
C60   C     C_3   0.142123 0.744117 0.174973 -0.301342
H44   H     H_    0.085178 0.752113 0.104090 0.167125
H45   H     H_    0.169730 0.677228 0.161202 0.182049
H46   H     H_    0.192555 0.793065 0.145853 0.205398
O25   O     O_3   0.541510 0.688881 0.533410 -0.606330
C61   C     C_3   0.564235 0.654943 0.405242 -0.294279
H47   H     H_    0.560182 0.582815 0.405263 0.171376
H48   H     H_    0.630839 0.676414 0.369946 0.170913
H49   H     H_    0.514053 0.678682 0.331118 0.176378
O26   O     O_3   0.618845 0.261459 0.743053 -0.574311
C62   C     C_3   0.582953 0.267064 0.873692 -0.258955
H50   H     H_    0.627232 0.305151 0.942885 0.167177
H51   H     H_    0.570645 0.201026 0.914416 0.166219
H52   H     H_    0.517446 0.301315 0.868203 0.187436
O27   O     O_3   0.062263 0.188473 0.615412 -0.592727
C63   C     C_3   0.075699 0.127897 0.509231 -0.314759
H53   H     H_    0.078130 0.060659 0.549053 0.165237
H54   H     H_    0.135994 0.141691 0.448493 0.170679
H55   H     H_    0.017173 0.131495 0.439965 0.172994
O28   O     O_3   0.198986 0.689561 0.805137 -0.601240
C64   C     C_3   0.175291 0.778809 0.804716 -0.298952
H56   H     H_    0.183373 0.810174 0.705463 0.168334
H57   H     H_    0.213753 0.814200 0.883752 0.166867
H58   H     H_    0.103446 0.784623 0.831385 0.174051
C65   C     C_3   0.668659 0.978516 0.867026 -0.382129
C66   C     C_3   0.701786 0.884702 0.879795 -0.844694
H59   H     H_    0.649512 0.838544 0.844531 0.262741
H60   H     H_    0.762992 0.875113 0.818314 0.243060
H61   H     H_    0.718544 0.870044 0.986375 0.263458
H62   H     H_    0.669161 0.998441 0.761481 0.252410
H63   H     H_    0.717856 0.021937 0.918073 0.157004
C67   C     C_3   0.170379 0.497026 0.869524 -0.348386
C68   C     C_3   0.223031 0.414071 0.898946 -0.951341
H64   H     H_    0.180909 0.356564 0.879649 0.260347
H65   H     H_    0.282800 0.410260 0.833057 0.256592
H66   H     H_    0.246534 0.413792 0.005188 0.290568
H67   H     H_    0.168092 0.505122 0.760570 0.269400
H68   H     H_    0.208909 0.551415 0.914783 0.218890

loop_
_geom_bond_atom_site_label_1
_geom_bond_atom_site_label_2
_ccdc_geom_bond_type
C60   H46   S    
C21   O9    A    
C67   H68   S    
C3    O7    A    
C2    O6    A    
C61   H49   S    
C62   H50   S    
C49   H5    S    
C60   H44   S    
C68   H65   S    
C15   N3    A    
C54   H27   S    
C28   C46   A    
C33   C39   A    
C2    C29   S    
C34   C40   A    
O6    Zn3   S    
C32   C36   A    
C35   C37   A    
C61   H48   S    
C38   C42   A    
C48   C52   S    
C22   C41   S    
C64   H57   S    
O16   Zn4   S    
N2    Zn4   S    
C56   H32   S    
C29   C33   A    
N1    Zn3   S    
C7    C27   S    
C60   H45   S    
C42   C46   A    
C55   H29   S    
C53   H23   S    
O7    Zn4   S    
C52   H8    S    
C10   N2    A    
C9    C19   S    
C65   C66   S    
N4    Zn2   S    
C56   H33   S    
C63   H55   S    
O9    Zn1   S    
C3    O3    A    
C58   H40   S    
C23   O11   A    
C22   O10   A    
C14   C67   S    
C25   C47   A    
C18   C20   S    
C57   H37   S    
C26   C48   A    
C27   C45   A    
C20   O19   S    
C14   N4    A    
O10   Zn1   S    
C67   H67   S    
C18   H22   S    
C64   H58   S    
C33   H1    S    
C67   C68   S    
C52   O28   S    
O18   C54   S    
C62   H51   S    
C50   O26   S    
O14   Zn3   S    
O20   C56   S    
C68   H66   S    
C25   C29   A    
C54   H28   S    
C13   N3    A    
O4    Zn2   S    
C30   C34   A    
C27   C31   A    
C50   H6    S    
C66   H61   S    
C28   C32   A    
C61   H47   S    
C7    C49   S    
C5    H13   S    
C10   C20   S    
C68   H64   S    
O3    Zn2   S    
C19   O17   S    
C39   C43   A    
C39   O23   S    
C40   O24   S    
N3    Zn1   S    
C35   H3    S    
C23   C44   S    
C65   H63   S    
C66   H60   S    
C59   H42   S    
O1    Zn1   S    
C36   H4    S    
C24   O16   A    
C19   O18   S    
O17   C53   S    
C37   O21   S    
C6    H14   S    
O21   C57   S    
C56   H34   S    
C53   H24   S    
C45   C49   S    
C5    H9    S    
O13   Zn3   S    
O2    Zn1   S    
O12   Zn2   S    
C55   H31   S    
C7    H11   S    
O28   C64   S    
C8    H12   S    
C5    C25   S    
C12   C14   A    
C8    H16   S    
C18   H21   S    
C49   O25   S    
C58   H38   S    
C8    C28   S    
C63   H54   S    
C59   H43   S    
C51   H7    S    
C8    C50   S    
C62   H52   S    
C57   H35   S    
C57   H36   S    
O23   C59   S    
C21   O13   A    
C15   C17   S    
C12   H18   S    
C22   O14   A    
C63   H53   S    
O26   C62   S    
C24   O12   A    
C47   C51   S    
O25   C61   S    
C11   H17   S    
C17   H19   S    
O24   C60   S    
C1    O5    A    
C54   H26   S    
C46   C50   S    
C66   H59   S    
C6    H10   S    
O11   Zn2   S    
C12   N2    A    
C59   H41   S    
C9    C15   A    
C10   C16   A    
O19   C55   S    
C20   O20   S    
C11   C13   A    
C34   H2    S    
C6    C26   S    
C1    O1    A    
C31   C35   A    
C36   C38   A    
C1    C30   S    
C17   C19   S    
C16   N4    A    
C53   H25   S    
C37   C41   A    
C3    C32   S    
O8    Zn4   S    
C55   H30   S    
C4    C31   S    
C2    O2    A    
C7    H15   S    
C21   C42   S    
C23   O15   A    
C40   C44   A    
C4    O8    A    
C51   O27   S    
C17   H20   S    
C16   C18   S    
O5    Zn3   S    
C64   H56   S    
C58   H39   S    
C24   C43   S    
C41   C45   A    
C65   H62   S    
C5    C51   S    
C11   N1    A    
C9    N1    A    
C6    C52   S    
O27   C63   S    
C4    O4    A    
C43   C47   A    
O15   Zn4   S    
C13   C65   S    
C38   O22   S    
C44   C48   A    
O22   C58   S    
C26   C30   A    
