data_mof_unit_18071.cif
_audit_creation_date              2012-10-26T19:20:38-0400
_audit_creation_method            fapswitch 2.2
_symmetry_space_group_name_H-M    P1
_symmetry_Int_Tables_number       1
_space_group_crystal_system       triclinic
_cell_length_a                    10.7548
_cell_length_b                    11.040168
_cell_length_c                    9.886272
_cell_angle_alpha                 111.178096
_cell_angle_beta                  98.552568
_cell_angle_gamma                 91.551879
_cell_volume                      1078.22917669

loop_
_atom_site_label
_atom_site_type_symbol
_atom_type_description
_atom_site_fract_x
_atom_site_fract_y
_atom_site_fract_z
_atom_type_partial_charge
Br1   Br    Br    0.820902 0.372798 0.772829 -0.554388
Br2   Br    Br    0.179098 0.627202 0.227171 -0.554388
C1    C     C_R   0.490780 0.254137 0.440570 0.559308
C2    C     C_R   0.736623 0.483673 0.496669 0.556732
C3    C     C_R   0.149580 0.651337 0.770531 -0.074919
C4    C     C_R   0.850421 0.348663 0.229469 -0.074920
C5    C     C_R   0.102809 0.674285 0.900751 -0.113367
C6    C     C_R   0.897191 0.325715 0.099249 -0.113367
C7    C     C_R   0.994767 0.601036 0.899599 -0.077699
C8    C     C_R   0.005232 0.398964 0.100401 -0.077699
C9    C     C_R   0.927959 0.513165 0.766678 0.186582
C10   C     C_R   0.072041 0.486836 0.233322 0.186582
C11   C     C_R   0.958439 0.513642 0.632439 0.030513
C12   C     C_R   0.509220 0.745862 0.559430 0.559307
C13   C     C_R   0.041561 0.486358 0.367561 0.030513
C14   C     C_R   0.079974 0.566131 0.635319 -0.008905
C15   C     C_R   0.920026 0.433869 0.364681 -0.008905
C16   C     C_R   0.872754 0.465191 0.496995 -0.013738
C17   C     C_R   0.127246 0.534809 0.503005 -0.013738
C18   C     C_2   0.485758 0.114562 0.407214 -0.109876
C19   C     C_2   0.514242 0.885438 0.592786 -0.109876
C20   C     C_2   0.502614 0.069639 0.516347 -0.126740
C21   C     C_2   0.497386 0.930361 0.483653 -0.126740
C22   C     C_2   0.511576 0.510425 0.081324 0.483119
C23   C     C_2   0.488424 0.489575 0.918676 0.483119
C24   C     C_R   0.263377 0.516327 0.503331 0.556732
Cu1   Cu    Cu3+1 0.521920 0.521810 0.644910 1.072310
Cu2   Cu    Cu3+1 0.478080 0.478190 0.355090 1.072310
F1    F     F_    0.394607 0.399331 0.827961 -0.632116
F2    F     F_    0.605393 0.600668 0.172039 -0.632116
H1    H     H_    0.035232 0.390524 0.998047 0.178040
H2    H     H_    0.468096 0.048082 0.292817 0.108061
H3    H     H_    0.625789 0.622001 0.933688 0.217971
H4    H     H_    0.374211 0.377999 0.066312 0.217971
H5    H     H_    0.964768 0.609477 0.001953 0.178040
H6    H     H_    0.237090 0.704683 0.775171 0.136313
H7    H     H_    0.762910 0.295317 0.224829 0.136313
H8    H     H_    0.154277 0.743742 0.003205 0.167010
H9    H     H_    0.845723 0.256259 0.996795 0.167010
H10   H     H_    0.479585 0.864171 0.369053 0.195339
H11   H     H_    0.520415 0.135828 0.630947 0.195339
H12   H     H_    0.531904 0.951918 0.707183 0.108061
N1    N     N_2   0.445130 0.445420 0.137360 -0.305067
N2    N     N_2   0.554870 0.554580 0.862640 -0.305067
O1    O     O_R   0.511700 0.332340 0.577400 -0.422451
O2    O     O_R   0.488300 0.667660 0.422600 -0.422451
O3    O     O_R   0.474680 0.295500 0.332650 -0.525094
O4    O     O_R   0.525320 0.704500 0.667350 -0.525095
O5    O     O_R   0.338170 0.518410 0.622370 -0.454290
O6    O     O_R   0.661830 0.481590 0.377630 -0.454290
O7    O     O_R   0.301150 0.481570 0.377630 -0.472648
O8    O     O_R   0.698850 0.518430 0.622370 -0.472648

loop_
_geom_bond_atom_site_label_1
_geom_bond_atom_site_label_2
_ccdc_geom_bond_type
Cu1   O4    S    
C4    C6    A    
Cu2   O3    S    
C13   C15   A    
C6    H9    S    
C9    C11   A    
Cu2   N1    S    
Br1   C9    S    
C10   C13   A    
C2    C16   S    
Cu1   O1    S    
C15   C16   A    
C4    H7    S    
Br2   C10   S    
C1    C18   S    
C12   O2    A    
C24   O7    A    
Cu1   O8    S    
C13   C17   A    
C7    C9    A    
Cu2   O2    S    
C8    C10   A    
C11   C16   A    
C2    O8    A    
C14   C17   A    
Cu1   N2    S    
C12   C19   S    
C1    O3    A    
C5    H8    S    
C18   C20   D    
C3    C5    A    
C19   C21   D    
C23   F1    S    
C22   N1    D    
Cu2   O7    S    
C22   F2    S    
C11   C14   A    
C20   H11   S    
Cu1   O5    S    
C21   H10   S    
C3    H6    S    
C5    C7    A    
C22   C23   S    
C17   C24   S    
C6    C8    A    
C18   H2    S    
C24   O5    A    
C23   N2    D    
Cu1   Cu2   S    
C7    H5    S    
C4    C15   A    
C20   C21   S    
C3    C14   A    
C12   O4    A    
H3    N2    S    
Cu2   O6    S    
C8    H1    S    
C1    O1    A    
H4    N1    S    
C19   H12   S    
C2    O6    A    
