data_mof_unit_58841.cif
_audit_creation_date              2012-12-11T16:08:57-0500
_audit_creation_method            fapswitch 2.2
_symmetry_space_group_name_H-M    P1
_symmetry_Int_Tables_number       1
_space_group_crystal_system       triclinic
_cell_length_a                    12.982254
_cell_length_b                    13.226324
_cell_length_c                    27.694068
_cell_angle_alpha                 94.850595
_cell_angle_beta                  90.083744
_cell_angle_gamma                 119.231481
_cell_volume                      4129.84960168

loop_
_atom_site_label
_atom_site_type_symbol
_atom_type_description
_atom_site_fract_x
_atom_site_fract_y
_atom_site_fract_z
_atom_type_partial_charge
C1    C     C_R   0.628563 0.894013 0.427680 0.552052
C2    C     C_R   0.110146 0.731696 0.307549 0.014298
C3    C     C_R   0.075450 0.706335 0.207088 0.003629
C4    C     C_R   0.601327 0.222733 0.440775 0.540205
C5    C     C_R   0.038142 0.607803 0.232396 -0.122202
C6    C     C_R   0.055407 0.620445 0.282523 -0.113583
C7    C     C_R   0.062680 0.694250 0.157149 -0.121531
C8    C     C_R   0.096777 0.791956 0.131369 0.003082
C9    C     C_R   0.225261 0.955744 0.356640 -0.137757
C10   C     C_R   0.197443 0.943230 0.307316 0.010830
C11   C     C_R   0.142681 0.830992 0.282371 0.065171
C12   C     C_R   0.645172 0.244284 0.220135 -0.107995
C13   C     C_R   0.231684 0.041471 0.281977 -0.139914
C14   C     C_R   0.214932 0.028765 0.231621 -0.145138
C15   C     C_R   0.162889 0.917678 0.206283 0.012085
C16   C     C_R   0.268139 0.876508 0.426228 0.559070
C17   C     C_R   0.126055 0.818351 0.231942 0.065919
C18   C     C_R   0.146283 0.903575 0.155807 -0.149551
C19   C     C_R   0.204478 0.858086 0.380376 -0.003648
C20   C     C_R   0.769236 0.914035 0.364131 -0.179629
C21   C     C_R   0.791744 0.886286 0.317268 0.010599
C22   C     C_R   0.824335 0.853692 0.218676 0.030079
C23   C     C_R   0.633830 0.226921 0.269337 -0.104444
C24   C     C_R   0.914097 0.945738 0.248248 -0.113115
C25   C     C_R   0.898229 0.961701 0.297298 -0.108533
C26   C     C_R   0.835833 0.845763 0.168737 -0.129420
C27   C     C_R   0.742450 0.760680 0.138204 -0.021362
C28   C     C_R   0.626955 0.898518 0.564976 0.527286
C29   C     C_R   0.577657 0.737680 0.358040 0.281696
C30   C     C_R   0.595967 0.711245 0.309095 -0.019739
C31   C     C_R   0.703141 0.788164 0.288697 -0.047244
C32   C     C_R   0.508335 0.613378 0.279505 0.309974
C33   C     C_R   0.525106 0.597562 0.229601 0.271651
C34   C     C_R   0.671331 0.322067 0.304613 0.028127
C35   C     C_R   0.628403 0.680277 0.208877 -0.034794
C36   C     C_R   0.719490 0.772215 0.238962 0.000849
C37   C     C_R   0.640054 0.677003 0.158361 -0.118934
C38   C     C_R   0.659544 0.845787 0.383407 -0.018965
C39   C     C_R   0.744010 0.307308 0.652063 0.252038
C40   C     C_R   0.602595 0.226706 0.578699 0.544364
C41   C     C_R   0.754913 0.323644 0.703086 0.026184
C42   C     C_R   0.770692 0.348580 0.805177 0.014471
C43   C     C_R   0.865531 0.354786 0.778977 -0.161921
C44   C     C_R   0.857338 0.341434 0.728344 -0.134546
C45   C     C_R   0.694296 0.357010 0.205954 0.019671
C46   C     C_R   0.780749 0.370094 0.855672 -0.133493
C47   C     C_R   0.687525 0.371175 0.880965 -0.007998
C48   C     C_R   0.548761 0.291233 0.655148 -0.181481
C49   C     C_R   0.557305 0.304093 0.705254 -0.006393
C50   C     C_R   0.659629 0.318454 0.729498 0.020588
C51   C     C_R   0.461953 0.296724 0.731352 -0.145898
C52   C     C_R   0.325253 0.902022 0.569770 0.555110
C53   C     C_R   0.467413 0.302801 0.781625 -0.121337
C54   C     C_R   0.569531 0.319697 0.806246 0.026066
C55   C     C_R   0.666325 0.327836 0.780301 0.063768
C56   C     C_1   0.700444 0.375415 0.155362 -0.079054
C57   C     C_R   0.579307 0.336898 0.856460 -0.111922
C58   C     C_R   0.636678 0.283201 0.628415 -0.002384
C59   C     C_1   0.291279 0.891326 0.618942 0.005679
C60   C     C_R   0.190541 0.756940 0.727610 0.292148
C61   C     C_R   0.163320 0.745965 0.776860 -0.136967
C62   C     C_R   0.233561 0.953739 0.791285 0.290346
C63   C     C_R   0.261337 0.965338 0.742424 -0.137325
C64   C     C_1   0.634579 0.272329 0.395481 -0.024432
C65   C     C_R   0.238062 0.867569 0.710715 0.010729
C66   C     C_R   0.186496 0.843728 0.808538 0.010172
C67   C     C_1   0.654769 0.300872 0.354866 -0.070143
C68   C     C_1   0.151460 0.826877 0.857689 -0.003384
C69   C     C_1   0.266132 0.881492 0.660702 -0.000704
C70   C     C_1   0.114128 0.804611 0.897365 -0.001451
C71   C     C_1   0.642263 0.865067 0.611148 0.002945
C72   C     C_R   0.761576 0.901666 0.731159 0.282951
C73   C     C_R   0.763680 0.891857 0.781142 -0.144510
C74   C     C_R   0.557437 0.741008 0.774668 0.283782
C75   C     C_R   0.555256 0.750885 0.724583 -0.146917
C76   C     C_R   0.720873 0.435068 0.290495 -0.124548
C77   C     C_R   0.657134 0.829609 0.702734 0.002718
C78   C     C_1   0.706162 0.398819 0.114001 -0.027954
C79   C     C_R   0.661702 0.813713 0.803073 0.006721
C80   C     C_1   0.669157 0.802230 0.854020 -0.007603
C81   C     C_1   0.650462 0.845141 0.652201 -0.008679
C82   C     C_1   0.684297 0.791574 0.895795 -0.002405
C83   C     C_R   0.060255 0.769737 0.080328 0.539132
C84   C     C_R   0.717353 0.441873 0.067459 0.535807
C85   C     C_R   0.755852 0.758066 0.085472 0.562104
C86   C     C_R   0.058159 0.767218 0.941801 0.549854
C87   C     C_R   0.709941 0.432675 0.929440 0.547586
C88   C     C_R   0.732369 0.452460 0.241208 -0.126479
C89   C     C_R   0.141056 0.746063 0.356680 -0.121441
C90   C     C_R   0.716317 0.776684 0.943110 0.556727
C91   C     C_3   0.456313 0.416934 0.189316 -0.132092
C92   C     C_3   0.386556 0.433217 0.304928 -0.075868
C93   C     C_3   0.506253 0.599541 0.410829 -0.091268
C94   C     C_3   0.903102 0.413727 0.609017 -0.108846
C95   C     C_3   0.190714 0.581377 0.713304 -0.140842
C96   C     C_3   0.167764 0.080078 0.814255 -0.127009
C97   C     C_3   0.879103 0.090851 0.718386 -0.113010
C98   C     C_3   0.439441 0.551617 0.786942 -0.137332
Cr1   Cr    Cr6+3 0.416430 0.829200 0.492370 1.045687
Cr2   Cr    Cr6+3 0.674630 0.087020 0.504170 1.047424
Cr3   Cr    Cr6+3 0.408920 0.083740 0.503490 1.010442
Cr4   Cr    Cr6+3 0.914010 0.832750 0.013970 1.024100
Cr5   Cr    Cr6+3 0.922310 0.578600 0.003000 1.022144
Cr6   Cr    Cr6+3 0.656280 0.574630 0.003870 1.029949
H1    H     H_    0.243252 0.105602 0.212515 0.101122
H2    H     H_    0.946303 0.370743 0.797613 0.099367
H3    H     H_    0.931393 0.345136 0.709071 0.140624
H4    H     H_    0.506183 0.335242 0.875973 0.144096
H5    H     H_    0.393264 0.297829 0.801293 0.115598
H6    H     H_    0.382525 0.284673 0.712865 0.098281
H7    H     H_    0.467489 0.276395 0.637285 0.146135
H8    H     H_    0.614421 0.169927 0.193225 0.122308
H9    H     H_    0.299851 0.050393 0.729125 0.129433
H10   H     H_    0.845262 0.945171 0.802774 0.113717
H11   H     H_    0.473893 0.697855 0.702840 0.117225
H12   H     H_    0.274242 0.128185 0.300940 0.097744
H13   H     H_    0.594618 0.139077 0.279888 0.123787
H14   H     H_    0.020699 0.607084 0.138512 0.143342
H15   H     H_    0.123730 0.671097 0.375551 0.134099
H16   H     H_    0.997599 0.521240 0.213332 0.127602
H17   H     H_    0.170028 0.978219 0.135707 0.113320
H18   H     H_    0.749320 0.509184 0.317378 0.108939
H19   H     H_    0.373009 0.338545 0.175340 0.139524
H20   H     H_    0.489196 0.393970 0.221443 0.105764
H21   H     H_    0.520344 0.437052 0.160378 0.130289
H22   H     H_    0.335970 0.403016 0.337867 0.132978
H23   H     H_    0.273667 0.042715 0.375247 0.133920
H24   H     H_    0.472031 0.433893 0.310673 0.072170
H25   H     H_    0.333589 0.368648 0.274169 0.138703
H26   H     H_    0.769259 0.540037 0.230533 0.120822
H27   H     H_    0.565548 0.657435 0.442043 0.107020
H28   H     H_    0.548125 0.553349 0.390947 0.089871
H29   H     H_    0.424016 0.532853 0.425692 0.132909
H30   H     H_    0.851194 0.433804 0.583256 0.114891
H31   H     H_    0.942956 0.483788 0.639578 0.155370
H32   H     H_    0.976644 0.412414 0.589162 0.147572
H33   H     H_    0.118119 0.522516 0.735289 0.109870
H34   H     H_    0.916399 0.908576 0.153412 0.131486
H35   H     H_    0.276087 0.625261 0.734982 0.160048
H36   H     H_    0.199052 0.526529 0.682677 0.132999
H37   H     H_    0.121439 0.661245 0.790547 0.116307
H38   H     H_    0.078054 0.006280 0.819236 0.128261
H39   H     H_    0.172297 0.109816 0.777524 0.113434
H40   H     H_    0.182367 0.153465 0.841148 0.131680
H41   H     H_    0.896167 0.121788 0.757716 0.099896
H42   H     H_    0.801776 0.095720 0.703817 0.149241
H43   H     H_    0.957575 0.150889 0.699294 0.145153
H44   H     H_    0.516845 0.545998 0.800878 0.137133
H45   H     H_    0.834915 0.993882 0.384397 0.142146
H46   H     H_    0.421283 0.521395 0.747563 0.101903
H47   H     H_    0.361305 0.491495 0.806174 0.131533
H48   H     H_    0.029273 0.543748 0.301495 0.126732
H49   H     H_    0.994073 0.008966 0.232929 0.115681
H50   H     H_    0.966965 0.036551 0.319086 0.108890
H51   H     H_    0.568244 0.611807 0.134399 0.175572
H52   H     H_    0.864051 0.395029 0.874667 0.130678
O1    O     O_R   0.296680 0.802170 0.437540 -0.487746
O2    O     O_R   0.637200 0.461990 0.052510 -0.521022
O3    O     O_R   0.664790 0.681920 0.057970 -0.497944
O4    O     O_R   0.525380 0.838530 0.443500 -0.450032
O5    O     O_R   0.815840 0.852920 0.961840 -0.505353
O6    O     O_R   0.012100 0.822630 0.963670 -0.491508
O7    O     O_R   0.037010 0.668460 0.953040 -0.506702
O8    O     O_R   0.813390 0.478970 0.949660 -0.500084
O9    O     O_R   0.632250 0.456930 0.945520 -0.515721
O10   O     O_R   0.660200 0.677230 0.958780 -0.483589
O11   O     O_3   0.830870 0.661990 0.006950 -0.271448
O12   O     O_R   0.662610 0.183990 0.557860 -0.448691
O13   O     O_R   0.702130 0.995190 0.446810 -0.526444
O14   O     O_R   0.661770 0.181390 0.458760 -0.490821
O15   O     O_R   0.499820 0.198480 0.455280 -0.518519
O16   O     O_R   0.311660 0.976250 0.449080 -0.503390
O17   O     O_R   0.297580 0.804960 0.544440 -0.501712
O18   O     O_R   0.526220 0.841130 0.542590 -0.525899
O19   O     O_R   0.703030 0.997990 0.553710 -0.483031
O20   O     O_3   0.432403 0.509392 0.200638 -0.544718
O21   O     O_3   0.398941 0.542975 0.297507 -0.482241
O22   O     O_3   0.476516 0.661955 0.379884 -0.495223
O23   O     O_R   0.500730 0.201280 0.562180 -0.541816
O24   O     O_3   0.833237 0.303790 0.626012 -0.564371
O25   O     O_3   0.163457 0.661577 0.694167 -0.568242
O26   O     O_3   0.256324 0.050209 0.822601 -0.558565
O27   O     O_3   0.863188 0.977448 0.709649 -0.558797
O28   O     O_3   0.456208 0.665201 0.796356 -0.568047
O29   O     O_R   0.312500 0.978850 0.548170 -0.493958
O30   O     O_3   0.499990 0.999990 0.500010 -0.274105
O31   O     O_R   0.820790 0.857990 0.068830 -0.506350
O32   O     O_R   0.016700 0.827330 0.062850 -0.522358
O33   O     O_R   0.041970 0.673520 0.060040 -0.513389
O34   O     O_R   0.817980 0.483660 0.048840 -0.498223

loop_
_geom_bond_atom_site_label_1
_geom_bond_atom_site_label_2
_ccdc_geom_bond_type
C85   O31   A    
C15   C18   A    
C66   C68   S    
C63   C65   A    
Cr5   O11   S    
Cr4   O11   S    
C4    O15   A    
C8    C83   S    
Cr6   O11   S    
C97   H42   S    
C37   H51   S    
Cr3   O15   S    
C35   C36   A    
C88   H26   S    
C39   O24   S    
C7    C8    A    
C39   C41   A    
C87   O9    A    
C53   C54   A    
C21   C31   A    
C12   C23   A    
Cr5   O8    S    
C72   C77   A    
C4    O14   A    
C19   C89   A    
C35   C37   A    
C93   H29   S    
C16   C19   S    
C30   C31   A    
C74   O28   S    
C56   C78   T    
C20   H45   S    
Cr3   O16   S    
C15   C17   A    
C42   C46   A    
C27   C85   S    
C33   O20   S    
Cr5   O7    S    
C22   C26   A    
C33   C35   A    
Cr6   O9    S    
C46   C47   A    
C61   C66   A    
C9    C19   A    
C14   H1    S    
C89   H15   S    
C45   C56   S    
C49   C51   A    
C29   C38   A    
C94   H32   S    
C84   O34   A    
Cr5   O33   S    
C13   C14   A    
C93   H28   S    
C9    C10   A    
C76   C88   A    
C72   C73   A    
C6    H48   S    
C87   O8    A    
C16   O1    A    
C91   H19   S    
Cr1   O4    S    
C90   O10   A    
C97   H43   S    
C7    H14   S    
C2    C6    A    
Cr3   O29   S    
C2    C11   A    
C92   H24   S    
C97   O27   S    
C98   H47   S    
C73   C79   A    
C95   H33   S    
C40   C58   S    
C74   C75   A    
C62   C66   A    
C90   O5    A    
Cr2   O14   S    
C64   C67   T    
C45   C88   A    
C24   C25   A    
C80   C82   T    
C92   O21   S    
Cr6   O2    S    
C84   O2    A    
C95   O25   S    
Cr2   O13   S    
C5    H16   S    
C3    C5    A    
C39   C58   A    
C96   H38   S    
Cr4   O32   S    
C73   H10   S    
C60   C61   A    
C51   C53   A    
C43   H2    S    
C47   C87   S    
C2    C89   A    
Cr2   O30   S    
C43   C44   A    
C62   C63   A    
Cr3   O23   S    
C52   C59   S    
C42   C55   A    
C96   H40   S    
C40   O23   A    
C20   C38   A    
C16   O16   A    
Cr1   O17   S    
C77   C81   S    
C29   C30   A    
Cr4   O6    S    
C23   C34   A    
C48   H7    S    
Cr2   O19   S    
C94   H31   S    
C95   H36   S    
Cr5   O34   S    
C94   O24   S    
C29   O22   S    
C75   C77   A    
C1    C38   S    
C59   C69   T    
C86   O6    A    
C61   H37   S    
C48   C49   A    
C95   H35   S    
C60   C65   A    
C51   H6    S    
C74   C79   A    
Cr1   O1    S    
C26   C27   A    
C41   C44   A    
C22   C24   A    
C83   O32   A    
C28   C71   S    
C75   H11   S    
C42   C43   A    
Cr6   O3    S    
Cr3   O30   S    
C70   C86   S    
C41   C50   A    
C12   H8    S    
C46   H52   S    
C24   H49   S    
C98   H46   S    
C44   H3    S    
C53   H5    S    
C60   O25   S    
C9    H23   S    
C21   C25   A    
C54   C55   A    
C11   C17   A    
C91   H21   S    
C25   H50   S    
C31   C36   A    
C97   H41   S    
C62   O26   S    
C83   O33   A    
C1    O4    A    
C50   C55   A    
C72   O27   S    
C96   O26   S    
C12   C45   A    
C26   H34   S    
C10   C13   A    
C92   H22   S    
C34   C67   S    
C23   H13   S    
C93   O22   S    
C28   O19   A    
C48   C58   A    
C22   C36   A    
C4    C64   S    
C3    C7    A    
Cr4   O31   S    
C82   C90   S    
Cr2   O12   S    
C91   H20   S    
C76   H18   S    
C32   C33   A    
C92   H25   S    
C96   H39   S    
C30   C32   A    
C28   O18   A    
C5    C6    A    
Cr1   O18   S    
C98   H44   S    
C27   C37   A    
Cr4   O5    S    
C65   C69   S    
C1    O13   A    
C94   H30   S    
C91   O20   S    
C3    C17   A    
C98   O28   S    
C32   O21   S    
C8    C18   A    
C40   O12   A    
C13   H12   S    
C10   C11   A    
C18   H17   S    
Cr6   O10   S    
C79   C80   S    
C63   H9    S    
C78   C84   S    
C57   H4    S    
C20   C21   A    
C68   C70   T    
C49   C50   A    
C52   O29   A    
C47   C57   A    
C14   C15   A    
C86   O7    A    
C85   O3    A    
C93   H27   S    
C52   O17   A    
Cr1   O30   S    
C34   C76   A    
C71   C81   T    
C54   C57   A    
