data_mof_unit_13136.cif
_audit_creation_date              2012-12-10T19:03:39-0500
_audit_creation_method            fapswitch 2.2
_symmetry_space_group_name_H-M    P1
_symmetry_Int_Tables_number       1
_space_group_crystal_system       triclinic
_cell_length_a                    15.868974
_cell_length_b                    10.834359
_cell_length_c                    9.618018
_cell_angle_alpha                 90.016952
_cell_angle_beta                  87.993306
_cell_angle_gamma                 91.176564
_cell_volume                      1652.26471184

loop_
_atom_site_label
_atom_site_type_symbol
_atom_type_description
_atom_site_fract_x
_atom_site_fract_y
_atom_site_fract_z
_atom_type_partial_charge
C1    C     C_R   0.502848 0.262715 0.499527 0.794320
C2    C     C_3   0.947484 0.577269 0.618797 -0.385746
C3    C     C_3   0.917157 0.504929 0.490409 0.341102
C4    C     C_3   0.956624 0.567023 0.357565 -0.377450
C5    C     C_3   0.054379 0.568669 0.362467 -0.385978
C6    C     C_1   0.825017 0.504180 0.489265 -0.123736
C7    C     C_1   0.174807 0.504306 0.502068 -0.105520
C8    C     C_1   0.250402 0.502741 0.504526 -0.159102
C9    C     C_R   0.541902 0.064122 0.607657 0.092296
C10   C     C_R   0.511989 0.129931 0.495325 -0.090004
C11   C     C_R   0.493533 0.064268 0.373180 -0.220683
C12   C     C_R   0.340271 0.500647 0.501899 0.831901
C13   C     C_R   0.492206 0.935389 0.373379 -0.230884
C14   C     C_R   0.507019 0.870628 0.496651 -0.109205
C15   C     C_R   0.534065 0.937859 0.610941 0.073799
C16   C     C_3   0.515537 0.934392 0.765041 -0.196468
C17   C     C_3   0.529712 0.074356 0.761891 -0.503799
C18   C     C_R   0.574002 0.502687 0.068213 0.182457
C19   C     C_R   0.428039 0.482003 0.080505 -0.112957
C20   C     C_R   0.427060 0.479811 0.933359 0.058682
C21   C     C_R   0.573712 0.502479 0.922130 0.197700
C22   C     C_3   0.644843 0.593495 0.908309 -0.467966
C23   C     C_R   0.500443 0.737390 0.499783 0.787362
C24   C     C_3   0.647686 0.592876 0.067152 -0.111403
C25   C     C_R   0.659644 0.500843 0.497691 0.818054
C26   C     C_3   0.044757 0.575537 0.623845 -0.374265
C27   C     C_3   0.046601 0.370922 0.499190 -0.378804
C28   C     C_3   0.949052 0.370984 0.498294 -0.379924
C29   C     C_1   0.749386 0.502729 0.492197 -0.192676
C30   C     C_3   0.082615 0.504977 0.497069 0.335294
Cu1   Cu    Cu3+1 0.500000 0.499980 0.640670 0.945378
Cu2   Cu    Cu3+1 0.500000 0.500020 0.359330 0.921379
H1    H     H_    0.919184 0.535691 0.715935 0.155760
H2    H     H_    0.070548 0.671827 0.625749 0.156133
H3    H     H_    0.926405 0.674509 0.614213 0.159677
H4    H     H_    0.936518 0.515914 0.263544 0.156325
H5    H     H_    0.475580 0.111627 0.279909 0.169223
H6    H     H_    0.474480 0.887271 0.279845 0.159606
H7    H     H_    0.564861 0.885750 0.821861 0.139997
H8    H     H_    0.473985 0.127571 0.794456 0.197655
H9    H     H_    0.588764 0.104375 0.812083 0.184691
H10   H     H_    0.369924 0.465906 0.140053 0.158798
H11   H     H_    0.062171 0.529935 0.721446 0.162659
H12   H     H_    0.701827 0.552942 0.857458 0.177548
H13   H     H_    0.624601 0.681198 0.861205 0.202913
H14   H     H_    0.705509 0.549222 0.104905 0.155699
H15   H     H_    0.071547 0.319546 0.406865 0.159630
H16   H     H_    0.066890 0.321381 0.593007 0.155232
H17   H     H_    0.922645 0.324989 0.594201 0.157710
H18   H     H_    0.927094 0.316613 0.407762 0.158465
H19   H     H_    0.078610 0.665793 0.358664 0.156301
H20   H     H_    0.081243 0.520513 0.269281 0.158968
H21   H     H_    0.934083 0.663215 0.348709 0.156950
N1    N     N_R   0.500530 0.500930 0.147930 -0.195126
N2    N     N_R   0.500530 0.500890 0.852020 -0.198376
O1    O     O_R   0.500000 0.319640 0.618810 -0.589788
O2    O     O_R   0.500010 0.319680 0.381230 -0.579379
O3    O     O_R   0.379430 0.499990 0.618840 -0.560675
O4    O     O_R   0.379440 0.500030 0.381260 -0.593483
O5    O     O_R   0.499990 0.680320 0.618770 -0.570963
O6    O     O_R   0.500000 0.680360 0.381190 -0.601840
O7    O     O_R   0.620560 0.499970 0.618740 -0.576955
O8    O     O_R   0.620570 0.500010 0.381160 -0.590024
C31   C     C_R   0.425496 0.901187 0.813028 0.204279
C32   C     C_R   0.410344 0.866454 0.952422 -0.143092
C33   C     C_R   0.328128 0.846553 0.005510 -0.165510
C34   C     C_R   0.259814 0.860483 0.919629 -0.122717
C35   C     C_R   0.273667 0.895724 0.781003 -0.160059
C36   C     C_R   0.355791 0.917584 0.728101 -0.142450
H22   H     H_    0.462142 0.858523 0.021288 0.104367
H23   H     H_    0.317401 0.820380 0.113398 0.127194
H24   H     H_    0.196157 0.844483 0.960698 0.116575
H25   H     H_    0.220627 0.908073 0.714987 0.118695
H26   H     H_    0.364064 0.949921 0.622162 0.131770
C37   C     C_R   0.343914 0.445219 0.879358 0.165078
C38   C     C_R   0.274167 0.518723 0.912955 -0.167665
C39   C     C_R   0.192308 0.474660 0.892612 -0.150609
C40   C     C_R   0.179065 0.357213 0.836579 -0.119385
C41   C     C_R   0.247834 0.283896 0.800757 -0.163366
C42   C     C_R   0.329735 0.326933 0.824391 -0.099530
H27   H     H_    0.283089 0.607039 0.962696 0.135854
H28   H     H_    0.139211 0.530447 0.924203 0.113411
H29   H     H_    0.115530 0.322267 0.823379 0.109944
H30   H     H_    0.237628 0.192348 0.758656 0.128575
H31   H     H_    0.381659 0.267368 0.803201 0.123906
C43   C     C_3   0.630692 0.718448 0.135639 -0.281347
C44   C     C_3   0.698553 0.815165 0.095270 -0.906278
H32   H     H_    0.761887 0.781585 0.120638 0.252436
H33   H     H_    0.697663 0.836948 0.982625 0.250903
H34   H     H_    0.686603 0.901476 0.154421 0.247367
H35   H     H_    0.568035 0.752133 0.108157 0.198718
H36   H     H_    0.631984 0.707053 0.249772 0.236456

loop_
_geom_bond_atom_site_label_1
_geom_bond_atom_site_label_2
_ccdc_geom_bond_type
C2    H3    S    
C27   H16   S    
C44   H32   S    
C4    H4    S    
C4    H21   S    
C18   C21   A    
C19   C20   A    
C3    C6    S    
C7    C8    T    
C39   C40   A    
C18   C24   S    
Cu1   O3    S    
C3    C28   S    
C1    O1    A    
Cu2   O6    S    
C43   H35   S    
C41   H30   S    
C15   C16   S    
C34   H24   S    
C25   O8    A    
C11   H5    S    
C12   O4    A    
C28   H18   S    
C40   H29   S    
C26   H2    S    
C22   H12   S    
C33   H23   S    
C16   C17   S    
C5    H20   S    
Cu1   O1    S    
C37   C42   A    
C19   H10   S    
C12   O3    A    
C33   C34   A    
C7    C30   S    
C21   C22   S    
C27   C30   S    
Cu1   O7    S    
Cu2   O2    S    
C20   N2    A    
Cu2   N1    S    
C26   H11   S    
C25   C29   S    
C23   O5    A    
C34   C35   A    
C38   C39   A    
C21   N2    A    
C40   C41   A    
C35   C36   A    
C35   H25   S    
C20   C37   S    
C17   H8    S    
C14   C23   S    
C37   C38   A    
C42   H31   S    
C1    O2    A    
C28   H17   S    
Cu1   Cu2   S    
C8    C12   S    
C6    C29   T    
C36   H26   S    
C2    C26   S    
C31   C36   A    
C13   H6    S    
C19   N1    A    
C9    C17   S    
C26   C30   S    
C44   H33   S    
C22   C24   S    
C3    C4    S    
C2    H1    S    
C5    C30   S    
C9    C10   A    
C27   H15   S    
C43   C44   S    
C1    C10   S    
Cu2   O8    S    
C4    C5    S    
C38   H27   S    
C24   H14   S    
C31   C32   A    
C2    C3    S    
C9    C15   A    
C43   H36   S    
C11   C13   A    
C39   H28   S    
C25   O7    A    
C17   H9    S    
C10   C11   A    
C18   N1    A    
C16   H7    S    
C41   C42   A    
Cu1   O5    S    
C23   O6    A    
C22   H13   S    
C32   C33   A    
C44   H34   S    
C27   C28   S    
C14   C15   A    
C5    H19   S    
C16   C31   S    
Cu2   O4    S    
Cu1   N2    S    
C13   C14   A    
C24   C43   S    
C32   H22   S    
