data_mof_unit_39106.cif
_audit_creation_date              2012-10-26T18:27:29-0400
_audit_creation_method            fapswitch 2.2
_symmetry_space_group_name_H-M    P1
_symmetry_Int_Tables_number       1
_space_group_crystal_system       triclinic
_cell_length_a                    10.799466
_cell_length_b                    10.853028
_cell_length_c                    9.923312
_cell_angle_alpha                 109.591109
_cell_angle_beta                  100.49813
_cell_angle_gamma                 91.207929
_cell_volume                      1073.15988976

loop_
_atom_site_label
_atom_site_type_symbol
_atom_type_description
_atom_site_fract_x
_atom_site_fract_y
_atom_site_fract_z
_atom_type_partial_charge
C1    C     C_R   0.497058 0.254178 0.443505 0.603761
C2    C     C_2   0.582865 0.933882 0.492503 -0.023492
C3    C     C_2   0.522163 0.498860 0.080853 0.012942
C4    C     C_R   0.262784 0.499072 0.498029 0.570072
C5    C     C_2   0.506496 0.474492 0.918641 0.139743
C6    C     C_R   0.515374 0.746094 0.557227 0.533141
C7    C     C_R   0.738351 0.507742 0.503550 0.587853
C8    C     C_R   0.151007 0.743998 0.564041 -0.117300
C9    C     C_R   0.102210 0.865420 0.613820 0.020597
C10   C     C_R   0.985150 0.870552 0.655116 -0.055565
C11   C     C_R   0.915351 0.755409 0.641985 0.032951
C12   C     C_R   0.078840 0.626037 0.541828 -0.015015
C13   C     C_R   0.954266 0.630037 0.566936 0.031194
C14   C     C_2   0.440815 0.345191 0.823728 0.332094
C15   C     C_2   0.612245 0.680387 0.957686 0.405905
C16   C     C_2   0.314646 0.413387 0.069445 0.425658
C17   C     C_2   0.178132 0.986633 0.630440 0.263843
C18   C     C_2   0.824554 0.774087 0.739139 0.263142
C19   C     C_2   0.646264 0.856440 0.374295 0.278781
C20   C     C_R   0.128947 0.503874 0.493859 0.012827
C21   C     C_R   0.051931 0.385808 0.442466 0.111863
C22   C     C_R   0.922659 0.389380 0.441736 0.092605
C23   C     C_R   0.874258 0.509761 0.509275 0.021444
C24   C     C_2   0.507043 0.115024 0.419958 -0.090372
C25   C     C_2   0.582321 0.073793 0.517786 0.026981
C26   C     C_2   0.534437 0.886432 0.583510 -0.128295
Cu1   Cu    Cu3+1 0.521920 0.521810 0.644910 1.087904
Cu2   Cu    Cu3+1 0.478080 0.478190 0.355090 1.020134
H1    H     H_    0.451117 0.043915 0.320909 0.090266
H2    H     H_    0.758716 0.848659 0.744331 0.109667
H3    H     H_    0.649425 0.889072 0.282804 0.143494
H4    H     H_    0.609307 0.550288 0.151768 0.214030
H5    H     H_    0.244435 0.742138 0.538745 0.101969
H6    H     H_    0.952245 0.965179 0.707699 0.173206
H7    H     H_    0.503825 0.953584 0.677858 0.091554
H8    H     H_    0.475780 0.256817 0.838909 0.080015
H9    H     H_    0.575525 0.768266 0.943244 0.105298
H10   H     H_    0.262228 0.334609 0.085073 0.134800
H11   H     H_    0.268987 0.980549 0.597640 0.097605
I1    I     I_    0.133224 0.202812 0.362573 -0.198239
I2    I     I_    0.800986 0.211655 0.333464 -0.244093
I3    I     I_    0.718833 0.194469 0.702826 -0.277390
N1    N     N_2   0.445130 0.445430 0.137370 -0.302620
N2    N     N_2   0.554930 0.554500 0.862630 -0.245330
O1    O     O_R   0.511700 0.332330 0.577400 -0.460068
O2    O     O_2   0.707526 0.690836 0.049846 -0.463135
O3    O     O_2   0.258480 0.479193 0.003392 -0.450573
O4    O     O_2   0.140250 0.094615 0.680525 -0.430899
O5    O     O_2   0.833645 0.717428 0.827368 -0.418532
O6    O     O_2   0.702835 0.762306 0.382576 -0.491750
O7    O     O_R   0.474680 0.295500 0.332650 -0.500348
O8    O     O_R   0.338160 0.518420 0.622400 -0.445807
O9    O     O_R   0.301140 0.481590 0.377650 -0.519313
O10   O     O_R   0.525320 0.704500 0.667350 -0.544247
O11   O     O_R   0.488300 0.667670 0.422600 -0.466294
O12   O     O_R   0.698860 0.518410 0.622350 -0.441385
O13   O     O_R   0.661840 0.481580 0.377600 -0.481519
O14   O     O_2   0.341200 0.336330 0.738903 -0.405754

loop_
_geom_bond_atom_site_label_1
_geom_bond_atom_site_label_2
_ccdc_geom_bond_type
C25   I3    S    
Cu2   O9    S    
C13   C23   A    
C11   C18   S    
C18   H2    S    
C4    O9    A    
Cu1   O12   S    
C1    O7    A    
C9    C10   A    
Cu2   N1    S    
C16   N1    S    
C17   O4    D    
C6    O11   A    
C8    C12   A    
C19   H3    S    
C12   C20   A    
Cu1   O10   S    
C2    C26   D    
Cu2   O13   S    
C21   C22   A    
C20   C21   A    
C11   C13   A    
C19   O6    D    
C3    N1    D    
C5    C14   S    
C6    C26   S    
C21   I1    S    
C7    O12   A    
C6    O10   A    
C7    C23   S    
C16   O3    D    
C24   C25   D    
C5    N2    D    
C4    O8    A    
C15   N2    S    
C2    C25   S    
C8    H5    S    
C14   H8    S    
C3    H4    S    
C14   O14   D    
Cu2   O7    S    
C7    O13   A    
C22   I2    S    
Cu1   O1    S    
C4    C20   S    
C26   H7    S    
C12   C13   A    
Cu1   O8    S    
C1    C24   S    
C10   H6    S    
C10   C11   A    
C1    O1    A    
C9    C17   S    
Cu1   Cu2   S    
C17   H11   S    
C22   C23   A    
C15   H9    S    
C15   O2    D    
C2    C19   S    
C24   H1    S    
Cu1   N2    S    
Cu2   O11   S    
C18   O5    D    
C16   H10   S    
C8    C9    A    
C3    C5    S    
