data_mof_unit_38762.cif
_audit_creation_date              2012-12-10T17:45:33-0500
_audit_creation_method            fapswitch 2.2
_symmetry_space_group_name_H-M    P1
_symmetry_Int_Tables_number       1
_space_group_crystal_system       triclinic
_cell_length_a                    11.515157
_cell_length_b                    10.687257
_cell_length_c                    9.962859
_cell_angle_alpha                 88.209546
_cell_angle_beta                  90.877147
_cell_angle_gamma                 92.123273
_cell_volume                      1224.52075402

loop_
_atom_site_label
_atom_site_type_symbol
_atom_type_description
_atom_site_fract_x
_atom_site_fract_y
_atom_site_fract_z
_atom_type_partial_charge
C1    C     C_R   0.512953 0.260613 0.502498 0.912598
C2    C     C_R   0.472855 0.873431 0.493621 -0.293394
C3    C     C_R   0.333653 0.358004 0.148883 -0.200593
C4    C     C_R   0.282160 0.499462 0.499113 0.920517
C5    C     C_R   0.237517 0.301460 0.089687 0.427359
C6    C     C_R   0.226381 0.306758 0.952488 -0.396916
C7    C     C_R   0.319586 0.353132 0.871498 0.543339
C8    C     C_R   0.411935 0.430788 0.930564 -0.045521
C9    C     C_R   0.415185 0.431327 0.075135 0.041060
C10   C     C_R   0.584210 0.559995 0.071491 -0.240476
C11   C     C_R   0.588306 0.555246 0.929418 0.521156
C12   C     C_R   0.466947 0.040805 0.868071 -0.259640
C13   C     C_R   0.487379 0.739199 0.497758 0.943114
C14   C     C_R   0.717858 0.501742 0.500783 0.862989
C15   C     C_1   0.161588 0.499193 0.497699 -0.184918
C16   C     C_1   0.059355 0.500108 0.498975 -0.029159
C17   C     C_1   0.940737 0.501705 0.501406 -0.033532
C18   C     C_1   0.838466 0.502225 0.502136 -0.212809
C19   C     C_R   0.519645 0.102191 0.758151 -0.045171
C20   C     C_3   0.697060 0.121747 0.254556 0.044515
C21   C     C_3   0.762597 0.240194 0.299125 -0.334257
C22   C     C_3   0.892471 0.232768 0.273989 -0.900556
C23   C     C_R   0.398384 0.932705 0.849429 -0.241649
C24   C     C_3   0.243155 0.226383 0.695328 -0.329695
C25   C     C_3   0.776029 0.523200 0.869552 0.121915
C26   C     C_3   0.852677 0.534509 0.996588 -0.450139
C27   C     C_3   0.963321 0.461298 0.985124 -0.903703
C28   C     C_3   0.212720 0.825329 0.628633 0.088419
C29   C     C_3   0.115882 0.861367 0.722140 -0.398498
C30   C     C_3   0.068131 0.748856 0.804312 -0.782793
C31   C     C_3   0.565152 0.867779 0.173413 -0.220052
C32   C     C_3   0.187630 0.121064 0.209681 0.082138
C33   C     C_3   0.135127 0.022110 0.116300 -0.366166
C34   C     C_R   0.389461 0.880881 0.722426 0.583294
C35   C     C_3   0.157430 0.889629 0.169664 -0.931177
C36   C     C_R   0.456315 0.934749 0.614722 -0.107284
C37   C     C_R   0.504093 0.055603 0.627225 -0.023797
C38   C     C_R   0.529060 0.126087 0.507608 -0.315537
C39   C     C_R   0.539352 0.065943 0.384225 0.383743
C40   C     C_R   0.503424 0.940739 0.375512 0.394115
H1    H     H_    0.149176 0.260722 0.911673 0.165909
H2    H     H_    0.749138 0.252377 0.407916 0.200610
H3    H     H_    0.929780 0.156536 0.337472 0.254242
H4    H     H_    0.937568 0.322703 0.298794 0.292628
H5    H     H_    0.907862 0.214733 0.166718 0.272023
H6    H     H_    0.158365 0.272595 0.686531 0.155162
H7    H     H_    0.237703 0.138985 0.758444 0.153686
H8    H     H_    0.266041 0.199053 0.592812 0.170223
H9    H     H_    0.832207 0.547158 0.782300 0.185816
H10   H     H_    0.744648 0.423905 0.857903 0.116666
H11   H     H_    0.876155 0.634573 0.013478 0.234719
H12   H     H_    0.573227 0.184988 0.777563 0.151966
H13   H     H_    0.805617 0.495063 0.085275 0.223160
H14   H     H_    0.941099 0.360445 0.971622 0.260614
H15   H     H_    0.016757 0.471091 0.078208 0.292317
H16   H     H_    0.015584 0.496886 0.898543 0.261283
H17   H     H_    0.179426 0.748848 0.564322 0.158810
H18   H     H_    0.233237 0.905888 0.557879 0.070886
H19   H     H_    0.149040 0.934330 0.791165 0.200383
H20   H     H_    0.043969 0.901217 0.660771 0.178324
H21   H     H_    0.031523 0.676317 0.736618 0.247368
H22   H     H_    0.997926 0.779093 0.869767 0.233269
H23   H     H_    0.475057 0.080514 0.966526 0.185958
H24   H     H_    0.137724 0.708233 0.868647 0.281204
H25   H     H_    0.537032 0.794650 0.102850 0.188672
H26   H     H_    0.641110 0.833833 0.232902 0.126520
H27   H     H_    0.589474 0.949899 0.108867 0.166833
H28   H     H_    0.153797 0.102211 0.312472 0.149399
H29   H     H_    0.283935 0.112331 0.217456 0.155530
H30   H     H_    0.039802 0.033502 0.106537 0.224514
H31   H     H_    0.173757 0.035353 0.015153 0.209612
H32   H     H_    0.252072 0.874054 0.174740 0.308755
H33   H     H_    0.115993 0.820509 0.101354 0.262636
H34   H     H_    0.350812 0.890019 0.932930 0.178908
H35   H     H_    0.120123 0.874121 0.271277 0.250814
H36   H     H_    0.651468 0.611529 0.125543 0.148393
H37   H     H_    0.341737 0.339763 0.253342 0.223727
H38   H     H_    0.714178 0.112144 0.146010 0.145701
H39   H     H_    0.733462 0.037946 0.307724 0.105751
H40   H     H_    0.728804 0.321841 0.241250 0.252119
N1    N     N_R   0.498930 0.498800 0.142780 -0.107789
N2    N     N_R   0.498900 0.498720 0.857170 -0.135341
O1    O     O_R   0.500000 0.316780 0.614690 -0.573229
O2    O     O_3   0.331415 0.309855 0.743279 -0.538863
O3    O     O_3   0.684123 0.608729 0.864820 -0.631984
O4    O     O_3   0.310193 0.782217 0.703244 -0.618084
O5    O     O_3   0.469027 0.892792 0.252651 -0.603185
O6    O     O_3   0.152230 0.241700 0.167004 -0.647254
O7    O     O_R   0.499990 0.316750 0.385360 -0.595999
O8    O     O_R   0.334450 0.500030 0.614670 -0.532858
O9    O     O_R   0.334440 0.500000 0.385330 -0.642911
O10   O     O_R   0.500010 0.683250 0.614640 -0.565849
O11   O     O_R   0.500000 0.683220 0.385310 -0.585828
O12   O     O_R   0.665560 0.500000 0.614670 -0.611879
O13   O     O_R   0.665550 0.499970 0.385330 -0.634858
O14   O     O_3   0.575294 0.131919 0.269248 -0.612749
Zn1   Zn    Zn3+2 0.500010 0.500020 0.653130 1.022306
Zn2   Zn    Zn3+2 0.499990 0.499980 0.346870 0.948405

loop_
_geom_bond_atom_site_label_1
_geom_bond_atom_site_label_2
_ccdc_geom_bond_type
C31   H26   S    
C30   H24   S    
C14   C18   S    
C28   C29   S    
C27   H14   S    
C7    C8    A    
C28   H17   S    
C31   H27   S    
C12   C23   A    
C35   H35   S    
C26   C27   S    
C29   C30   S    
C8    N2    A    
C40   O5    S    
C36   C37   A    
C5    C6    A    
C27   H15   S    
N1    Zn2   S    
C15   C16   T    
C32   O6    S    
C21   H40   S    
C34   O4    S    
C2    C13   S    
C25   H10   S    
C19   C37   A    
C5    O6    S    
C10   H36   S    
C19   H12   S    
C22   H4    S    
C29   H19   S    
C8    C9    A    
C6    H1    S    
O8    Zn1   S    
C32   H28   S    
C4    O9    A    
C7    O2    S    
C20   O14   S    
C21   C22   S    
O10   Zn1   S    
C4    O8    A    
C11   N2    A    
O13   Zn2   S    
C31   O5    S    
C24   H8    S    
C39   C40   A    
C12   H23   S    
C27   H16   S    
C16   C17   S    
O12   Zn1   S    
C25   C26   S    
C13   O11   A    
C37   C38   A    
C3    C9    A    
C22   H3    S    
C29   H20   S    
C23   C34   A    
C25   O3    S    
C17   C18   T    
C32   H29   S    
C33   H30   S    
C1    C38   S    
C35   H32   S    
C30   H22   S    
C13   O10   A    
C28   O4    S    
N2    Zn1   S    
C23   H34   S    
C3    H37   S    
C26   H13   S    
C14   O13   A    
C2    C36   A    
C31   H25   S    
C35   H33   S    
C1    O7    A    
C20   H39   S    
C24   H7    S    
C3    C5    A    
C6    C7    A    
C28   H18   S    
C1    O1    A    
C10   N1    A    
C20   H38   S    
O7    Zn2   S    
C24   H6    S    
C32   C33   S    
C4    C15   S    
C24   O2    S    
C26   H11   S    
C38   C39   A    
C11   O3    S    
C12   C19   A    
C33   C35   S    
C34   C36   A    
O9    Zn2   S    
C25   H9    S    
C39   O14   S    
C10   C11   A    
C33   H31   S    
C21   H2    S    
C2    C40   A    
C22   H5    S    
C20   C21   S    
O1    Zn1   S    
C30   H21   S    
O11   Zn2   S    
C14   O12   A    
C9    N1    A    
