data_mof_unit_64159.cif
_audit_creation_date              2012-12-11T14:34:38-0500
_audit_creation_method            fapswitch 2.2
_symmetry_space_group_name_H-M    P1
_symmetry_Int_Tables_number       1
_space_group_crystal_system       triclinic
_cell_length_a                    33.613506
_cell_length_b                    7.226841
_cell_length_c                    27.889492
_cell_angle_alpha                 89.966022
_cell_angle_beta                  140.243459
_cell_angle_gamma                 89.927461
_cell_volume                      4332.71372302

loop_
_atom_site_label
_atom_site_type_symbol
_atom_type_description
_atom_site_fract_x
_atom_site_fract_y
_atom_site_fract_z
_atom_type_partial_charge
O1    O     O_R   0.335930 0.530330 0.836120 -0.512919
O2    O     O_R   0.664070 0.469670 0.163880 -0.515469
O3    O     O_R   0.664070 0.530330 0.663880 -0.510651
O4    O     O_R   0.335930 0.469670 0.336120 -0.510225
O5    O     O_R   0.835930 0.030330 0.836120 -0.513088
O6    O     O_R   0.164070 0.969670 0.163880 -0.515356
O7    O     O_R   0.164070 0.030330 0.663880 -0.512904
O8    O     O_R   0.835930 0.969670 0.336120 -0.515434
O9    O     O_R   0.254100 0.856860 0.685510 -0.534964
O10   O     O_R   0.745900 0.143140 0.314490 -0.538285
O11   O     O_R   0.745900 0.856860 0.814490 -0.534367
O12   O     O_R   0.254100 0.143140 0.185510 -0.542286
O13   O     O_R   0.754100 0.356860 0.685510 -0.534320
O14   O     O_R   0.245900 0.643140 0.314490 -0.529148
O15   O     O_R   0.245900 0.356860 0.814490 -0.535102
O16   O     O_R   0.754100 0.643140 0.185510 -0.537820
C1    C     C_R   0.251379 0.692200 0.663135 0.750293
C2    C     C_R   0.748631 0.307800 0.336874 0.720589
C3    C     C_R   0.748636 0.692117 0.836885 0.752669
C4    C     C_R   0.251360 0.307882 0.163112 0.705811
C5    C     C_R   0.751336 0.192208 0.663097 0.745820
C6    C     C_R   0.248636 0.807798 0.336877 0.764691
C7    C     C_R   0.248635 0.192117 0.836882 0.749158
C8    C     C_R   0.751367 0.807885 0.163118 0.721252
O17   O     O_R   0.341180 0.859830 0.836880 -0.530121
O18   O     O_R   0.658820 0.140170 0.163120 -0.526420
O19   O     O_R   0.658820 0.859830 0.663120 -0.535177
O20   O     O_R   0.341180 0.140170 0.336880 -0.534771
O21   O     O_R   0.841180 0.359830 0.836880 -0.530554
O22   O     O_R   0.158820 0.640170 0.163120 -0.527064
O23   O     O_R   0.158820 0.359830 0.663120 -0.530130
O24   O     O_R   0.841180 0.640170 0.336880 -0.526355
O25   O     O_R   0.251370 0.033430 0.816330 -0.535154
O26   O     O_R   0.748630 0.966570 0.183670 -0.534792
O27   O     O_R   0.748630 0.033430 0.683670 -0.536996
O28   O     O_R   0.251370 0.966570 0.316330 -0.531136
O29   O     O_R   0.751370 0.533430 0.816330 -0.534853
O30   O     O_R   0.248630 0.466570 0.183670 -0.540948
O31   O     O_R   0.248630 0.533430 0.683670 -0.534488
O32   O     O_R   0.751370 0.466570 0.316330 -0.534781
C9    C     C_R   0.365860 0.688720 0.865254 0.759187
C10   C     C_R   0.633781 0.311725 0.137510 0.758058
C11   C     C_R   0.634041 0.689696 0.635359 0.761195
C12   C     C_R   0.365958 0.310298 0.364633 0.765620
C13   C     C_R   0.865860 0.188720 0.865256 0.758903
C14   C     C_R   0.133781 0.811725 0.137511 0.753576
C15   C     C_R   0.134086 0.188984 0.634713 0.758429
C16   C     C_R   0.866268 0.811449 0.362556 0.757432
O33   O     O_3   0.220230 0.697940 0.743080 -0.371515
O34   O     O_3   0.779770 0.302060 0.256920 -0.357215
O35   O     O_3   0.779770 0.697940 0.756920 -0.371795
O36   O     O_3   0.220230 0.302060 0.243080 -0.353651
O37   O     O_3   0.720230 0.197940 0.743080 -0.373459
O38   O     O_3   0.279770 0.802060 0.256920 -0.377100
O39   O     O_3   0.279770 0.197940 0.756920 -0.370958
O40   O     O_3   0.720230 0.802060 0.243080 -0.357622
V1    V     V_3+5 0.255280 0.971510 0.751280 1.536597
V2    V     V_3+5 0.744720 0.028490 0.248720 1.549189
V3    V     V_3+5 0.744720 0.971510 0.748720 1.534436
V4    V     V_3+5 0.255280 0.028490 0.251280 1.535137
V5    V     V_3+5 0.755280 0.471510 0.751280 1.538658
V6    V     V_3+5 0.244720 0.528490 0.248720 1.556186
V7    V     V_3+5 0.244720 0.471510 0.748720 1.536613
V8    V     V_3+5 0.755280 0.528490 0.251280 1.550257
C17   C     C_2   0.065293 0.167182 0.564685 -0.318800
C18   C     C_2   0.935434 0.832572 0.430055 -0.316147
C19   C     C_2   0.934586 0.166758 0.935261 -0.318793
C20   C     C_2   0.064671 0.833083 0.070136 -0.315239
C21   C     C_2   0.564965 0.670381 0.570503 -0.301924
C22   C     C_2   0.435029 0.329588 0.429454 -0.300795
C23   C     C_2   0.434586 0.666759 0.935254 -0.317686
C24   C     C_2   0.564671 0.333085 0.070134 -0.315574
C25   C     C_2   0.036403 0.007005 0.522808 0.241247
C26   C     C_2   0.967172 0.996503 0.453190 0.235078
C27   C     C_2   0.963593 0.007028 0.977570 0.241018
C28   C     C_2   0.032761 0.996743 0.047091 0.235246
C29   C     C_2   0.534213 0.514678 0.526739 0.240831
C30   C     C_2   0.465802 0.485166 0.473287 0.237791
C31   C     C_2   0.463594 0.507037 0.977565 0.241204
C32   C     C_2   0.532763 0.496752 0.047082 0.234953
H1    H     H_    0.961158 0.708977 0.463838 0.162246
H2    H     H_    0.037073 0.286795 0.547680 0.154833
H3    H     H_    0.039091 0.709778 0.036387 0.162339
H4    H     H_    0.962682 0.286013 0.951955 0.154721
H5    H     H_    0.460498 0.216209 0.436910 0.165256
H6    H     H_    0.539462 0.783887 0.562935 0.164241
H7    H     H_    0.539090 0.209771 0.036393 0.162678
H8    H     H_    0.462680 0.786007 0.951941 0.155213
C33   C     C_1   0.248379 0.186414 0.888786 -0.154865
C34   C     C_1   0.751777 0.813619 0.111355 -0.157034
C35   C     C_1   0.751602 0.186639 0.611210 -0.152116
C36   C     C_1   0.248249 0.813382 0.388651 -0.134621
C37   C     C_1   0.748389 0.686416 0.888796 -0.148495
C38   C     C_1   0.251751 0.313610 0.111330 -0.168281
C39   C     C_1   0.251719 0.686621 0.611317 -0.151708
C40   C     C_1   0.748194 0.313413 0.388603 -0.158794
C41   C     C_2   0.248033 0.173724 0.984435 -0.135180
C42   C     C_2   0.752312 0.826317 0.015878 -0.128471
C43   C     C_2   0.751986 0.173763 0.515613 -0.135540
C44   C     C_2   0.247591 0.826224 0.483995 -0.126135
C45   C     C_2   0.748069 0.673729 0.984470 -0.131176
C46   C     C_2   0.252280 0.326307 0.015847 -0.132482
C47   C     C_2   0.252315 0.673775 0.515914 -0.127286
C48   C     C_2   0.747582 0.326314 0.483991 -0.130923
C49   C     C_1   0.251962 0.317287 0.067878 0.016672
C50   C     C_1   0.748291 0.682755 0.932351 0.030150
C51   C     C_1   0.747944 0.317157 0.432013 0.021626
C52   C     C_1   0.251927 0.682909 0.567869 0.027633
C53   C     C_1   0.751996 0.817297 0.067911 0.024294
C54   C     C_1   0.248271 0.182750 0.932331 0.025045
C55   C     C_1   0.248006 0.817093 0.432066 0.035658
C56   C     C_1   0.751723 0.182923 0.567682 0.024820
H9    H     H_    0.256035 0.461452 0.002527 0.139419
H10   H     H_    0.744320 0.538579 0.997796 0.137939
H11   H     H_    0.743671 0.461528 0.497105 0.140195
H12   H     H_    0.256586 0.538675 0.503135 0.140997
H13   H     H_    0.756053 0.961469 0.002545 0.141025
H14   H     H_    0.244272 0.038581 0.997749 0.135877
H15   H     H_    0.243323 0.961326 0.496776 0.140791
H16   H     H_    0.755905 0.038553 0.502506 0.136982
Br1   Br    Br    0.928508 0.220665 0.393460 -0.505724
Br2   Br    Br    0.081189 0.790937 0.541433 -0.520038
Br3   Br    Br    0.071114 0.220420 0.106691 -0.505810
Br4   Br    Br    0.919076 0.791704 0.959572 -0.519979
Br5   Br    Br    0.423444 0.666222 0.473931 -0.568132
Br6   Br    Br    0.576613 0.333251 0.526257 -0.553930
Br7   Br    Br    0.571119 0.720457 0.106664 -0.506400
Br8   Br    Br    0.419079 0.291735 0.959573 -0.520305

loop_
_geom_bond_atom_site_label_1
_geom_bond_atom_site_label_2
_ccdc_geom_bond_type
C31   Br8   S    
C38   C49   T    
O33   V7    S    
C22   C30   D    
C2    C40   S    
C25   C26   S    
C21   C29   D    
O35   V5    S    
C23   C31   D    
O37   V3    S    
O38   V4    S    
C29   C30   S    
O11   C3    A    
O34   V8    S    
C15   C17   S    
O10   V2    S    
O2    C10   A    
O3    V5    S    
O14   V6    S    
O4    V6    S    
C17   C25   D    
C46   C49   S    
O27   V3    S    
C1    O31   A    
C41   H14   S    
C2    O32   A    
C3    O29   A    
O8    V2    S    
C43   H16   S    
C7    O25   A    
C13   C19   S    
C7    C33   S    
C12   C22   S    
C47   C52   S    
C1    C39   S    
C41   C46   D    
C3    C37   S    
C9    C23   S    
O15   C7    A    
C43   C48   D    
C19   H4    S    
C11   C21   S    
C42   C53   S    
O23   C15   A    
C45   H10   S    
C20   H3    S    
O17   V1    S    
O11   V3    S    
O1    V7    S    
O2    V8    S    
O20   V4    S    
O21   V5    S    
O5    V3    S    
C27   Br4   S    
O6    V4    S    
O24   V8    S    
O17   C9    A    
O4    C12   A    
O5    C13   A    
C33   C54   T    
O20   C12   A    
C44   C47   D    
C8    O26   A    
C23   H8    S    
O21   C13   A    
O7    C15   A    
C35   C56   T    
C27   C28   S    
O8    C16   A    
C14   C20   S    
O23   V7    S    
C37   C50   T    
C48   H11   S    
C4    O30   A    
O3    C11   A    
O12   C4    A    
C10   C24   S    
O13   C5    A    
C44   H15   S    
O18   V2    S    
O1    C9    A    
C40   C51   T    
O39   V1    S    
C19   C27   D    
C24   H7    S    
O31   V7    S    
O18   C10   A    
C42   H13   S    
C5    C35   S    
O9    C1    A    
C45   C50   S    
C4    C38   S    
O25   V1    S    
O6    C14   A    
C28   Br3   S    
O22   C14   A    
C6    C36   S    
O28   V4    S    
C8    C34   S    
O29   V5    S    
C36   C55   T    
C5    O27   A    
C32   Br7   S    
C20   C28   D    
C42   C45   D    
C6    O28   A    
O32   V8    S    
O14   C6    A    
O22   V6    S    
C47   H12   S    
C24   C32   D    
C46   H9    S    
O19   V3    S    
C18   H1    S    
C41   C54   S    
C30   Br5   S    
C17   H2    S    
O24   C16   A    
O10   C2    A    
C43   C56   S    
O40   V2    S    
O9    V1    S    
C39   C52   T    
C21   H6    S    
C31   C32   S    
O12   V4    S    
O19   C11   A    
C26   Br1   S    
O13   V5    S    
C44   C55   S    
O16   C8    A    
C25   Br2   S    
O26   V2    S    
O15   V7    S    
O36   V6    S    
O16   V8    S    
C34   C53   T    
C16   C18   S    
C22   H5    S    
O7    V1    S    
C48   C51   S    
C29   Br6   S    
O30   V6    S    
C18   C26   D    
