data_mof_unit_39586.cif
_audit_creation_date              2012-12-10T20:49:44-0500
_audit_creation_method            fapswitch 2.2
_symmetry_space_group_name_H-M    P1
_symmetry_Int_Tables_number       1
_space_group_crystal_system       triclinic
_cell_length_a                    8.09673
_cell_length_b                    8.923575
_cell_length_c                    16.711537
_cell_angle_alpha                 89.969529
_cell_angle_beta                  84.484674
_cell_angle_gamma                 90.059216
_cell_volume                      1201.84756288

loop_
_atom_site_label
_atom_site_type_symbol
_atom_type_description
_atom_site_fract_x
_atom_site_fract_y
_atom_site_fract_z
_atom_type_partial_charge
C1    C     C_R   0.500074 0.782044 0.499901 0.931230
C2    C     C_R   0.499957 0.217954 0.499935 0.939264
C3    C     C_1   0.500106 0.934795 0.499847 -0.189430
C4    C     C_1   0.499945 0.065194 0.499859 -0.186471
C5    C     C_R   0.476028 0.503202 0.654313 0.891976
C6    C     C_R   0.523778 0.501245 0.346258 0.897030
C7    C     C_R   0.455530 0.535188 0.740954 -0.166278
C8    C     C_R   0.539638 0.538456 0.261391 -0.144854
C9    C     C_R   0.585035 0.517977 0.790810 -0.151284
C10   C     C_R   0.446927 0.463472 0.207250 -0.144889
C11   C     C_R   0.559544 0.559927 0.872596 0.513367
C12   C     C_R   0.449993 0.515789 0.127373 0.525337
C13   C     C_R   0.411886 0.640009 0.900758 -0.053848
C14   C     C_R   0.525510 0.658098 0.107101 -0.063579
C15   C     C_R   0.284640 0.656363 0.849331 -0.061365
C16   C     C_R   0.617654 0.731016 0.163305 -0.029202
C17   C     C_R   0.305467 0.599971 0.771862 -0.257546
C18   C     C_R   0.628970 0.667574 0.238315 -0.253270
C19   C     C_2   0.383372 0.697475 0.985007 0.411007
C20   C     C_2   0.514966 0.728660 0.026695 0.438344
H1    H     H_    0.696259 0.726673 0.281820 0.167038
H2    H     H_    0.205947 0.615927 0.733600 0.189674
N1    N     N_1   0.926360 0.500000 0.499990 -0.023564
N2    N     N_1   0.073640 0.500000 0.500010 -0.024222
O1    O     O_R   0.363150 0.714660 0.500000 -0.615181
O2    O     O_R   0.636850 0.285340 0.500000 -0.612393
O3    O     O_R   0.636850 0.714660 0.500000 -0.617787
O4    O     O_R   0.363150 0.285340 0.500000 -0.609627
O5    O     O_R   0.346950 0.500000 0.615800 -0.618416
O6    O     O_R   0.653050 0.500000 0.384200 -0.614473
O7    O     O_R   0.620700 0.500000 0.615800 -0.608881
O8    O     O_R   0.379300 0.500000 0.384200 -0.606957
Zn1   Zn    Zn3+2 0.317220 0.500000 0.500010 1.002100
Zn2   Zn    Zn3+2 0.682780 0.500000 0.499990 1.001116
C21   C     C_1   0.132427 0.736609 0.872398 0.277248
N3    N     N_1   0.010358 0.800759 0.890334 -0.138642
C22   C     C_1   0.692323 0.876962 0.148515 0.228663
N4    N     N_1   0.751910 0.993936 0.137072 -0.230005
O9    O     O_3   0.363188 0.440720 0.071450 -0.561872
C23   C     C_3   0.410663 0.288949 0.061702 -0.304920
H3    H     H_    0.314374 0.215492 0.092883 0.185608
H4    H     H_    0.534055 0.262541 0.082444 0.141153
H5    H     H_    0.414048 0.260597 0.997087 0.171592
O10   O     O_3   0.684536 0.539051 0.923256 -0.562074
C24   C     C_3   0.731221 0.387093 0.929247 -0.247064
H6    H     H_    0.855710 0.370035 0.896695 0.189085
H7    H     H_    0.642031 0.305856 0.906699 0.105387
H8    H     H_    0.744183 0.361513 0.993183 0.189755
C25   C     C_1   0.746635 0.464314 0.758228 0.235611
N5    N     N_1   0.875741 0.421812 0.732092 -0.208528
C26   C     C_1   0.342227 0.338407 0.235156 0.217670
N6    N     N_1   0.258713 0.238834 0.257886 -0.204484
O11   O     O_3   0.657507 0.796866 0.989707 -0.550855
C27   C     C_3   0.617197 0.934148 0.954146 -0.337794
H9    H     H_    0.529600 0.001799 0.994830 0.119233
H10   H     H_    0.565491 0.914998 0.895820 0.157232
H11   H     H_    0.732422 0.000971 0.941843 0.208107
O12   O     O_3   0.225021 0.680154 0.024747 -0.563060
C28   C     C_3   0.176122 0.812583 0.066872 -0.280978
H12   H     H_    0.197947 0.914244 0.028552 0.129589
H13   H     H_    0.239832 0.823717 0.122534 0.145602
H14   H     H_    0.041076 0.805798 0.085187 0.234771

loop_
_geom_bond_atom_site_label_1
_geom_bond_atom_site_label_2
_ccdc_geom_bond_type
C1    C3    S    
C6    O8    A    
N1    N2    T    
C27   H10   S    
C15   C17   A    
C22   N4    T    
C17   H2    S    
C14   C20   S    
C18   H1    S    
C11   C13   A    
C2    C4    S    
N2    Zn1   S    
C16   C22   S    
N1    Zn2   S    
O8    Zn1   S    
C12   O9    S    
C23   H4    S    
O7    Zn2   S    
C11   O10   S    
C2    O2    A    
C16   C18   A    
C24   H6    S    
C1    O1    A    
C9    C11   A    
O3    Zn2   S    
C10   C12   A    
C10   C26   S    
C8    C10   A    
C23   H3    S    
C6    O6    A    
C12   C14   A    
O4    Zn1   S    
C5    C7    S    
C13   C15   A    
C19   O12   S    
C14   C16   A    
C28   H13   S    
C2    O4    A    
O6    Zn2   S    
C26   N6    T    
C5    O5    A    
O5    Zn1   S    
C28   H12   S    
C9    C25   S    
O10   C24   S    
C7    C9    A    
C25   N5    T    
C24   H7    S    
C15   C21   S    
O9    C23   S    
C1    O3    A    
C13   C19   S    
C27   H9    S    
C28   H14   S    
C6    C8    S    
C21   N3    T    
C24   H8    S    
C7    C17   A    
O12   C28   S    
O11   C27   S    
O2    Zn2   S    
C23   H5    S    
C8    C18   A    
C3    C4    T    
C19   C20   D    
O1    Zn1   S    
C20   O11   S    
C5    O7    A    
C27   H11   S    
