data_mof_unit_16669.cif
_audit_creation_date              2013-03-05T15:52:20-0500
_audit_creation_method            fapswitch 2.2
_symmetry_space_group_name_H-M    P1
_symmetry_Int_Tables_number       1
_space_group_crystal_system       triclinic
_cell_length_a                    15.12857
_cell_length_b                    15.24859
_cell_length_c                    10.045318
_cell_angle_alpha                 89.836675
_cell_angle_beta                  91.62706
_cell_angle_gamma                 89.786568
_cell_volume                      2316.38747386

loop_
_atom_site_label
_atom_site_type_symbol
_atom_site_description
_atom_site_fract_x
_atom_site_fract_y
_atom_site_fract_z
_atom_type_partial_charge
O1    O     O_R   0.408390 0.908380 0.614690 -0.539406
O2    O     O_R   0.408390 0.091620 0.614690 -0.585589
O3    O     O_R   0.908390 0.408380 0.614690 -0.550918
O4    O     O_R   0.908390 0.591620 0.614690 -0.586250
O5    O     O_R   0.408370 0.908380 0.385360 -0.651525
O6    O     O_R   0.408370 0.091620 0.385360 -0.659409
O7    O     O_R   0.908370 0.408380 0.385360 -0.649672
O8    O     O_R   0.908370 0.591620 0.385360 -0.658208
C1    C     C_R   0.383416 0.877029 0.497288 0.935222
C2    C     C_R   0.393143 0.129933 0.498786 0.921942
C3    C     C_R   0.886404 0.375001 0.500440 0.918473
C4    C     C_R   0.885771 0.625148 0.498758 0.928876
Zn1   Zn    Zn3+2 0.500010 0.000000 0.653130 1.030881
Zn2   Zn    Zn3+2 0.000010 0.500000 0.653130 1.029887
Zn3   Zn    Zn3+2 0.499980 0.000000 0.346870 0.973826
Zn4   Zn    Zn3+2 0.999980 0.500000 0.346870 0.973543
O9    O     O_R   0.591620 0.091610 0.614640 -0.605442
O10   O     O_R   0.591620 0.908390 0.614640 -0.622815
O11   O     O_R   0.091620 0.591610 0.614640 -0.599285
O12   O     O_R   0.091620 0.408390 0.614640 -0.616930
O13   O     O_R   0.591610 0.091610 0.385310 -0.621310
O14   O     O_R   0.591610 0.908390 0.385310 -0.603256
O15   O     O_R   0.091610 0.591610 0.385310 -0.611912
O16   O     O_R   0.091610 0.408390 0.385310 -0.617022
C5    C     C_R   0.619918 0.119453 0.501862 0.857828
C6    C     C_R   0.614371 0.874783 0.502693 0.878652
C7    C     C_R   0.118024 0.621774 0.502468 0.851347
C8    C     C_R   0.122460 0.381268 0.500547 0.864988
H1    H     H_    0.330755 0.221213 0.279316 0.185317
H2    H     H_    0.228621 0.884408 0.359965 0.154057
H3    H     H_    0.777617 0.669870 0.294660 0.185697
H4    H     H_    0.753703 0.357748 0.330036 0.166606
C9    C     C_R   0.377283 0.256234 0.731295 0.169044
C10   C     C_R   0.410991 0.681110 0.559744 0.074039
C11   C     C_R   0.867758 0.753578 0.719274 0.146739
C12   C     C_R   0.901226 0.217300 0.689540 0.139767
C13   C     C_R   0.334734 0.262904 0.852950 -0.242529
C14   C     C_R   0.419879 0.610221 0.648343 -0.142065
C15   C     C_R   0.838934 0.768494 0.846620 -0.226487
C16   C     C_R   0.908543 0.132306 0.741977 -0.149702
H5    H     H_    0.372634 0.264623 0.945903 0.193492
H6    H     H_    0.480572 0.572401 0.653580 0.232416
H7    H     H_    0.886612 0.775311 0.928351 0.212621
H8    H     H_    0.965157 0.113753 0.803667 0.256988
C17   C     C_R   0.749180 0.778590 0.868185 0.148494
C18   C     C_R   0.833180 0.083540 0.759019 0.117439
C19   C     C_R   0.242075 0.265059 0.851920 0.145093
C20   C     C_R   0.350551 0.590347 0.732377 0.152841
C21   C     C_R   0.687811 0.782884 0.760679 0.188017
C22   C     C_R   0.752993 0.121224 0.718150 0.133670
C23   C     C_R   0.195330 0.273411 0.729820 0.171361
C24   C     C_R   0.267368 0.629766 0.707541 0.126560
C25   C     C_R   0.719789 0.775649 0.629528 -0.005815
C26   C     C_R   0.754518 0.181043 0.610194 0.011160
C27   C     C_R   0.242135 0.294480 0.617369 -0.025547
C28   C     C_R   0.256872 0.685779 0.596325 0.031901
C29   C     C_R   0.326210 0.258172 0.612839 0.029738
C30   C     C_R   0.331366 0.728795 0.554287 0.029387
C31   C     C_R   0.805490 0.742944 0.614218 0.013537
C32   C     C_R   0.827017 0.237828 0.603717 0.057797
C33   C     C_R   0.348234 0.215504 0.494634 -0.099073
C34   C     C_R   0.318675 0.808231 0.486593 -0.025396
C35   C     C_R   0.823402 0.697164 0.496434 -0.071876
C36   C     C_R   0.824158 0.304468 0.503460 -0.051462
C37   C     C_R   0.310250 0.246284 0.374425 -0.161594
C38   C     C_R   0.238529 0.824987 0.418004 -0.101286
C39   C     C_R   0.766574 0.705325 0.385621 -0.150860
C40   C     C_R   0.756179 0.307345 0.406441 -0.138016
H9    H     H_    0.650798 0.767557 0.306531 0.219081
H10   H     H_    0.638472 0.248978 0.329761 0.175507
H11   H     H_    0.215223 0.333858 0.285594 0.194118
H12   H     H_    0.112941 0.770663 0.359323 0.168410
C41   C     C_R   0.693935 0.759236 0.392209 -0.118682
C42   C     C_R   0.689913 0.246282 0.407063 -0.155312
C43   C     C_R   0.241284 0.306727 0.377725 -0.136586
C44   C     C_R   0.172053 0.762697 0.421712 -0.138040
C45   C     C_R   0.672636 0.798954 0.511072 -0.090405
C46   C     C_R   0.688304 0.183978 0.508350 -0.065566
C47   C     C_R   0.201150 0.325009 0.499030 -0.087967
C48   C     C_R   0.180877 0.692518 0.511516 -0.063663
H13   H     H_    0.637056 0.983580 0.128887 0.179501
H14   H     H_    0.135666 0.473267 0.128854 0.158321
C49   C     C_R   0.344832 0.018109 0.144418 -0.219145
C50   C     C_R   0.844904 0.520845 0.142462 -0.223093
H15   H     H_    0.342100 0.004193 0.246621 0.246525
H16   H     H_    0.841325 0.503813 0.243986 0.239697
C51   C     C_R   0.264813 0.037405 0.087361 -0.304068
C52   C     C_R   0.766635 0.546541 0.085002 -0.307105
H17   H     H_    0.208733 0.044762 0.151308 0.228135
H18   H     H_    0.710234 0.554855 0.148019 0.222592
C53   C     C_R   0.252566 0.029465 0.952536 0.289833
C54   C     C_R   0.755999 0.547942 0.948956 0.283518
C55   C     C_R   0.326851 0.009965 0.872113 0.204603
C56   C     C_R   0.828467 0.523188 0.868313 0.201244
C57   C     C_R   0.418012 0.007979 0.928414 0.022634
C58   C     C_R   0.918683 0.513321 0.927177 0.027192
C59   C     C_R   0.421659 0.009723 0.072251 0.147742
C60   C     C_R   0.922024 0.512691 0.071393 0.160784
N1    N     N_R   0.498810 0.000000 0.142780 -0.119856
N2    N     N_R   0.998810 0.500000 0.142780 -0.116906
C61   C     C_R   0.574933 0.990365 0.073894 -0.022511
C62   C     C_R   0.074196 0.485087 0.073999 -0.030520
H19   H     H_    0.636147 0.978752 0.882030 0.168507
H20   H     H_    0.134710 0.469194 0.882408 0.159881
C63   C     C_R   0.574686 0.988853 0.932043 -0.019745
C64   C     C_R   0.073868 0.483550 0.932167 -0.016970
N3    N     N_R   0.498740 0.000000 0.857170 -0.109357
N4    N     N_R   0.998740 0.500000 0.857170 -0.106713
N5    N     N_R   0.161401 0.022810 0.905079 0.248374
O17   O     O_R   0.100538 0.067309 0.964589 -0.358823
O18   O     O_R   0.135317 0.957821 0.830275 -0.255780
N6    N     N_R   0.665954 0.557458 0.898125 0.237095
O19   O     O_R   0.611770 0.606523 0.963467 -0.344017
O20   O     O_R   0.631125 0.499417 0.818055 -0.270700
N7    N     N_R   0.301265 0.963079 0.757059 0.254537
O21   O     O_R   0.286111 0.879517 0.772116 -0.336411
O22   O     O_R   0.261583 0.004287 0.658495 -0.363077
N8    N     N_R   0.799507 0.480515 0.749451 0.258819
O23   O     O_R   0.773631 0.399694 0.762842 -0.327853
O24   O     O_R   0.760082 0.526685 0.655939 -0.379136
I1    I     I_    0.511567 0.287006 0.719775 -0.197570
I2    I     I_    0.489827 0.679062 0.391111 -0.293073
I3    I     I_    0.000991 0.782698 0.683827 -0.203189
I4    I     I_    0.949335 0.297634 0.846254 -0.187429
I5    I     I_    0.714751 0.800617 0.063632 -0.357390
I6    I     I_    0.843697 0.988042 0.910606 -0.266354
I7    I     I_    0.174669 0.260007 0.031073 -0.345717
I8    I     I_    0.374166 0.500850 0.890980 -0.218584
I9    I     I_    0.549962 0.771683 0.803482 -0.166628
I10   I     I_    0.688774 0.171991 0.887084 -0.220274
I11   I     I_    0.116463 0.166589 0.671332 -0.224227
I12   I     I_    0.191141 0.662074 0.874491 -0.196793

loop_
_geom_bond_atom_site_label_1
_geom_bond_atom_site_label_2
_geom_bond_distance
_ccdc_geom_bond_type
C30   C34   1.397373 A    
C49   C51   1.355570 A    
C51   C53   1.367524 A    
C25   C45   1.413716 A    
O10   C6    1.292144 A    
Zn1   N3    2.050282 S    
H20   C64   1.081770 S    
C25   C31   1.400104 A    
H13   C61   1.081035 S    
H4    C40   1.084420 S    
C16   C18   1.377993 A    
C63   N3    1.365068 A    
C22   C26   1.415813 A    
Zn1   O10   2.010167 S    
C13   H5    1.082207 S    
C36   C40   1.397097 A    
C12   I4    2.112130 S    
C50   H16   1.054599 S    
C14   H6    1.082401 S    
C20   C24   1.408150 A    
N5    O18   1.301056 A    
C20   I8    2.116604 S    
C40   C42   1.370898 A    
N7    O21   1.304635 A    
C11   C31   1.404670 A    
C55   N7    1.406452 S    
C8    C47   1.465228 S    
O2    Zn1   1.993552 S    
N8    O23   1.302232 A    
C22   I10   2.125663 S    
O6    Zn3   2.010273 S    
C10   I2    2.099465 S    
Zn3   O14   1.993550 S    
C19   C23   1.403527 A    
C52   C54   1.371615 A    
C17   I5    2.073476 S    
N7    O22   1.302089 A    
C58   C60   1.448140 A    
H10   C42   1.084241 S    
C44   C48   1.401201 A    
H9    C41   1.072196 S    
C39   C41   1.373128 A    
O15   C7    1.316842 A    
C13   C19   1.401794 A    
O11   C7    1.290259 A    
C16   H8    1.079205 S    
C14   C20   1.398450 A    
H12   C44   1.083608 S    
C15   C17   1.389149 A    
Zn2   N4    2.050282 S    
C58   N4    1.431802 A    
O8    Zn4   2.010273 S    
C9    I1    2.093039 S    
C49   C59   1.392858 A    
N2    C62   1.368763 A    
N6    O19   1.300515 A    
C59   N1    1.355512 A    
O7    C3    1.313617 A    
C61   C63   1.425085 A    
C35   C39   1.392054 A    
C6    C45   1.452137 S    
C34   C38   1.399775 A    
C1    C34   1.440040 S    
C24   I12   2.120255 S    
Zn2   O12   2.010167 S    
C12   C16   1.400419 A    
O1    C1    1.319622 A    
C7    C48   1.442027 S    
C4    C35   1.444860 S    
C23   I11   2.098135 S    
Zn4   N2    2.049723 S    
C26   C32   1.402787 A    
O12   C8    1.316774 A    
C21   I9    2.148561 S    
C9    C13   1.401086 A    
C5    C46   1.430678 S    
C11   C15   1.382354 A    
O5    C1    1.287483 A    
C53   C55   1.433358 A    
C27   C47   1.402549 A    
C17   C21   1.405244 A    
O8    C4    1.303842 A    
C38   C44   1.387105 A    
C54   C56   1.431696 A    
H14   C62   1.081683 S    
H19   C63   1.080100 S    
C56   C58   1.478922 A    
H2    C38   1.083689 S    
O3    Zn2   2.002314 S    
C57   N3    1.437912 A    
H1    C37   1.083143 S    
N6    O20   1.300512 A    
O7    Zn4   2.015910 S    
C49   H15   1.049756 S    
C52   H18   1.084056 S    
C3    C36   1.432990 S    
Zn4   O15   2.002309 S    
C60   N2    1.360658 A    
C27   C29   1.387298 A    
O14   C6    1.320512 A    
C2    C33   1.468812 S    
O4    C4    1.306671 A    
O2    C2    1.315277 A    
O16   C8    1.301553 A    
O13   C5    1.307722 A    
C9    C29   1.400444 A    
N1    C61   1.367941 A    
C10   C14   1.401896 A    
Zn2   O11   2.015802 S    
C18   I6    2.106289 S    
C54   N6    1.447807 S    
C50   C52   1.358385 A    
Zn3   N1    2.049723 S    
C12   C32   1.429166 A    
C28   C48   1.414614 A    
O6    C2    1.307790 A    
C15   H7    1.082847 S    
C57   C59   1.444698 A    
C29   C33   1.403401 A    
C18   C22   1.391251 A    
C31   C35   1.407891 A    
C37   C43   1.390726 A    
Zn1   O9    2.015802 S    
C32   C36   1.428317 A    
C50   C60   1.390350 A    
C53   N5    1.450420 S    
C11   I3    2.105516 S    
O9    C5    1.293493 A    
N5    O17   1.301742 A    
H11   C43   1.076575 S    
C56   N8    1.420513 S    
C55   C57   1.475830 A    
C64   N4    1.367658 A    
C19   I7    2.094898 S    
C21   C25   1.420749 A    
C28   C30   1.381895 A    
C62   C64   1.424872 A    
C23   C27   1.387685 A    
O4    Zn2   1.993552 S    
N8    O24   1.301956 A    
O5    Zn3   2.015910 S    
O3    C3    1.292198 A    
H3    C39   1.079774 S    
C33   C37   1.401434 A    
Zn3   O13   2.002309 S    
O1    Zn1   2.002314 S    
Zn4   O16   1.993550 S    
C42   C46   1.390854 A    
C10   C30   1.404385 A    
C51   H17   1.084276 S    
C41   C45   1.385944 A    
C43   C47   1.404958 A    
C24   C28   1.409381 A    
C26   C46   1.411845 A    
