data_mof_unit_28022.cif
_audit_creation_date              2012-12-10T18:09:35-0500
_audit_creation_method            fapswitch 2.2
_symmetry_space_group_name_H-M    P1
_symmetry_Int_Tables_number       1
_space_group_crystal_system       triclinic
_cell_length_a                    15.224248
_cell_length_b                    15.142107
_cell_length_c                    9.456249
_cell_angle_alpha                 90.180789
_cell_angle_beta                  90.040895
_cell_angle_gamma                 90.031907
_cell_volume                      2179.91078279

loop_
_atom_site_label
_atom_site_type_symbol
_atom_type_description
_atom_site_fract_x
_atom_site_fract_y
_atom_site_fract_z
_atom_type_partial_charge
C1    C     C_R   0.120076 0.379898 0.500001 0.778570
C2    C     C_R   0.119712 0.620504 0.500031 0.834844
C3    C     C_R   0.620076 0.879898 0.500001 0.778573
C4    C     C_R   0.619711 0.120505 0.500031 0.834847
C5    C     C_3   0.067852 0.437651 0.083558 -0.430982
C6    C     C_3   0.065427 0.435083 0.915894 -0.442894
C7    C     C_3   0.567850 0.937648 0.083558 -0.430965
C8    C     C_3   0.565427 0.935083 0.915895 -0.442930
C9    C     C_R   0.880264 0.379816 0.499616 0.800656
C10   C     C_R   0.881183 0.621153 0.500246 0.846310
C11   C     C_R   0.380265 0.879815 0.499616 0.800644
C12   C     C_R   0.381183 0.121153 0.500247 0.846307
C13   C     C_3   0.841428 0.229820 0.583995 -0.392263
C14   C     C_3   0.789042 0.281974 0.345228 -0.385646
C15   C     C_3   0.799799 0.729128 0.651237 -0.394956
C16   C     C_3   0.836691 0.765974 0.398613 -0.340590
C17   C     C_3   0.341425 0.729823 0.584013 -0.392263
C18   C     C_3   0.289052 0.781963 0.345229 -0.385642
C19   C     C_3   0.299798 0.229127 0.651238 -0.394936
C20   C     C_3   0.336692 0.265975 0.398616 -0.340596
C21   C     C_3   0.270948 0.656771 0.579117 -0.513349
C22   C     C_3   0.216652 0.711725 0.345572 -0.409149
C23   C     C_3   0.229916 0.301770 0.650136 -0.478810
C24   C     C_3   0.264391 0.337188 0.398295 -0.440372
C25   C     C_3   0.770950 0.156768 0.579099 -0.513351
C26   C     C_3   0.716641 0.211736 0.345572 -0.409151
C27   C     C_3   0.729916 0.801770 0.650135 -0.478795
C28   C     C_3   0.764390 0.837187 0.398293 -0.440374
C29   C     C_3   0.726114 0.349419 0.566727 -0.467709
C30   C     C_3   0.723977 0.648286 0.452136 -0.369600
C31   C     C_3   0.226112 0.849421 0.566710 -0.467715
C32   C     C_3   0.223977 0.148286 0.452134 -0.369612
C33   C     C_3   0.810724 0.311552 0.498832 0.071259
C34   C     C_3   0.811966 0.689863 0.500661 0.010264
C35   C     C_3   0.310725 0.811550 0.498833 0.071273
C36   C     C_3   0.311966 0.189863 0.500662 0.010265
C37   C     C_3   0.188071 0.690394 0.500032 0.103042
C38   C     C_3   0.188767 0.310449 0.499901 0.087540
C39   C     C_3   0.688069 0.190395 0.500032 0.103038
C40   C     C_3   0.688767 0.810449 0.499900 0.087536
C41   C     C_3   0.152689 0.777472 0.570836 0.765311
C42   C     C_3   0.149691 0.219043 0.450867 0.752984
C43   C     C_3   0.652692 0.277469 0.570855 0.765320
C44   C     C_3   0.649690 0.719043 0.450868 0.752982
C45   C     C_3   0.024540 0.588761 0.083938 0.330591
C46   C     C_3   0.029311 0.587244 0.916516 0.342600
C47   C     C_3   0.915305 0.469141 0.084615 0.297536
C48   C     C_3   0.914039 0.473233 0.916419 0.303445
C49   C     C_3   0.524545 0.088759 0.083938 0.330546
C50   C     C_3   0.529308 0.087245 0.916513 0.342641
C51   C     C_3   0.415303 0.969145 0.084614 0.297536
C52   C     C_3   0.414040 0.973235 0.916418 0.303562
Cu1   Cu    Cu3+1 0.000100 0.500000 0.642410 0.985325
Cu2   Cu    Cu3+1 0.000100 0.500000 0.357590 0.973717
Cu3   Cu    Cu3+1 0.500100 0.000000 0.642410 0.985337
Cu4   Cu    Cu3+1 0.500100 0.000000 0.357590 0.973694
H1    H     H_    0.854244 0.248569 0.696045 0.170432
H2    H     H_    0.766743 0.339452 0.281489 0.180901
H3    H     H_    0.779264 0.676587 0.726290 0.195345
H4    H     H_    0.844799 0.740240 0.289258 0.213503
H5    H     H_    0.354235 0.748577 0.696063 0.170429
H6    H     H_    0.266756 0.839437 0.281478 0.180858
H7    H     H_    0.279262 0.176586 0.726289 0.195351
H8    H     H_    0.344801 0.240242 0.289261 0.213486
H9    H     H_    0.903874 0.203927 0.539259 0.221743
H10   H     H_    0.848845 0.254550 0.293496 0.172041
H11   H     H_    0.862992 0.757313 0.689819 0.219092
H12   H     H_    0.900284 0.796014 0.431156 0.207973
H13   H     H_    0.403874 0.703926 0.539289 0.221745
H14   H     H_    0.348859 0.754537 0.293509 0.172043
H15   H     H_    0.362991 0.257311 0.689822 0.219098
H16   H     H_    0.400285 0.296015 0.431162 0.207976
H17   H     H_    0.297946 0.597794 0.523557 0.178808
H18   H     H_    0.241540 0.651029 0.292182 0.159739
H19   H     H_    0.260718 0.365584 0.681839 0.185955
H20   H     H_    0.292924 0.401725 0.431561 0.157364
H21   H     H_    0.797945 0.097795 0.523527 0.178809
H22   H     H_    0.741525 0.151044 0.292168 0.159744
H23   H     H_    0.760718 0.865584 0.681837 0.185956
H24   H     H_    0.792924 0.901724 0.431558 0.157365
H25   H     H_    0.254902 0.635060 0.688285 0.172403
H26   H     H_    0.159751 0.735800 0.282562 0.225784
H27   H     H_    0.179316 0.286989 0.731412 0.182501
H28   H     H_    0.239393 0.345776 0.288585 0.205436
H29   H     H_    0.754911 0.135051 0.688266 0.172401
H30   H     H_    0.659736 0.235815 0.282575 0.225797
H31   H     H_    0.679317 0.786989 0.731411 0.182499
H32   H     H_    0.739392 0.845775 0.288583 0.205436
H33   H     H_    0.740484 0.374484 0.675102 0.176914
H34   H     H_    0.703819 0.407659 0.504645 0.162279
H35   H     H_    0.706750 0.592223 0.522828 0.130641
H36   H     H_    0.732145 0.619136 0.344640 0.207551
H37   H     H_    0.240476 0.874491 0.675085 0.176913
H38   H     H_    0.203820 0.907658 0.504617 0.162272
H39   H     H_    0.206750 0.092223 0.522824 0.130639
H40   H     H_    0.232146 0.119138 0.344638 0.207548
H41   H     H_    0.092105 0.605344 0.120270 0.098019
H42   H     H_    0.100110 0.596416 0.890274 0.104111
H43   H     H_    0.907432 0.397994 0.113479 0.063413
H44   H     H_    0.900784 0.404227 0.881499 0.104765
H45   H     H_    0.592115 0.105334 0.120260 0.098021
H46   H     H_    0.600106 0.096420 0.890264 0.104119
H47   H     H_    0.407427 0.897998 0.113481 0.063369
H48   H     H_    0.400784 0.904228 0.881499 0.104741
H49   H     H_    0.134884 0.456665 0.119580 0.174891
H50   H     H_    0.132528 0.448539 0.874611 0.183065
H51   H     H_    0.056461 0.369793 0.124277 0.206096
H52   H     H_    0.048687 0.367053 0.879934 0.186456
H53   H     H_    0.634882 0.956658 0.119583 0.174896
H54   H     H_    0.632528 0.948541 0.874615 0.183067
H55   H     H_    0.556455 0.869790 0.124275 0.206092
H56   H     H_    0.548688 0.867054 0.879932 0.186463
N1    N     N_3   0.001260 0.500000 0.143650 -0.161534
N2    N     N_3   0.001260 0.500000 0.856350 -0.178019
N3    N     N_3   0.501260 0.000000 0.143650 -0.161534
N4    N     N_3   0.501260 0.000000 0.856350 -0.178029
O1    O     O_R   0.091250 0.408820 0.620260 -0.602890
O2    O     O_R   0.091250 0.408820 0.379740 -0.604173
O3    O     O_R   0.091250 0.591180 0.620260 -0.544374
O4    O     O_R   0.091250 0.591180 0.379740 -0.590192
O5    O     O_R   0.591250 0.908820 0.620260 -0.602890
O6    O     O_R   0.591250 0.908820 0.379740 -0.604170
O7    O     O_R   0.591250 0.091180 0.620260 -0.544374
O8    O     O_R   0.591250 0.091180 0.379740 -0.590179
O9    O     O_R   0.908940 0.408800 0.620260 -0.570071
O10   O     O_R   0.908940 0.408800 0.379740 -0.580337
O11   O     O_R   0.908940 0.591200 0.620260 -0.506989
O12   O     O_R   0.908940 0.591200 0.379740 -0.497301
O13   O     O_R   0.408940 0.908800 0.620260 -0.570071
O14   O     O_R   0.408940 0.908800 0.379740 -0.580370
O15   O     O_R   0.408940 0.091200 0.620260 -0.506952
O16   O     O_R   0.408940 0.091200 0.379740 -0.497331
O17   O     O_3   0.125510 0.761877 0.711428 -0.697954
H57   H     H_    0.178126 0.752181 0.771228 0.296428
O18   O     O_3   0.079469 0.807229 0.493408 -0.753379
H58   H     H_    0.053406 0.857403 0.546693 0.335496
O19   O     O_3   0.079579 0.192842 0.539525 -0.794697
H59   H     H_    0.103494 0.175414 0.632873 0.305339
O20   O     O_3   0.118279 0.225534 0.310880 -0.750498
H60   H     H_    0.056812 0.247328 0.314147 0.334918
O21   O     O_3   0.625523 0.261866 0.711448 -0.697966
H61   H     H_    0.678143 0.252168 0.771239 0.296417
O22   O     O_3   0.579467 0.307229 0.493444 -0.753382
H62   H     H_    0.553407 0.357400 0.546740 0.335498
O23   O     O_3   0.579578 0.692843 0.539526 -0.794697
H63   H     H_    0.603493 0.675415 0.632875 0.305337
O24   O     O_3   0.618278 0.725533 0.310881 -0.750498
H64   H     H_    0.556812 0.747328 0.314147 0.334918
O25   O     O_3   0.971912 0.657036 0.138630 -0.688114
H65   H     H_    0.911537 0.650153 0.102350 0.339115
O26   O     O_3   0.988508 0.659416 0.850277 -0.640448
H66   H     H_    0.926518 0.662493 0.878600 0.319032
O27   O     O_3   0.844746 0.513972 0.147900 -0.730415
H67   H     H_    0.790920 0.478962 0.128055 0.304517
O28   O     O_3   0.844543 0.522284 0.857367 -0.724723
H68   H     H_    0.825562 0.569176 0.923342 0.316367
O29   O     O_3   0.471932 0.157041 0.138641 -0.688139
H69   H     H_    0.411548 0.150157 0.102396 0.339137
O30   O     O_3   0.488497 0.159412 0.850275 -0.640417
H70   H     H_    0.426517 0.162512 0.878663 0.318993
O31   O     O_3   0.344747 0.013986 0.147889 -0.730468
H71   H     H_    0.290932 0.978937 0.128175 0.304538
O32   O     O_3   0.344546 0.022286 0.857363 -0.724684
H72   H     H_    0.325561 0.069177 0.923339 0.316411

loop_
_geom_bond_atom_site_label_1
_geom_bond_atom_site_label_2
_ccdc_geom_bond_type
C18   H14   S    
Cu3   Cu4   S    
Cu3   O5    S    
C17   H13   S    
O29   H69   S    
C12   O15   A    
Cu2   O4    S    
C43   O22   S    
O32   H72   S    
C49   O29   S    
C14   C33   S    
C41   O17   S    
O31   H71   S    
C7    C8    S    
C5    H49   S    
C45   C46   S    
Cu2   O10   S    
C26   H22   S    
C23   H27   S    
C49   N3    S    
C25   H21   S    
C32   C36   S    
C38   C42   S    
C27   H23   S    
C19   C36   S    
C8    H56   S    
C49   H45   S    
C5    C6    S    
Cu1   O1    S    
C26   C39   S    
C10   O12   A    
C13   H1    S    
Cu3   N4    S    
C28   C40   S    
C51   H47   S    
O22   H62   S    
Cu2   N1    S    
C21   H17   S    
C44   O24   S    
C47   H43   S    
C4    O8    A    
C16   H4    S    
C7    N3    S    
C6    N2    S    
Cu1   O11   S    
O24   H64   S    
C17   H5    S    
C19   H15   S    
C20   C24   S    
C29   C33   S    
C19   H7    S    
Cu3   O13   S    
C28   H32   S    
C24   C38   S    
O26   H66   S    
C16   H12   S    
C12   C36   S    
C12   O16   A    
C18   C35   S    
C15   C34   S    
C45   O25   S    
C16   C28   S    
Cu4   O8    S    
C3    O6    A    
C16   C34   S    
C46   O26   S    
C46   H42   S    
C29   C43   S    
C42   O19   S    
C9    C33   S    
C30   C44   S    
C14   H2    S    
C11   O13   A    
C29   H33   S    
C29   H34   S    
O23   H63   S    
C52   N4    S    
C6    H50   S    
C48   H44   S    
Cu3   O7    S    
C30   C34   S    
C51   C52   S    
C47   C48   S    
O18   H58   S    
C30   H36   S    
C46   N2    S    
C24   H20   S    
C13   H9    S    
C47   O27   S    
C31   H37   S    
C22   C37   S    
Cu2   O12   S    
C9    O9    A    
C7    H53   S    
C4    O7    A    
Cu4   O6    S    
C20   H8    S    
C19   C23   S    
C13   C33   S    
C8    H54   S    
C15   C27   S    
O30   H70   S    
C4    C39   S    
C27   C40   S    
C26   H30   S    
C15   H11   S    
C25   H29   S    
C44   O23   S    
C14   H10   S    
C10   C34   S    
C1    O1    A    
C14   C26   S    
C27   H31   S    
Cu4   O16   S    
Cu1   O9    S    
C1    C38   S    
C32   H40   S    
C48   O28   S    
C21   H25   S    
C3    C40   S    
C50   H46   S    
Cu3   O15   S    
Cu2   O2    S    
O17   H57   S    
C31   C35   S    
C43   O21   S    
C22   H18   S    
C10   O11   A    
C23   C38   S    
C11   O14   A    
C22   H26   S    
C41   O18   S    
Cu1   N2    S    
C48   N2    S    
C5    H51   S    
C47   N1    S    
C52   H48   S    
C6    H52   S    
C31   C41   S    
C5    N1    S    
C42   O20   S    
C18   C22   S    
C15   H3    S    
C18   H6    S    
C23   H19   S    
C30   H35   S    
C13   C25   S    
C39   C43   S    
O20   H60   S    
Cu1   O3    S    
Cu1   Cu2   S    
C50   O30   S    
C31   H38   S    
O19   H59   S    
C9    O10   A    
C11   C35   S    
C24   H28   S    
C45   H41   S    
O21   H61   S    
C25   C39   S    
C2    C37   S    
C2    O3    A    
Cu4   N3    S    
C7    H55   S    
C51   O31   S    
C50   N4    S    
C1    O2    A    
C37   C41   S    
C28   H24   S    
C51   N3    S    
C8    N4    S    
C52   O32   S    
C20   C36   S    
C45   N1    S    
C40   C44   S    
C32   H39   S    
C21   C37   S    
C49   C50   S    
O28   H68   S    
C32   C42   S    
C20   H16   S    
C17   C35   S    
C2    O4    A    
O27   H67   S    
O25   H65   S    
Cu4   O14   S    
C3    O5    A    
C17   C21   S    
