data_mof_unit_12790.cif
_audit_creation_date              2012-12-10T19:15:22-0500
_audit_creation_method            fapswitch 2.2
_symmetry_space_group_name_H-M    P1
_symmetry_Int_Tables_number       1
_space_group_crystal_system       triclinic
_cell_length_a                    10.60538
_cell_length_b                    9.739297
_cell_length_c                    23.394538
_cell_angle_alpha                 90.553601
_cell_angle_beta                  89.625593
_cell_angle_gamma                 89.933737
_cell_volume                      2416.23098331

loop_
_atom_site_label
_atom_site_type_symbol
_atom_type_description
_atom_site_fract_x
_atom_site_fract_y
_atom_site_fract_z
_atom_type_partial_charge
C1    C     C_R   0.257801 0.500325 0.500874 0.832284
C2    C     C_R   0.614157 0.531488 0.118978 0.490150
C3    C     C_R   0.575689 0.411165 0.237739 -0.108173
C4    C     C_R   0.500401 0.500050 0.389561 0.861435
C5    C     C_R   0.575262 0.408629 0.297068 -0.247642
C6    C     C_R   0.501840 0.502880 0.327839 -0.055529
C7    C     C_R   0.435108 0.605842 0.299549 -0.227497
C8    C     C_R   0.438070 0.610816 0.240388 -0.109514
C9    C     C_R   0.506254 0.511787 0.209293 0.306212
C10   C     C_R   0.488819 0.384597 0.763377 0.534572
C11   C     C_R   0.487516 0.381330 0.703731 -0.331964
C12   C     C_R   0.266847 0.516819 0.971728 0.444190
C13   C     C_R   0.501678 0.503374 0.672943 -0.099854
C14   C     C_R   0.516014 0.628990 0.702050 -0.223361
C15   C     C_R   0.515125 0.632774 0.761217 -0.200569
C16   C     C_R   0.742428 0.500279 0.500923 0.823820
C17   C     C_R   0.500577 0.511413 0.791736 0.233404
C18   C     C_3   0.071558 0.650236 0.509997 -0.399588
C19   C     C_3   0.071843 0.411492 0.551153 -0.397560
C20   C     C_3   0.928493 0.650036 0.510884 -0.401287
C21   C     C_3   0.927175 0.410370 0.550824 -0.398986
C22   C     C_3   0.073251 0.443376 0.443773 -0.403946
C23   C     C_R   0.268630 0.496924 0.031183 0.123862
C24   C     C_3   0.121463 0.501307 0.501484 0.187103
C25   C     C_3   0.878796 0.501329 0.501548 0.184515
C26   C     C_3   0.928652 0.444669 0.443598 -0.399960
C27   C     C_3   0.371316 0.080589 0.489835 -0.298672
C28   C     C_3   0.373209 0.918640 0.485848 -0.284844
C29   C     C_3   0.588534 0.078536 0.454631 0.427853
C30   C     C_3   0.596222 0.916348 0.457626 0.450504
C31   C     C_3   0.540838 0.082212 0.554852 -0.381402
C32   C     C_3   0.534130 0.919827 0.555796 -0.376719
C33   C     C_R   0.500476 0.500726 0.610681 0.897783
C34   C     C_R   0.384406 0.504695 0.061122 -0.132912
C35   C     C_R   0.610653 0.532824 0.880387 0.483095
C36   C     C_R   0.386361 0.509002 0.880628 0.579653
C37   C     C_R   0.381975 0.518230 0.940615 -0.200254
C38   C     C_R   0.497240 0.525849 0.970276 -0.080504
C39   C     C_R   0.612348 0.535961 0.939895 0.029728
C40   C     C_3   0.128223 0.662028 0.927032 0.153868
C41   C     C_3   0.068041 0.748612 0.975049 -0.454889
C42   C     C_3   0.033003 0.891580 0.954183 -0.895596
C43   C     C_3   0.123720 0.322584 0.062318 -0.640441
C44   C     C_3   0.470911 0.098785 0.365236 0.186050
C45   C     C_R   0.498187 0.522591 0.030350 -0.066969
C46   C     C_3   0.509274 0.058830 0.303813 -0.368387
C47   C     C_3   0.398303 0.070304 0.262893 -0.956464
C48   C     C_3   0.698688 0.803596 0.379787 0.101229
C49   C     C_3   0.797810 0.914392 0.366571 -0.414609
C50   C     C_3   0.915960 0.850393 0.339845 -0.956496
C51   C     C_3   0.579980 0.187636 0.794497 0.058757
C52   C     C_3   0.559908 0.062636 0.832522 -0.320254
C53   C     C_3   0.677669 0.972556 0.834553 -0.950899
C54   C     C_R   0.614032 0.534057 0.059464 0.029152
C55   C     C_R   0.727213 0.547539 0.028688 -0.175866
C56   C     C_R   0.726432 0.547473 0.969405 -0.173837
C57   C     C_R   0.390796 0.498345 0.121162 0.534341
H1    H     H_    0.474118 0.284021 0.681818 0.160333
H2    H     H_    0.894577 0.719483 0.476829 0.169168
H3    H     H_    0.893648 0.302757 0.545372 0.171150
H4    H     H_    0.109620 0.506360 0.407779 0.160437
H5    H     H_    0.107582 0.336328 0.436928 0.168459
H6    H     H_    0.894540 0.509703 0.407976 0.154665
H7    H     H_    0.893273 0.338506 0.435907 0.178287
H8    H     H_    0.324703 0.127071 0.452606 0.136265
H9    H     H_    0.340044 0.879511 0.443958 0.159746
H10   H     H_    0.309006 0.111759 0.526223 0.164006
H11   H     H_    0.303312 0.878374 0.517108 0.161475
H12   H     H_    0.527425 0.724434 0.679212 0.160951
H13   H     H_    0.638426 0.116703 0.564579 0.148994
H14   H     H_    0.626106 0.877179 0.569848 0.157884
H15   H     H_    0.480426 0.124090 0.589917 0.193827
H16   H     H_    0.463935 0.887401 0.588544 0.186837
H17   H     H_    0.684241 0.113456 0.467581 0.039752
H18   H     H_    0.690605 0.890353 0.475804 -0.011673
H19   H     H_    0.816960 0.556111 0.050272 0.180414
H20   H     H_    0.815484 0.555440 0.946766 0.195355
H21   H     H_    0.630039 0.335597 0.213873 0.151103
H22   H     H_    0.633832 0.335660 0.319177 0.179731
H23   H     H_    0.524957 0.730018 0.783549 0.157338
H24   H     H_    0.380526 0.681756 0.323200 0.162918
H25   H     H_    0.386310 0.690439 0.218587 0.148873
H26   H     H_    0.061351 0.657095 0.890708 0.202876
H27   H     H_    0.214424 0.714548 0.910679 0.126189
H28   H     H_    0.981447 0.697192 0.990853 0.226943
H29   H     H_    0.135237 0.759328 0.011051 0.220624
H30   H     H_    0.118286 0.946273 0.938663 0.265084
H31   H     H_    0.990531 0.951924 0.989943 0.269107
H32   H     H_    0.963243 0.884174 0.919061 0.269195
H33   H     H_    0.077522 0.525150 0.047767 0.236142
H34   H     H_    0.104957 0.717092 0.474598 0.171444
H35   H     H_    0.105809 0.282136 0.018523 0.229854
H36   H     H_    0.037737 0.307279 0.088826 0.233502
H37   H     H_    0.202402 0.264213 0.081760 0.243916
H38   H     H_    0.407048 0.188939 0.363794 0.157559
H39   H     H_    0.416180 0.012353 0.381603 0.131318
H40   H     H_    0.587334 0.123959 0.288159 0.220135
H41   H     H_    0.543179 0.951099 0.302475 0.241741
H42   H     H_    0.319498 0.003621 0.277223 0.258831
H43   H     H_    0.428341 0.036917 0.219369 0.270174
H44   H     H_    0.365073 0.178364 0.260825 0.284517
H45   H     H_    0.107137 0.304190 0.546645 0.171469
H46   H     H_    0.676227 0.749290 0.339163 0.171555
H47   H     H_    0.738420 0.724648 0.408210 0.151148
H48   H     H_    0.758647 0.990343 0.336480 0.249849
H49   H     H_    0.826053 0.969452 0.406187 0.201067
H50   H     H_    0.958741 0.775546 0.369599 0.255362
H51   H     H_    0.986124 0.932030 0.330804 0.267098
H52   H     H_    0.892405 0.797234 0.299074 0.283159
H53   H     H_    0.660046 0.248992 0.811899 0.168804
H54   H     H_    0.603917 0.151143 0.750455 0.131451
H55   H     H_    0.535618 0.097683 0.876610 0.234147
H56   H     H_    0.106900 0.694763 0.550897 0.169497
H57   H     H_    0.480029 0.000655 0.815795 0.223601
H58   H     H_    0.702527 0.934405 0.791012 0.266211
H59   H     H_    0.659579 0.882847 0.862387 0.273547
H60   H     H_    0.758271 0.031571 0.852274 0.273390
H61   H     H_    0.105942 0.452640 0.592836 0.165875
H62   H     H_    0.893974 0.692001 0.552606 0.170700
H63   H     H_    0.890383 0.449254 0.592631 0.162388
N1    N     N_R   0.499136 0.517550 0.852441 -0.343064
N2    N     N_R   0.503925 0.513189 0.148323 -0.358432
N3    N     N_3   0.499750 0.138610 0.498760 -0.080419
N4    N     N_3   0.499750 0.861390 0.498760 -0.069492
N5    N     N_2   0.153559 0.467367 0.060361 -0.236963
O1    O     O_R   0.314910 0.616040 0.499990 -0.635950
O2    O     O_2   0.279911 0.488902 0.850418 -0.511363
O3    O     O_2   0.285436 0.478379 0.152616 -0.537380
O4    O     O_2   0.723393 0.548417 0.147521 -0.571950
O5    O     O_3   0.150983 0.525109 0.944713 -0.611544
O6    O     O_3   0.578580 0.134499 0.398235 -0.637707
O7    O     O_3   0.583485 0.857186 0.402277 -0.636742
O8    O     O_3   0.468161 0.266417 0.794329 -0.630290
O9    O     O_R   0.314910 0.383960 0.499990 -0.636351
O10   O     O_R   0.500080 0.616070 0.416130 -0.577540
O11   O     O_R   0.500080 0.383930 0.416130 -0.579230
O12   O     O_R   0.685320 0.616040 0.499970 -0.646078
O13   O     O_R   0.685320 0.383960 0.499970 -0.623849
O14   O     O_R   0.500150 0.616010 0.583820 -0.629375
O15   O     O_R   0.500150 0.383990 0.583820 -0.629108
O16   O     O_2   0.719485 0.542897 0.850441 -0.578939
Zn1   Zn    Zn3+2 0.500150 0.654960 0.499970 0.927635
Zn2   Zn    Zn3+2 0.500150 0.345040 0.499970 0.930251

loop_
_geom_bond_atom_site_label_1
_geom_bond_atom_site_label_2
_ccdc_geom_bond_type
C55   C56   A    
C40   C41   S    
C47   H44   S    
C51   O8    S    
C41   C42   S    
C32   N4    S    
C28   H9    S    
C16   O12   A    
O15   Zn2   S    
O12   Zn1   S    
C43   N5    S    
C57   O3    S    
C7    C8    A    
C44   O6    S    
C41   H29   S    
C12   C23   A    
C37   C38   A    
C12   O5    S    
C27   H8    S    
C18   H34   S    
C36   C37   A    
C28   H11   S    
C21   H63   S    
O13   Zn2   S    
C38   C39   A    
O14   Zn1   S    
C53   H60   S    
C20   C25   S    
C52   H55   S    
C10   C17   A    
C48   H47   S    
C2    O4    S    
C47   H42   S    
C12   C37   A    
C26   H7    S    
C38   C45   A    
C21   C25   S    
C43   H36   S    
C57   N2    A    
C46   C47   S    
O10   Zn1   S    
C15   H23   S    
C19   H61   S    
C8    C9    A    
C34   C57   A    
O9    Zn2   S    
C10   O8    S    
C5    H22   S    
C11   H1    S    
C18   C20   S    
C53   H59   S    
C4    O11   A    
C46   H41   S    
C13   C14   A    
C50   H51   S    
C40   H26   S    
N4    Zn1   S    
C18   H56   S    
C44   C46   S    
C32   H14   S    
C2    N2    A    
C51   C52   S    
C35   N1    A    
C1    O1    A    
C21   H3    S    
C4    C6    S    
C2    C54   A    
C32   H16   S    
C27   N3    S    
C49   H48   S    
C29   H17   S    
C25   C26   S    
C48   H46   S    
O1    Zn1   S    
C50   H52   S    
C47   H43   S    
C35   C39   A    
C26   H6    S    
C13   C33   S    
C29   C30   S    
C44   H39   S    
C22   H5    S    
C39   C56   A    
C23   C34   A    
C9    N2    S    
C34   C45   A    
C20   H2    S    
C3    C9    A    
C6    C7    A    
C35   O16   S    
C4    O10   A    
C55   H19   S    
C17   N1    S    
C31   H15   S    
C7    H24   S    
C46   H40   S    
C30   N4    S    
C45   C54   A    
C51   H53   S    
C50   H50   S    
C14   H12   S    
C18   C24   S    
C36   O2    S    
C42   H31   S    
C1    O9    A    
C52   C53   S    
C16   C25   S    
C15   C17   A    
C40   O5    S    
C54   C55   A    
C48   C49   S    
C51   H54   S    
C19   C21   S    
C31   C32   S    
C16   O13   A    
C3    C5    A    
C28   N4    S    
C49   H49   S    
C52   H57   S    
O11   Zn2   S    
C41   H28   S    
C43   H37   S    
C43   H35   S    
C23   N5    S    
C42   H32   S    
C31   H13   S    
C36   N1    A    
C31   N3    S    
C44   H38   S    
C22   H4    S    
C30   H18   S    
C11   C13   A    
C29   O6    S    
C33   O14   A    
C30   O7    S    
C29   N3    S    
C19   H45   S    
H33   N5    S    
C19   C24   S    
C40   H27   S    
C22   C24   S    
C27   H10   S    
C10   C11   A    
C56   H20   S    
C8    H25   S    
C1    C24   S    
C49   C50   S    
C22   C26   S    
N3    Zn2   S    
C27   C28   S    
C5    C6    A    
C14   C15   A    
C48   O7    S    
C42   H30   S    
C33   O15   A    
C3    H21   S    
C20   H62   S    
C53   H58   S    
