data_mof_unit_57899.cif
_audit_creation_date              2012-10-26T20:43:04-0400
_audit_creation_method            fapswitch 2.2
_symmetry_space_group_name_H-M    P1
_symmetry_Int_Tables_number       1
_space_group_crystal_system       triclinic
_cell_length_a                    10.816563
_cell_length_b                    9.50284
_cell_length_c                    15.232409
_cell_angle_alpha                 89.999952
_cell_angle_beta                  93.301397
_cell_angle_gamma                 89.999901
_cell_volume                      1563.11145295

loop_
_atom_site_label
_atom_site_type_symbol
_atom_type_description
_atom_site_fract_x
_atom_site_fract_y
_atom_site_fract_z
_atom_type_partial_charge
C1    C     C_R   0.262518 0.500026 0.504566 0.560106
C2    C     C_R   0.128471 0.500102 0.503654 0.016687
C3    C     C_R   0.418648 0.074479 0.445444 0.016713
C4    C     C_R   0.581362 0.925493 0.554550 0.010008
C5    C     C_R   0.581352 0.074479 0.554556 0.016713
C6    C     C_R   0.418638 0.925493 0.445450 0.010007
C7    C     C_R   0.490374 0.500001 0.328633 0.588298
C8    C     C_R   0.509627 0.500000 0.671367 0.588299
C9    C     C_R   0.628200 0.493973 0.822853 -0.045447
C10   C     C_R   0.371802 0.493965 0.177147 -0.045448
C11   C     C_R   0.515225 0.500007 0.768335 0.021908
C12   C     C_R   0.737482 0.500026 0.495433 0.560107
C13   C     C_R   0.484776 0.500008 0.231665 0.021906
C14   C     C_R   0.400332 0.505498 0.806911 0.228157
C15   C     C_R   0.599669 0.505511 0.193089 0.228156
C16   C     C_R   0.394589 0.497720 0.898559 0.018184
C17   C     C_R   0.605413 0.497735 0.101442 0.018185
C18   C     C_R   0.503817 0.496292 0.953489 0.008323
C19   C     C_R   0.496186 0.496293 0.046511 0.008322
C20   C     C_R   0.620491 0.494235 0.916063 0.011572
C21   C     C_R   0.379512 0.494222 0.083937 0.011571
C22   C     C_R   0.279945 0.491313 0.936033 -0.122313
C23   C     C_R   0.272187 0.490272 0.026278 -0.145523
C24   C     C_R   0.720058 0.491343 0.063967 -0.122312
C25   C     C_3   0.759474 0.487448 0.789874 -0.307044
C26   C     C_3   0.777248 0.484566 0.692946 -0.429913
C27   C     C_3   0.240527 0.487439 0.210125 -0.307042
C28   C     C_3   0.222752 0.484580 0.307053 -0.429910
C29   C     C_3   0.248671 0.650022 0.746173 0.003915
C30   C     C_3   0.107517 0.648826 0.732712 -0.262630
C31   C     C_3   0.055995 0.795591 0.712854 -0.484770
C32   C     C_3   0.751314 0.650054 0.253830 0.003921
C33   C     C_3   0.892470 0.648879 0.267283 -0.262633
C34   C     C_R   0.727816 0.490303 0.973722 -0.145523
C35   C     C_3   0.943975 0.795647 0.287151 -0.484770
C36   C     C_R   0.064003 0.372230 0.502187 -0.144971
C37   C     C_R   0.936027 0.627999 0.498955 -0.162596
C38   C     C_R   0.935997 0.372230 0.497808 -0.144967
C39   C     C_R   0.063972 0.627999 0.501042 -0.162599
C40   C     C_R   0.871529 0.500102 0.496343 0.016695
Cu1   Cu    Cu3+1 0.500000 0.640660 0.500000 0.905400
Cu2   Cu    Cu3+1 0.500000 0.359340 0.500000 0.947861
H1    H     H_    0.194453 0.486516 0.895759 0.146246
H2    H     H_    0.646469 0.869152 0.598194 0.099888
H3    H     H_    0.646443 0.130783 0.598216 0.097240
H4    H     H_    0.353531 0.869153 0.401806 0.099887
H5    H     H_    0.733634 0.388893 0.663613 0.175097
H6    H     H_    0.741990 0.583961 0.662989 0.170483
H7    H     H_    0.877699 0.478037 0.682580 0.129082
H8    H     H_    0.811921 0.580690 0.815887 0.141875
H9    H     H_    0.805190 0.390585 0.816895 0.148011
H10   H     H_    0.266362 0.388910 0.336394 0.175098
H11   H     H_    0.258012 0.583979 0.337004 0.170481
H12   H     H_    0.805551 0.486558 0.104241 0.146247
H13   H     H_    0.122300 0.478059 0.317420 0.129084
H14   H     H_    0.188076 0.580674 0.184104 0.141875
H15   H     H_    0.194817 0.390568 0.183112 0.148010
H16   H     H_    0.288553 0.699621 0.688112 0.179257
H17   H     H_    0.273839 0.716068 0.805214 0.116877
H18   H     H_    0.079929 0.577222 0.677688 0.192921
H19   H     H_    0.066049 0.608083 0.792677 0.144510
H20   H     H_    0.078359 0.867150 0.769198 0.149945
H21   H     H_    0.953762 0.789641 0.701538 0.142312
H22   H     H_    0.095617 0.839229 0.652963 0.147213
H23   H     H_    0.179451 0.486614 0.048804 0.096791
H24   H     H_    0.711432 0.699640 0.311895 0.179266
H25   H     H_    0.726133 0.716103 0.194791 0.116874
H26   H     H_    0.920073 0.577267 0.322300 0.192920
H27   H     H_    0.933938 0.608159 0.207313 0.144506
H28   H     H_    0.921592 0.867217 0.230816 0.149949
H29   H     H_    0.046209 0.789715 0.298457 0.142310
H30   H     H_    0.904359 0.839262 0.347050 0.147211
H31   H     H_    0.820552 0.486659 0.951196 0.096790
H32   H     H_    0.112196 0.272269 0.503569 0.130641
H33   H     H_    0.887863 0.727917 0.498651 0.127012
H34   H     H_    0.887805 0.272269 0.496426 0.130640
H35   H     H_    0.112136 0.727917 0.501347 0.127014
H36   H     H_    0.353557 0.130784 0.401784 0.097241
N1    N     N_R   0.500000 0.852070 0.500000 -0.229371
N2    N     N_R   0.500000 0.147930 0.500000 -0.224296
O1    O     O_R   0.319640 0.618740 0.499990 -0.523260
O2    O     O_3   0.708318 0.509458 0.246178 -0.575465
O3    O     O_R   0.680360 0.381260 0.500010 -0.511512
O4    O     O_R   0.680360 0.618740 0.500010 -0.523264
O5    O     O_R   0.319640 0.381260 0.499990 -0.511511
O6    O     O_R   0.499970 0.618800 0.370260 -0.516146
O7    O     O_R   0.500030 0.381200 0.629740 -0.487486
O8    O     O_R   0.500030 0.618800 0.629740 -0.516143
O9    O     O_R   0.499970 0.381200 0.370260 -0.487490
O10   O     O_3   0.291684 0.509432 0.753822 -0.575463

loop_
_geom_bond_atom_site_label_1
_geom_bond_atom_site_label_2
_ccdc_geom_bond_type
C10   C27   S    
Cu2   N2    S    
Cu1   Cu2   S    
C3    C6    A    
C9    C25   S    
C38   H34   S    
Cu1   O6    S    
C39   H35   S    
C19   C21   A    
C1    C2    S    
C37   C40   A    
C30   C31   S    
C11   C14   A    
C7    O6    A    
C1    O1    A    
C7    O9    A    
C12   O4    A    
C18   C19   A    
C25   H8    S    
C14   O10   S    
C17   C19   A    
C2    C39   A    
C29   H17   S    
C35   H28   S    
C30   H18   S    
C26   H6    S    
C20   C34   A    
C37   H33   S    
C35   H29   S    
C10   C21   A    
C31   H20   S    
C3    N2    A    
C29   O10   S    
C28   H13   S    
C15   O2    S    
C21   C23   A    
C1    O5    A    
C17   C24   A    
C31   H21   S    
C4    N1    A    
C27   H15   S    
C26   H7    S    
C27   H14   S    
C4    H2    S    
C25   C26   S    
Cu1   O4    S    
C5    H3    S    
C24   C34   A    
C12   O3    A    
C8    O8    A    
C12   C40   S    
C25   H9    S    
C29   C30   S    
C9    C20   A    
C22   H1    S    
Cu1   O1    S    
Cu2   O5    S    
C5    N2    A    
C9    C11   A    
C36   H32   S    
C26   H5    S    
C32   H25   S    
C35   H30   S    
C13   C15   A    
C14   C16   A    
C32   H24   S    
C2    C36   A    
C15   C17   A    
Cu1   O8    S    
C16   C22   A    
C6    H4    S    
C31   H22   S    
Cu2   O3    S    
C4    C5    A    
C10   C13   A    
Cu1   N1    S    
C28   H11   S    
C33   H27   S    
C32   O2    S    
Cu2   O9    S    
C32   C33   S    
C8    O7    A    
C36   C38   A    
C37   C39   A    
C38   C40   A    
C28   H10   S    
C23   H23   S    
C6    N1    A    
C8    C11   S    
C33   C35   S    
C18   C20   A    
C34   H31   S    
C7    C13   S    
C29   H16   S    
C16   C18   A    
C30   H19   S    
C27   C28   S    
C22   C23   A    
Cu2   O7    S    
C3    H36   S    
C24   H12   S    
C33   H26   S    
