data_mof_unit_39958.cif
_audit_creation_date              2012-12-11T17:36:09-0500
_audit_creation_method            fapswitch 2.2
_symmetry_space_group_name_H-M    P1
_symmetry_Int_Tables_number       1
_space_group_crystal_system       triclinic
_cell_length_a                    25.862686
_cell_length_b                    6.906861
_cell_length_c                    21.699887
_cell_angle_alpha                 90.001835
_cell_angle_beta                  96.029771
_cell_angle_gamma                 90.002247
_cell_volume                      3854.80475969

loop_
_atom_site_label
_atom_site_type_symbol
_atom_type_description
_atom_site_fract_x
_atom_site_fract_y
_atom_site_fract_z
_atom_type_partial_charge
O1    O     O_R   0.208650 0.594520 0.175450 -0.534753
O2    O     O_R   0.791350 0.405480 0.824550 -0.534752
O3    O     O_R   0.291350 0.094520 0.324550 -0.534748
O4    O     O_R   0.708650 0.905480 0.675450 -0.534749
O5    O     O_R   0.192980 0.260780 0.300160 -0.540901
O6    O     O_R   0.807020 0.739220 0.699840 -0.540901
O7    O     O_R   0.307020 0.760780 0.199840 -0.540899
O8    O     O_R   0.692980 0.239220 0.800160 -0.540899
C1    C     C_R   0.178922 0.432854 0.318563 0.717093
C2    C     C_R   0.821078 0.567145 0.681437 0.717093
C3    C     C_R   0.321078 0.932855 0.181437 0.717078
C4    C     C_R   0.678922 0.067145 0.818563 0.717077
O9    O     O_R   0.202550 0.264660 0.174420 -0.537986
O10   O     O_R   0.797450 0.735340 0.825580 -0.537986
O11   O     O_R   0.297450 0.764660 0.325580 -0.537979
O12   O     O_R   0.702550 0.235340 0.674420 -0.537978
O13   O     O_R   0.300990 0.096480 0.197920 -0.539590
O14   O     O_R   0.699010 0.903520 0.802080 -0.539590
O15   O     O_R   0.199010 0.596480 0.302080 -0.539590
O16   O     O_R   0.800990 0.403520 0.697920 -0.539590
C5    C     C_R   0.191085 0.433330 0.151142 0.698585
C6    C     C_R   0.808915 0.566670 0.848858 0.698584
C7    C     C_R   0.308914 0.933343 0.348857 0.698589
C8    C     C_R   0.691086 0.066657 0.651143 0.698589
O17   O     O_3   0.282290 0.427760 0.257860 -0.365998
O18   O     O_3   0.717710 0.572240 0.742140 -0.365998
O19   O     O_3   0.217710 0.927760 0.242140 -0.366007
O20   O     O_3   0.782290 0.072240 0.757860 -0.366007
V1    V     V_3+5 0.244010 0.152080 0.248540 1.420275
V2    V     V_3+5 0.755990 0.847920 0.751460 1.420275
V3    V     V_3+5 0.255990 0.652080 0.251460 1.420278
V4    V     V_3+5 0.744010 0.347920 0.748540 1.420278
C9    C     C_R   0.657415 0.060950 0.591969 -0.046656
C10   C     C_R   0.342585 0.939050 0.408031 -0.046656
C11   C     C_R   0.842587 0.561037 0.908034 -0.046703
C12   C     C_R   0.157413 0.438963 0.091966 -0.046703
C13   C     C_R   0.646554 0.121638 0.481697 -0.154139
C14   C     C_R   0.353446 0.878362 0.518303 -0.154140
C15   C     C_R   0.853497 0.622585 0.018258 -0.154167
C16   C     C_R   0.146503 0.377415 0.981742 -0.154167
C17   C     C_R   0.678215 0.113160 0.537575 -0.161617
C18   C     C_R   0.321785 0.886840 0.462425 -0.161617
C19   C     C_R   0.821822 0.613834 0.962395 -0.161563
C20   C     C_R   0.178178 0.386166 0.037605 -0.161563
C21   C     C_R   0.604108 0.017766 0.590199 -0.213615
C22   C     C_R   0.395892 0.982234 0.409801 -0.213615
C23   C     C_R   0.895876 0.517531 0.909822 -0.213644
C24   C     C_R   0.104124 0.482469 0.090178 -0.213644
C25   C     C_R   0.570558 0.028599 0.533743 0.087489
C26   C     C_R   0.429442 0.971401 0.466257 0.087489
C27   C     C_R   0.929444 0.528658 0.966260 0.087476
C28   C     C_R   0.070556 0.471342 0.033740 0.087476
C29   C     C_R   0.593183 0.081281 0.479314 0.134580
C30   C     C_R   0.406816 0.918719 0.520686 0.134580
C31   C     C_R   0.906852 0.581946 0.020655 0.134581
C32   C     C_R   0.093148 0.418054 0.979345 0.134581
C33   C     C_R   0.515553 0.991725 0.529358 0.057403
C34   C     C_R   0.484447 0.008275 0.470642 0.057403
C35   C     C_R   0.984436 0.491536 0.970654 0.057404
C36   C     C_R   0.015564 0.508464 0.029345 0.057404
C37   C     C_R   0.509412 0.060539 0.418306 -0.184599
C38   C     C_R   0.490588 0.939461 0.581694 -0.184599
C39   C     C_R   0.990632 0.561339 0.081647 -0.184609
C40   C     C_R   0.009368 0.438661 0.918353 -0.184609
C41   C     C_R   0.562506 0.095737 0.422722 -0.195581
C42   C     C_R   0.437494 0.904263 0.577278 -0.195580
C43   C     C_R   0.937549 0.596759 0.077223 -0.195581
C44   C     C_R   0.062450 0.403241 0.922777 -0.195581
H1    H     H_    0.579767 0.136033 0.381133 0.128901
H2    H     H_    0.420233 0.863967 0.618867 0.128901
H3    H     H_    0.920315 0.637533 0.118785 0.128904
H4    H     H_    0.079685 0.362467 0.881215 0.128904
H5    H     H_    0.409859 0.019050 0.366251 0.094949
H6    H     H_    0.590141 0.980950 0.633749 0.094949
H7    H     H_    0.090179 0.519704 0.133706 0.094994
H8    H     H_    0.909820 0.480295 0.866294 0.094994
H9    H     H_    0.280901 0.851251 0.461501 0.115859
H10   H     H_    0.719098 0.148749 0.538499 0.115859
H11   H     H_    0.219045 0.350299 0.038544 0.115862
H12   H     H_    0.780955 0.649701 0.961456 0.115862
H13   H     H_    0.663789 0.162596 0.440174 0.121512
H14   H     H_    0.336211 0.837403 0.559825 0.121512
H15   H     H_    0.836289 0.664015 0.059754 0.121509
H16   H     H_    0.163711 0.335985 0.940246 0.121509
H17   H     H_    0.488964 0.076260 0.372771 0.125752
H18   H     H_    0.511036 0.923740 0.627229 0.125752
H19   H     H_    0.011099 0.577391 0.127160 0.125752
H20   H     H_    0.988900 0.422609 0.872840 0.125752
C45   C     C_R   0.432033 0.798337 0.085894 -0.166784
C46   C     C_R   0.567967 0.201663 0.914106 -0.166784
C47   C     C_R   0.067966 0.298332 0.414106 -0.166778
C48   C     C_R   0.932033 0.701668 0.585894 -0.166778
H21   H     H_    0.454457 0.671303 0.076523 0.210128
H22   H     H_    0.545543 0.328697 0.923477 0.210128
H23   H     H_    0.045541 0.171295 0.423476 0.210123
H24   H     H_    0.954459 0.828705 0.576524 0.210123
C49   C     C_R   0.392607 0.782759 0.125590 -0.150385
C50   C     C_R   0.607393 0.217241 0.874410 -0.150385
C51   C     C_R   0.107392 0.282753 0.374410 -0.150385
C52   C     C_R   0.892608 0.717247 0.625590 -0.150385
H25   H     H_    0.385465 0.643276 0.145851 0.152904
H26   H     H_    0.614535 0.356724 0.854148 0.152904
H27   H     H_    0.114534 0.143268 0.354148 0.152901
H28   H     H_    0.885466 0.856732 0.645852 0.152901
C53   C     C_R   0.363132 0.945948 0.139205 -0.150529
C54   C     C_R   0.636868 0.054052 0.860795 -0.150530
C55   C     C_R   0.136868 0.445946 0.360795 -0.150527
C56   C     C_R   0.863132 0.554054 0.639204 -0.150527
C57   C     C_R   0.374071 0.124280 0.111589 -0.246501
C58   C     C_R   0.625929 0.875719 0.888411 -0.246501
C59   C     C_R   0.125930 0.624282 0.388411 -0.246495
C60   C     C_R   0.874070 0.375718 0.611588 -0.246495
H29   H     H_    0.352144 0.253055 0.120480 0.147659
H30   H     H_    0.647855 0.746945 0.879520 0.147659
H31   H     H_    0.147857 0.753059 0.379521 0.147656
H32   H     H_    0.852143 0.246941 0.620479 0.147656
C61   C     C_R   0.413097 0.139179 0.071602 0.638173
C62   C     C_R   0.586903 0.860821 0.928398 0.638173
C63   C     C_R   0.086904 0.639181 0.428399 0.638167
C64   C     C_R   0.913095 0.360819 0.571601 0.638167
C65   C     C_R   0.442463 0.976429 0.058577 -0.033383
C66   C     C_R   0.557537 0.023571 0.941423 -0.033383
C67   C     C_R   0.057537 0.476427 0.441424 -0.033382
C68   C     C_R   0.942463 0.523573 0.558576 -0.033382
C69   C     C_1   0.483084 0.992562 0.017270 0.077592
C70   C     C_1   0.516916 0.007438 0.982730 0.077592
C71   C     C_1   0.016916 0.492561 0.482730 0.077592
C72   C     C_1   0.983084 0.507439 0.517270 0.077592
F1    F     F_    0.422040 0.312758 0.045408 -0.705822
F2    F     F_    0.577960 0.687242 0.954592 -0.705822
F3    F     F_    0.077962 0.812763 0.454593 -0.705824
F4    F     F_    0.922038 0.187237 0.545407 -0.705824

loop_
_geom_bond_atom_site_label_1
_geom_bond_atom_site_label_2
_ccdc_geom_bond_type
O17   V3    S    
C51   H27   S    
O1    C5    A    
O19   V1    S    
C9    C21   A    
C16   H16   S    
O3    C7    A    
C10   C18   A    
O1    V3    S    
O15   V3    S    
C58   C62   A    
C57   C61   A    
C33   C38   A    
C5    C12   S    
O7    C3    A    
C6    C11   S    
C38   H18   S    
C35   C40   A    
C26   C30   A    
C36   C39   A    
C40   C44   A    
O2    V4    S    
O9    V1    S    
C23   H8    S    
C14   C18   A    
C48   C68   A    
C54   C58   A    
O4    C8    A    
C25   C29   A    
C44   H4    S    
C48   H24   S    
O13   V1    S    
C31   C43   A    
C59   C63   A    
C62   C66   A    
O3    V1    S    
C61   C65   A    
C28   C36   A    
C65   C69   S    
C2    C56   S    
C1    O15   A    
C52   H28   S    
C15   C31   A    
C2    O16   A    
C16   C32   A    
O2    C6    A    
C63   F3    S    
C10   C22   A    
C11   C19   A    
C58   H30   S    
C16   C20   A    
C43   H3    S    
C57   H29   S    
C68   C72   S    
C13   C29   A    
C61   F1    S    
C34   C37   A    
O11   C7    A    
C11   C23   A    
C35   C36   A    
O12   C8    A    
C47   C67   A    
C14   H14   S    
C45   H21   S    
C46   C66   A    
C24   H7    S    
C13   H13   S    
O10   V2    S    
C46   H22   S    
O5    V1    S    
O17   V1    S    
C39   C43   A    
C52   C56   A    
O7    V3    S    
C38   C42   A    
O19   V3    S    
C26   C34   A    
O20   V4    S    
C17   H10   S    
C60   C64   A    
O18   V4    S    
C15   C19   A    
C19   H12   S    
C32   C44   A    
C47   H23   S    
C56   C60   A    
C45   C49   A    
C21   H6    S    
O8    V4    S    
C66   C70   S    
O5    C1    A    
C62   F2    S    
C67   C71   S    
C14   C30   A    
C21   C25   A    
O8    C4    A    
C7    C10   S    
O9    C5    A    
C3    C53   S    
C37   H17   S    
O14   V2    S    
O6    V2    S    
O18   V2    S    
C69   C70   T    
C12   C20   A    
C27   C35   A    
C71   C72   T    
C60   H32   S    
C29   C41   A    
C48   C52   A    
O16   V4    S    
C53   C57   A    
C3    O13   A    
C39   H19   S    
C64   F4    S    
C55   C59   A    
C20   H11   S    
O6    C2    A    
C25   C33   A    
C23   C27   A    
O11   V3    S    
C30   C42   A    
C63   C67   A    
O12   V4    S    
C51   C55   A    
C22   C26   A    
C8    C9    S    
C50   C54   A    
C9    C17   A    
O10   C6    A    
O20   V2    S    
C49   C53   A    
C50   H26   S    
C4    C54   S    
C33   C34   A    
C42   H2    S    
C45   C65   A    
C41   H1    S    
C46   C50   A    
C12   C24   A    
C27   C31   A    
C13   C17   A    
C49   H25   S    
C64   C68   A    
C15   H15   S    
C37   C41   A    
C24   C28   A    
C18   H9    S    
C4    O14   A    
C1    C55   S    
C59   H31   S    
C47   C51   A    
C40   H20   S    
C22   H5    S    
O4    V2    S    
C28   C32   A    
