data_mof_unit_6681.cif
_audit_creation_date              2012-12-10T17:15:14-0500
_audit_creation_method            fapswitch 2.2
_symmetry_space_group_name_H-M    P1
_symmetry_Int_Tables_number       1
_space_group_crystal_system       triclinic
_cell_length_a                    10.243
_cell_length_b                    10.856438
_cell_length_c                    12.897856
_cell_angle_alpha                 91.021692
_cell_angle_beta                  92.96804
_cell_angle_gamma                 96.400488
_cell_volume                      1423.01928153

loop_
_atom_site_label
_atom_site_type_symbol
_atom_type_description
_atom_site_fract_x
_atom_site_fract_y
_atom_site_fract_z
_atom_type_partial_charge
C1    C     C_R   0.443252 0.267488 0.493513 0.854594
C2    C     C_R   0.671865 0.480086 0.044744 -0.207148
C3    C     C_R   0.339608 0.518791 0.848950 -0.155634
C4    C     C_R   0.660331 0.480949 0.151047 -0.134659
C5    C     C_R   0.572080 0.492282 0.873644 -0.257087
C6    C     C_R   0.427850 0.507440 0.126355 -0.269890
C7    C     C_R   0.561418 0.492961 0.979468 0.172289
C8    C     C_R   0.438499 0.506702 0.020528 0.181701
C9    C     C_2   0.407228 0.134530 0.485694 -0.216233
C10   C     C_2   0.592768 0.865478 0.514193 -0.213665
C11   C     C_2   0.501009 0.064168 0.516128 -0.103399
C12   C     C_R   0.556749 0.732512 0.506463 0.842959
C13   C     C_2   0.498939 0.935806 0.483790 -0.128452
C14   C     C_2   0.725399 0.913994 0.560035 0.443836
C15   C     C_2   0.274670 0.086068 0.439681 0.422149
C16   C     C_2   0.904105 0.638838 0.458683 0.555205
C17   C     C_2   0.096709 0.360580 0.540527 0.468226
C18   C     C_2   0.862560 0.393796 0.639580 0.544155
C19   C     C_2   0.140259 0.605757 0.359591 0.550690
C20   C     C_2   0.068454 0.481096 0.498586 -0.043825
C21   C     C_2   0.931684 0.518351 0.501143 -0.125520
C22   C     C_R   0.475752 0.503440 0.698211 0.904423
C23   C     C_R   0.524235 0.496512 0.301789 0.894187
C24   C     C_R   0.538251 0.494757 0.191594 -0.071436
C25   C     C_R   0.461702 0.505050 0.808404 -0.060003
C26   C     C_R   0.328054 0.519580 0.955253 -0.211323
H1    H     H_    0.333215 0.517961 0.157478 0.180773
H2    H     H_    0.223619 0.142246 0.385739 0.074367
H3    H     H_    0.950881 0.723849 0.496200 0.020381
H4    H     H_    0.051638 0.275573 0.501977 0.078499
H5    H     H_    0.949054 0.425416 0.689281 0.029433
H6    H     H_    0.201850 0.689207 0.340527 0.062445
H7    H     H_    0.666722 0.481798 0.842525 0.175619
H8    H     H_    0.746560 0.471058 0.201120 0.215697
H9    H     H_    0.253387 0.528710 0.798877 0.186760
H10   H     H_    0.233466 0.530153 0.986278 0.155341
H11   H     H_    0.766450 0.469497 0.013720 0.156340
H12   H     H_    0.413166 0.893834 0.438098 0.209115
H13   H     H_    0.586729 0.106095 0.561893 0.237700
H14   H     H_    0.776611 0.857834 0.613888 0.058642
N1    N     N_2   0.162330 0.550370 0.457540 -0.193062
N2    N     N_2   0.837670 0.449630 0.542460 -0.168825
O1    O     O_R   0.567930 0.307680 0.508550 -0.564047
O2    O     O_2   0.218142 0.987482 0.465969 -0.568215
O3    O     O_2   0.836553 0.644344 0.378625 -0.516133
O4    O     O_2   0.163006 0.355009 0.621231 -0.562733
O5    O     O_2   0.783239 0.312001 0.669984 -0.537581
O6    O     O_2   0.061021 0.555500 0.293540 -0.586491
O7    O     O_R   0.432070 0.692320 0.491450 -0.623490
O8    O     O_R   0.351090 0.340020 0.481290 -0.609008
O9    O     O_R   0.648910 0.659980 0.518710 -0.622154
O10   O     O_R   0.590490 0.486480 0.665020 -0.615071
O11   O     O_R   0.409510 0.513520 0.334980 -0.649455
O12   O     O_R   0.373660 0.518820 0.637760 -0.572994
O13   O     O_R   0.626340 0.481180 0.362240 -0.563023
O14   O     O_2   0.781805 0.012611 0.533694 -0.536216
Zn1   Zn    Zn3+2 0.644780 0.478400 0.518200 1.028341
Zn2   Zn    Zn3+2 0.355220 0.521600 0.481800 0.982904

loop_
_geom_bond_atom_site_label_1
_geom_bond_atom_site_label_2
_ccdc_geom_bond_type
C16   O3    D    
C15   O2    D    
C2    C4    A    
C23   C24   S    
C10   C13   D    
C23   O13   A    
C16   C21   S    
O9    Zn1   S    
C8    C26   A    
C1    O8    A    
C14   O14   D    
C6    H1    S    
C3    H9    S    
O11   Zn2   S    
C6    C24   A    
C18   O5    D    
C12   O9    A    
O13   Zn1   S    
C20   N1    D    
C9    C15   S    
C7    C8    A    
C22   O12   A    
C17   O4    D    
C11   H13   S    
C17   H4    S    
C11   C13   S    
C2    H11   S    
C9    C11   D    
C13   H12   S    
C15   H2    S    
C10   C12   S    
C5    C25   A    
C19   H6    S    
N2    Zn1   S    
C26   H10   S    
N1    Zn2   S    
C23   O11   A    
C18   N2    S    
O12   Zn2   S    
C4    C24   A    
C4    H8    S    
C12   O7    A    
O10   Zn1   S    
O1    Zn1   S    
C14   H14   S    
C21   N2    D    
O8    Zn2   S    
C19   N1    S    
C3    C25   A    
C17   C20   S    
C1    C9    S    
C20   C21   S    
C22   O10   A    
C10   C14   S    
C5    C7    A    
C19   O6    D    
C6    C8    A    
C18   H5    S    
C16   H3    S    
C1    O1    A    
C3    C26   A    
O7    Zn2   S    
C2    C7    A    
C22   C25   S    
C5    H7    S    
