data_mof_unit_57910.cif
_audit_creation_date              2012-12-10T17:46:30-0500
_audit_creation_method            fapswitch 2.2
_symmetry_space_group_name_H-M    P1
_symmetry_Int_Tables_number       1
_space_group_crystal_system       triclinic
_cell_length_a                    21.16024
_cell_length_b                    21.45412
_cell_length_c                    14.689627
_cell_angle_alpha                 90.285834
_cell_angle_beta                  129.323507
_cell_angle_gamma                 89.910962
_cell_volume                      5158.70999394

loop_
_atom_site_label
_atom_site_type_symbol
_atom_type_description
_atom_site_fract_x
_atom_site_fract_y
_atom_site_fract_z
_atom_type_partial_charge
C1    C     C_R   0.603895 0.915307 0.633753 0.815209
C2    C     C_R   0.398072 0.086733 0.369436 0.797716
C3    C     C_R   0.395425 0.915753 0.365078 0.791011
C4    C     C_R   0.601155 0.087198 0.629817 0.821278
C5    C     C_R   0.104547 0.415672 0.634793 0.797129
C6    C     C_R   0.897059 0.585706 0.368239 0.808902
C7    C     C_R   0.895041 0.415932 0.364577 0.796555
C8    C     C_R   0.102567 0.586179 0.631509 0.808188
C9    C     C_R   0.335136 0.772646 0.926636 -0.200446
C10   C     C_R   0.618465 0.283896 0.984637 -0.190858
C11   C     C_R   0.649724 0.754988 0.046805 -0.212721
C12   C     C_R   0.378551 0.284013 0.015167 -0.226046
C13   C     C_R   0.821759 0.282896 0.908651 -0.186342
C14   C     C_R   0.119481 0.788349 0.977944 -0.214928
C15   C     C_R   0.169468 0.275776 0.079854 -0.190563
C16   C     C_R   0.873951 0.783793 0.015272 -0.218824
C17   C     C_R   0.314913 0.997448 0.647582 0.342094
C18   C     C_R   0.658327 0.941480 0.329280 0.289027
C19   C     C_R   0.822577 0.467975 0.654764 0.336332
C20   C     C_R   0.175923 0.465316 0.343470 0.291237
C21   C     C_R   0.350807 0.998593 0.593409 -0.084950
C22   C     C_R   0.637643 0.968124 0.394512 -0.086245
C23   C     C_R   0.854470 0.481226 0.597265 -0.069141
C24   C     C_R   0.144718 0.479602 0.401699 -0.091493
C25   C     C_R   0.483989 0.996422 0.780187 0.508314
C26   C     C_R   0.517205 0.011973 0.222917 0.540807
C27   C     C_R   0.983457 0.506342 0.779101 0.519616
C28   C     C_R   0.016852 0.507374 0.221312 0.523798
C29   C     C_R   0.450093 0.982371 0.836438 -0.174543
C30   C     C_R   0.528039 0.978193 0.149205 -0.160432
C31   C     C_R   0.959384 0.480855 0.842458 -0.165364
C32   C     C_R   0.039571 0.480951 0.156488 -0.161212
C33   C     C_R   0.365475 0.991274 0.771569 -0.041728
C34   C     C_R   0.602409 0.945308 0.204938 -0.022398
C35   C     C_R   0.875381 0.469113 0.779438 -0.039984
C36   C     C_R   0.122960 0.466921 0.218824 -0.021711
C37   C     C_R   0.498377 0.965507 0.957927 0.175675
C38   C     C_R   0.471321 0.980366 0.022363 0.152253
C39   C     C_R   0.014469 0.473834 0.968000 0.170932
C40   C     C_R   0.984049 0.474820 0.030583 0.167726
C41   C     C_R   0.387551 0.992696 0.956968 -0.169111
C42   C     C_R   0.569999 0.930306 0.014339 -0.164456
C43   C     C_R   0.899432 0.467550 0.965915 -0.177330
C44   C     C_R   0.098563 0.463931 0.032115 -0.175503
C45   C     C_R   0.334930 0.995034 0.833587 -0.082186
C46   C     C_R   0.620006 0.919030 0.134929 -0.076513
C47   C     C_R   0.846708 0.461487 0.843207 -0.080277
C48   C     C_R   0.151033 0.457383 0.154550 -0.083561
C49   C     C_R   0.656067 0.139968 0.696979 -0.046432
C50   C     C_R   0.327034 0.876187 0.274676 -0.053248
C51   C     C_R   0.341089 0.138190 0.300103 -0.058255
C52   C     C_R   0.670143 0.873737 0.720589 -0.054100
C53   C     C_R   0.161162 0.636415 0.702948 -0.040827
C54   C     C_R   0.826006 0.376594 0.273647 -0.059192
C55   C     C_R   0.835821 0.633431 0.293628 -0.047432
C56   C     C_R   0.172427 0.375514 0.724489 -0.057461
C57   C     C_R   0.777789 0.198708 0.770977 -0.162105
C58   C     C_R   0.186782 0.842579 0.163080 -0.167261
C59   C     C_R   0.216970 0.194362 0.222719 -0.154666
C60   C     C_R   0.810249 0.840186 0.834691 -0.153521
C61   C     C_R   0.288489 0.689191 0.786251 -0.177367
C62   C     C_R   0.688500 0.337984 0.170695 -0.158535
C63   C     C_R   0.702663 0.678396 0.198713 -0.139705
C64   C     C_R   0.310654 0.338264 0.830933 -0.158744
C65   C     C_R   0.725224 0.149117 0.705471 -0.164399
C66   C     C_R   0.255569 0.872259 0.261523 -0.169652
C67   C     C_R   0.271931 0.146738 0.291895 -0.168126
C68   C     C_R   0.743107 0.871354 0.737773 -0.153785
C69   C     C_R   0.232459 0.642076 0.715822 -0.169524
C70   C     C_R   0.757452 0.368754 0.266994 -0.166649
C71   C     C_R   0.762825 0.635634 0.276677 -0.158153
C72   C     C_R   0.242450 0.369069 0.734488 -0.165538
C73   C     C_R   0.637838 0.182719 0.748961 -0.168231
C74   C     C_R   0.329808 0.849113 0.190853 -0.229541
C75   C     C_R   0.356686 0.179812 0.244042 -0.157427
C76   C     C_R   0.663522 0.842631 0.797177 -0.196747
C77   C     C_R   0.144728 0.679942 0.755683 -0.165379
C78   C     C_R   0.825231 0.352846 0.184357 -0.221566
C79   C     C_R   0.850083 0.676632 0.238522 -0.155078
C80   C     C_R   0.170620 0.349730 0.809979 -0.221430
C81   C     C_R   0.694524 0.228796 0.826474 0.085343
C82   C     C_R   0.260300 0.822080 0.088055 0.091407
C83   C     C_R   0.299117 0.224955 0.165976 0.081403
C84   C     C_R   0.731123 0.813349 0.898477 0.096373
C85   C     C_R   0.203026 0.724489 0.835078 0.082686
C86   C     C_R   0.755353 0.324293 0.083988 0.090415
C87   C     C_R   0.788159 0.716656 0.152053 0.087442
C88   C     C_R   0.239634 0.320939 0.910561 0.092928
C89   C     C_R   0.764532 0.237249 0.834642 0.168303
C90   C     C_R   0.188505 0.817722 0.076108 0.149984
C91   C     C_R   0.228608 0.232129 0.156799 0.165036
C92   C     C_R   0.805260 0.812179 0.916086 0.145812
C93   C     C_R   0.275553 0.729160 0.848788 0.161895
C94   C     C_R   0.686992 0.315610 0.079359 0.141181
C95   C     C_R   0.713586 0.717256 0.133233 0.170220
C96   C     C_R   0.309903 0.314419 0.919080 0.153487
C97   C     C_R   0.687219 0.262982 0.902714 0.062643
C98   C     C_R   0.261574 0.797039 0.999597 0.072409
C99   C     C_R   0.306567 0.259633 0.090720 0.076377
C100  C     C_R   0.726871 0.784994 0.981846 0.082817
C101  C     C_R   0.194177 0.760844 0.907584 0.068283
C102  C     C_R   0.753435 0.301433 0.991339 0.071280
C103  C     C_R   0.796154 0.752460 0.078552 0.073564
C104  C     C_R   0.239547 0.296561 0.000416 0.073531
C105  C     C_R   0.328464 0.806209 0.001038 -0.205217
C106  C     C_R   0.618761 0.257189 0.898560 -0.144464
C107  C     C_R   0.655616 0.787729 0.971492 -0.216051
C108  C     C_R   0.376957 0.256662 0.099129 -0.164790
C109  C     C_R   0.816484 0.314615 0.985919 -0.212701
C110  C     C_R   0.122215 0.759890 0.895454 -0.169355
C111  C     C_R   0.174411 0.307334 0.002416 -0.217108
C112  C     C_R   0.869849 0.754696 0.095367 -0.175353
Cu1   Cu    Cu3+1 0.526640 1.000000 0.436960 1.007258
Cu2   Cu    Cu3+1 0.473360 1.000000 0.563040 1.016106
Cu3   Cu    Cu3+1 0.026640 0.500000 0.436960 1.008418
Cu4   Cu    Cu3+1 0.973360 0.500000 0.563040 1.013288
H1    H     H_    0.388928 0.778907 0.933652 0.139106
H2    H     H_    0.565263 0.277762 0.979117 0.150224
H3    H     H_    0.593312 0.757197 0.033909 0.141196
H4    H     H_    0.433350 0.279981 0.024114 0.144704
H5    H     H_    0.873100 0.292129 0.910882 0.141736
H6    H     H_    0.063591 0.785829 0.966380 0.155445
H7    H     H_    0.117153 0.283703 0.075907 0.141926
H8    H     H_    0.931374 0.783689 0.030857 0.152998
H9    H     H_    0.361332 0.996581 0.000282 0.181157
H10   H     H_    0.588550 0.912784 0.965283 0.152769
H11   H     H_    0.874075 0.463885 0.010582 0.163126
H12   H     H_    0.123565 0.458759 0.987087 0.161262
H13   H     H_    0.387537 0.849620 0.208372 0.151413
H14   H     H_    0.579348 0.178615 0.727767 0.177864
H15   H     H_    0.604632 0.843139 0.775761 0.141479
H16   H     H_    0.413423 0.174922 0.261085 0.211468
H17   H     H_    0.880764 0.356517 0.196165 0.149544
H18   H     H_    0.086308 0.677517 0.733785 0.197538
H19   H     H_    0.114013 0.352499 0.795385 0.147847
H20   H     H_    0.909599 0.676883 0.263655 0.193895
H21   H     H_    0.252094 0.893602 0.325220 0.174426
H22   H     H_    0.738984 0.117698 0.662176 0.164361
H23   H     H_    0.749255 0.895588 0.679302 0.183018
H24   H     H_    0.259707 0.116092 0.337545 0.177799
H25   H     H_    0.756483 0.387390 0.334744 0.186782
H26   H     H_    0.245306 0.609686 0.672602 0.158399
H27   H     H_    0.245301 0.389185 0.669695 0.184552
H28   H     H_    0.751520 0.603390 0.321485 0.170638
H29   H     H_    0.343562 0.692642 0.795877 0.140345
H30   H     H_    0.636156 0.331992 0.167235 0.149474
H31   H     H_    0.646039 0.678912 0.185275 0.147266
H32   H     H_    0.364424 0.333764 0.837436 0.153091
H33   H     H_    0.831015 0.204992 0.776651 0.142358
H34   H     H_    0.131874 0.839869 0.154005 0.146414
H35   H     H_    0.163474 0.199856 0.216639 0.147799
H36   H     H_    0.866777 0.839475 0.847856 0.152457
H37   H     H_    0.376914 0.839058 0.059027 0.139391
H38   H     H_    0.564242 0.232097 0.830088 0.175594
H39   H     H_    0.602377 0.814329 0.905456 0.132487
H40   H     H_    0.432430 0.233894 0.170180 0.189245
H41   H     H_    0.863330 0.348940 0.041267 0.132918
H42   H     H_    0.066455 0.737844 0.822750 0.192122
H43   H     H_    0.126017 0.340027 0.945049 0.133511
H44   H     H_    0.926207 0.734715 0.170035 0.188115
H45   H     H_    0.270774 0.002374 0.788367 0.217645
H46   H     H_    0.674686 0.892189 0.172733 0.214680
H47   H     H_    0.782778 0.453765 0.799168 0.218754
H48   H     H_    0.214435 0.447613 0.198042 0.217146
H49   H     H_    0.678250 0.962081 0.488559 0.177339
H50   H     H_    0.312621 0.000795 0.498646 0.198910
H51   H     H_    0.183515 0.475078 0.496094 0.173827
H52   H     H_    0.815539 0.477370 0.502636 0.196133
N1    N     N_R   0.433280 1.000000 0.657760 -0.253820
N2    N     N_R   0.566720 1.000000 0.342240 -0.238004
N3    N     N_R   0.933280 0.500000 0.657760 -0.246483
N4    N     N_R   0.066720 0.500000 0.342240 -0.237121
O1    O     O_R   0.600040 0.935040 0.546740 -0.606845
O2    O     O_R   0.399960 0.064960 0.453260 -0.600950
O3    O     O_R   0.399960 0.935040 0.453260 -0.597451
O4    O     O_R   0.600040 0.064960 0.546740 -0.578851
O5    O     O_R   0.100040 0.435040 0.546740 -0.600088
O6    O     O_R   0.899960 0.564960 0.453260 -0.583050
O7    O     O_R   0.899960 0.435040 0.453260 -0.602884
O8    O     O_R   0.100040 0.564960 0.546740 -0.586479
O9    O     O_R   0.555010 0.935070 0.653220 -0.553479
O10   O     O_R   0.444990 0.064930 0.346780 -0.504278
O11   O     O_R   0.444990 0.935070 0.346780 -0.589882
O12   O     O_R   0.555010 0.064930 0.653220 -0.487706
O13   O     O_R   0.055010 0.435070 0.653220 -0.584198
O14   O     O_R   0.944990 0.564930 0.346780 -0.492782
O15   O     O_R   0.944990 0.435070 0.346780 -0.584301
O16   O     O_R   0.055010 0.564930 0.653220 -0.490872
S1    S     S_3+6 0.476413 0.087808 0.176966 -0.012020
O17   O     O_2   0.388132 0.087695 0.124335 -0.352141
O18   O     O_2   0.525343 0.130522 0.282056 -0.310278
O19   O     O_3   0.483908 0.113695 0.076142 -0.510446
H53   H     H_    0.451887 0.152785 0.045808 0.367198
S2    S     S_3+6 0.580729 0.035358 0.868260 0.021817
O20   O     O_2   0.638557 0.004703 0.855361 -0.300082
O21   O     O_2   0.564511 0.101235 0.826038 -0.318850
O22   O     O_3   0.627186 0.040830 0.012522 -0.510789
H54   H     H_    0.677524 0.065314 0.047219 0.385594
S3    S     S_3+6 0.957289 0.575876 0.159935 0.002130
O23   O     O_2   0.873585 0.564938 0.122413 -0.323311
O24   O     O_2   0.001850 0.625796 0.252656 -0.324152
O25   O     O_3   0.947493 0.600405 0.042880 -0.496228
H55   H     H_    0.913594 0.638505 0.015937 0.375318
S4    S     S_3+6 0.045970 0.573495 0.843964 0.008674
O26   O     O_2   0.128181 0.561606 0.876899 -0.317186
O27   O     O_2   0.001581 0.624531 0.754755 -0.320400
O28   O     O_3   0.059638 0.597063 0.964857 -0.495433
H56   H     H_    0.091417 0.636279 0.989524 0.375729
S5    S     S_3+6 0.207153 0.002287 0.556937 -0.005776
O29   O     O_2   0.175300 0.947367 0.580293 -0.278879
O30   O     O_2   0.184436 0.061436 0.585191 -0.273193
O31   O     O_3   0.164748 0.002390 0.413898 -0.561133
H57   H     H_    0.105160 0.005209 0.370467 0.387842
S6    S     S_3+6 0.752944 0.901647 0.406686 0.010208
O32   O     O_2   0.737024 0.834198 0.370259 -0.259406
O33   O     O_2   0.803016 0.929597 0.377056 -0.266121
O34   O     O_3   0.806107 0.905993 0.553067 -0.528759
H58   H     H_    0.827394 0.949226 0.574992 0.345365
S7    S     S_3+6 0.718023 0.447326 0.567892 -0.002617
O35   O     O_2   0.710636 0.385301 0.607668 -0.293210
O36   O     O_2   0.674100 0.495965 0.583045 -0.253006
O37   O     O_3   0.675031 0.442514 0.424810 -0.564944
H59   H     H_    0.618057 0.428947 0.384055 0.387700
S8    S     S_3+6 0.279720 0.442714 0.429277 0.010781
O38   O     O_2   0.284561 0.379544 0.389342 -0.253830
O39   O     O_2   0.325155 0.488853 0.412905 -0.266946
O40   O     O_3   0.324157 0.439117 0.572981 -0.527592
H60   H     H_    0.335281 0.483020 0.600388 0.344492

loop_
_geom_bond_atom_site_label_1
_geom_bond_atom_site_label_2
_ccdc_geom_bond_type
C7    C54   S    
C72   H27   S    
S2    O21   D    
C88   C96   A    
C14   H6    S    
Cu4   O6    S    
C22   N2    A    
Cu2   N1    S    
C33   C45   A    
C5    C56   S    
C53   C77   A    
C5    O13   A    
C6    C55   S    
C109  H41   S    
S8    O38   D    
C76   C84   A    
C79   C87   A    
C13   H5    S    
S4    O27   D    
C107  H39   S    
C61   C69   A    
C8    O16   A    
C99   C108  A    
Cu4   O16   S    
C1    O1    A    
C80   H19   S    
C57   C89   A    
C10   H2    S    
C32   C36   A    
C7    O15   A    
C71   H28   S    
C51   C75   A    
C17   S5    S    
C1    C52   S    
C50   C74   A    
C2    O10   A    
C68   H23   S    
C76   H15   S    
S6    O33   D    
S2    O22   S    
C10   C94   A    
C9    C105  A    
Cu3   Cu4   S    
C21   N1    A    
C63   C95   A    
S5    O31   S    
C55   C79   A    
C62   C70   A    
C60   H36   S    
C63   H31   S    
C37   C42   A    
S1    O18   D    
C61   H29   S    
C14   C90   A    
C13   C109  A    
C86   C94   A    
C59   C67   A    
C12   H4    S    
C22   H49   S    
C85   C93   A    
C28   N4    A    
C40   C43   A    
Cu1   O10   S    
C29   C33   A    
C56   C72   A    
C61   C93   A    
C57   H33   S    
S3    O25   S    
C36   C48   A    
C34   C46   A    
O22   H54   S    
C43   C47   A    
Cu3   O8    S    
C110  H42   S    
C47   H47   S    
C78   C86   A    
C26   S1    S    
S2    O20   D    
C53   C69   A    
S3    O23   D    
C83   C99   A    
C6    O6    A    
S4    O26   D    
C82   C98   A    
C25   S2    S    
C18   S6    S    
C17   C33   A    
C74   C82   A    
C45   H45   S    
C73   C81   A    
C88   C104  A    
C3    C50   S    
C58   C66   A    
C60   C92   A    
C25   C29   A    
C28   S3    S    
O25   H55   S    
C30   C34   A    
C27   C31   A    
C27   S4    S    
C84   C100  A    
C15   C111  A    
C28   C32   A    
C24   H51   S    
C64   C96   A    
C38   C41   A    
C11   H3    S    
C43   H11   S    
S7    O35   D    
C12   C108  A    
Cu3   O14   S    
C1    O9    A    
S6    O32   D    
C51   C67   A    
C106  H38   S    
C69   H26   S    
S8    O39   D    
C100  C103  A    
C17   C21   A    
C21   H50   S    
O28   H56   S    
Cu4   N3    S    
C87   C95   A    
C103  C112  A    
S1    O19   S    
C19   C23   A    
C37   C38   A    
C79   H20   S    
C41   H9    S    
S7    O36   D    
Cu3   O15   S    
C8    O8    A    
C98   C105  A    
O40   H60   S    
C54   C70   A    
S4    O28   S    
C105  H37   S    
C57   C65   A    
S5    O29   D    
C20   S8    S    
C70   H25   S    
C7    O7    A    
C59   C91   A    
C82   C90   A    
C4    O12   A    
C84   C92   A    
C67   H24   S    
C18   C34   A    
C62   H30   S    
C5    O5    A    
Cu3   O5    S    
C49   C65   A    
C58   C90   A    
Cu1   O4    S    
C87   C103  A    
C65   H22   S    
C3    O3    A    
Cu2   O3    S    
O34   H58   S    
C63   C71   A    
C26   C30   A    
C62   C94   A    
C42   C46   A    
C49   C73   A    
C10   C106  A    
C19   S7    S    
C77   H18   S    
C97   C106  A    
C86   C102  A    
S8    O40   S    
C9    C93   A    
C39   C40   A    
C32   C40   A    
C85   C101  A    
C75   H16   S    
C16   C112  A    
Cu1   O1    S    
Cu1   Cu2   S    
C11   C95   A    
C14   C110  A    
C73   H14   S    
C44   H12   S    
C100  C107  A    
C112  H44   S    
C13   C89   A    
C18   C22   A    
C97   C102  A    
C111  H43   S    
Cu3   N4    S    
C52   C76   A    
S6    O34   S    
C52   C68   A    
C8    C53   S    
C104  C111  A    
C50   C66   A    
C16   C92   A    
C39   C44   A    
C48   H48   S    
C59   H35   S    
Cu2   O9    S    
C83   C91   A    
Cu4   O13   S    
C6    O14   A    
C108  H40   S    
C56   C80   A    
C98   C101  A    
C4    C49   S    
C60   C68   A    
C25   N1    A    
O19   H53   S    
C101  C110  A    
C81   C89   A    
C80   C88   A    
C19   C35   A    
C2    O2    A    
S7    O37   S    
C11   C107  A    
C75   C83   A    
Cu1   O11   S    
C66   H21   S    
C81   C97   A    
C77   C85   A    
Cu2   O12   S    
C31   C35   A    
S5    O30   D    
C31   C39   A    
C99   C104  A    
Cu1   N2    S    
C64   C72   A    
C16   H8    S    
S1    O17   D    
C24   N4    A    
C78   H17   S    
C55   C71   A    
C2    C51   S    
C42   H10   S    
C15   C91   A    
C23   H52   S    
C20   C36   A    
C44   C48   A    
Cu2   O2    S    
C23   N3    A    
O31   H57   S    
C26   N2    A    
C4    O4    A    
C74   H13   S    
C29   C37   A    
S3    O24   D    
C41   C45   A    
C12   C96   A    
C102  C109  A    
C15   H7    S    
C30   C38   A    
C35   C47   A    
Cu4   O7    S    
C27   N3    A    
C3    O11   A    
O37   H59   S    
C20   C24   A    
C64   H32   S    
C9    H1    S    
C58   H34   S    
C46   H46   S    
C54   C78   A    
