data_mof_unit_16201.cif
_audit_creation_date              2012-10-26T20:00:14-0400
_audit_creation_method            fapswitch 2.2
_symmetry_space_group_name_H-M    P1
_symmetry_Int_Tables_number       1
_space_group_crystal_system       triclinic
_cell_length_a                    23.516972
_cell_length_b                    10.938116
_cell_length_c                    9.700998
_cell_angle_alpha                 90.265185
_cell_angle_beta                  88.956116
_cell_angle_gamma                 90.870584
_cell_volume                      2494.67519182

loop_
_atom_site_label
_atom_site_type_symbol
_atom_type_description
_atom_site_fract_x
_atom_site_fract_y
_atom_site_fract_z
_atom_type_partial_charge
C1    C     C_R   0.498383 0.265149 0.499530 0.520908
C2    C     C_R   0.119614 0.591519 0.548734 0.412744
C3    C     C_R   0.239318 0.581562 0.444578 -0.118740
C4    C     C_R   0.391364 0.498919 0.501152 0.566000
C5    C     C_R   0.298396 0.591634 0.450359 0.185585
C6    C     C_R   0.329299 0.494427 0.504228 -0.030365
C7    C     C_R   0.300265 0.393515 0.563440 0.221940
C8    C     C_R   0.241194 0.397956 0.584244 0.308326
C9    C     C_R   0.209758 0.487831 0.515615 0.100929
C10   C     C_R   0.760260 0.430866 0.392232 0.382601
C11   C     C_R   0.700820 0.426307 0.395668 0.229919
C12   C     C_R   0.968491 0.263570 0.500254 0.286837
C13   C     C_R   0.670990 0.493818 0.497346 -0.099292
C14   C     C_R   0.700970 0.555805 0.600340 -0.190492
C15   C     C_R   0.760290 0.553440 0.602259 0.237091
C16   C     C_R   0.501279 0.734492 0.500105 0.551374
C17   C     C_R   0.790436 0.493069 0.495766 0.190618
C18   C     C_2   0.485012 0.930302 0.397149 -0.159717
C19   C     C_2   0.507793 0.865918 0.499240 0.293697
C20   C     C_2   0.491507 0.064304 0.384316 0.229565
C21   C     C_2   0.493328 0.132641 0.500158 -0.070319
C22   C     C_2   0.454896 0.480558 0.926582 0.571446
C23   C     C_R   0.027944 0.265161 0.486856 0.400489
C24   C     C_2   0.459643 0.451509 0.078041 0.170776
C25   C     C_R   0.608803 0.499096 0.498920 0.540137
C26   C     C_R   0.882058 0.598608 0.497609 0.442878
C27   C     C_R   0.878655 0.380300 0.500416 0.449561
C28   C     C_R   0.938592 0.375338 0.503638 -0.029910
C29   C     C_R   0.969731 0.486424 0.510789 -0.114763
C30   C     C_R   0.941147 0.598601 0.512221 -0.025829
C31   C     C_3   0.926388 0.115972 0.636431 0.032493
C32   C     C_3   0.975900 0.050423 0.703325 -0.248331
C33   C     C_3   0.956872 0.985396 0.835522 -0.469409
C34   C     C_R   0.059028 0.375790 0.496567 -0.021781
C35   C     C_3   0.649756 0.249785 0.352240 0.030346
C36   C     C_3   0.693466 0.147279 0.346331 -0.258873
C37   C     C_3   0.668436 0.028073 0.404101 -0.466351
C38   C     C_3   0.789151 0.553941 0.824944 0.006270
C39   C     C_3   0.824391 0.625690 0.929540 -0.277316
C40   C     C_3   0.825178 0.561034 0.068303 -0.423542
C41   C     C_3   0.514366 0.056312 0.149662 -0.009407
C42   C     C_3   0.524484 0.142142 0.027453 -0.250385
C43   C     C_3   0.553156 0.076496 0.906343 -0.430309
C44   C     C_3   0.581171 0.601439 0.099008 0.121533
C45   C     C_R   0.029701 0.485863 0.515503 -0.158569
C46   C     C_3   0.606576 0.714320 0.170698 -0.275395
C47   C     C_3   0.671325 0.717731 0.155926 -0.491511
C48   C     C_3   0.341726 0.771099 0.515721 0.003945
C49   C     C_3   0.290971 0.836762 0.582966 -0.266489
C50   C     C_3   0.310159 0.921886 0.698800 -0.459123
C51   C     C_3   0.345826 0.221542 0.486562 0.005335
C52   C     C_3   0.295222 0.160079 0.414192 -0.259756
C53   C     C_3   0.315439 0.077996 0.296040 -0.468137
C54   C     C_3   0.201412 0.352717 0.795341 0.017004
C55   C     C_3   0.250763 0.330033 0.892871 -0.255732
C56   C     C_R   0.060291 0.595943 0.536442 0.051940
C57   C     C_3   0.235180 0.364325 0.041419 -0.466682
C58   C     C_R   0.030895 0.707073 0.543507 0.392632
C59   C     C_R   0.972123 0.708264 0.527890 -0.088606
C60   C     C_R   0.118813 0.380147 0.487003 0.462034
Cu1   Cu    Cu3+1 0.500010 0.500020 0.638630 1.127606
Cu2   Cu    Cu3+1 0.499990 0.499980 0.361370 1.015004
F1    F     F_    0.541621 0.918014 0.596203 -0.686453
F2    F     F_    0.401881 0.487424 0.874927 -0.665358
F3    F     F_    0.545834 0.442837 0.891034 -0.618805
F4    F     F_    0.054926 0.156927 0.470722 -0.546441
F5    F     F_    0.058998 0.815444 0.558622 -0.575223
F6    F     F_    0.788675 0.372007 0.289219 -0.611764
H1    H     H_    0.678373 0.607750 0.678798 0.164367
H2    H     H_    0.010066 0.117777 0.728243 0.188577
H3    H     H_    0.939000 0.052055 0.910747 0.166002
H4    H     H_    0.993924 0.940709 0.882242 0.191238
H5    H     H_    0.924215 0.914006 0.812740 0.157017
H6    H     H_    0.612759 0.221752 0.289270 0.171891
H7    H     H_    0.633124 0.260841 0.459874 0.118382
H8    H     H_    0.707685 0.132401 0.237738 0.199461
H9    H     H_    0.731072 0.173798 0.407968 0.225349
H10   H     H_    0.653663 0.041260 0.512508 0.196805
H11   H     H_    0.701496 0.956679 0.401930 0.170994
H12   H     H_    0.460787 0.882816 0.318435 0.109738
H13   H     H_    0.632123 0.995966 0.341342 0.149836
H14   H     H_    0.808613 0.462492 0.808653 0.141911
H15   H     H_    0.744984 0.542113 0.866929 0.137982
H16   H     H_    0.868749 0.636777 0.889361 0.178009
H17   H     H_    0.806106 0.718074 0.944361 0.181768
H18   H     H_    0.781226 0.551251 0.110851 0.193766
H19   H     H_    0.850899 0.615564 0.141980 0.176962
H20   H     H_    0.844254 0.469203 0.056589 0.200817
H21   H     H_    0.486792 0.978769 0.115748 0.151102
H22   H     H_    0.556264 0.021412 0.182427 0.119228
H23   H     H_    0.488639 0.091249 0.601122 0.136789
H24   H     H_    0.483124 0.178479 0.993645 0.177740
H25   H     H_    0.551856 0.220542 0.059801 0.205974
H26   H     H_    0.595054 0.040960 0.937067 0.151888
H27   H     H_    0.559949 0.141408 0.819688 0.196976
H28   H     H_    0.525879 0.999298 0.870559 0.196075
H29   H     H_    0.595671 0.607042 0.989691 0.183825
H30   H     H_    0.598888 0.515462 0.140105 0.199408
H31   H     H_    0.589248 0.798304 0.124132 0.151091
H32   H     H_    0.595308 0.714587 0.281865 0.200214
H33   H     H_    0.689599 0.636553 0.205978 0.171771
H34   H     H_    0.427627 0.392386 0.125988 0.077663
H35   H     H_    0.688477 0.801270 0.206604 0.157047
H36   H     H_    0.684526 0.719214 0.045390 0.150631
H37   H     H_    0.372427 0.840991 0.476189 0.133036
H38   H     H_    0.364707 0.719065 0.595121 0.147003
H39   H     H_    0.268637 0.889602 0.503586 0.194944
H40   H     H_    0.260461 0.768909 0.627945 0.207263
H41   H     H_    0.328300 0.867996 0.783780 0.166248
H42   H     H_    0.273189 0.973420 0.739948 0.187386
H43   H     H_    0.342863 0.987970 0.660440 0.150181
H44   H     H_    0.374570 0.149281 0.522030 0.140127
H45   H     H_    0.950836 0.795363 0.530026 0.176071
H46   H     H_    0.371122 0.276866 0.411044 0.137832
H47   H     H_    0.269840 0.105545 0.490030 0.218016
H48   H     H_    0.267259 0.230546 0.370634 0.186984
H49   H     H_    0.338143 0.133405 0.216005 0.161269
H50   H     H_    0.278250 0.031749 0.248487 0.178404
H51   H     H_    0.344531 0.007372 0.334240 0.160560
H52   H     H_    0.163247 0.301723 0.834351 0.167764
H53   H     H_    0.189946 0.451442 0.796625 0.130393
H54   H     H_    0.262221 0.231834 0.888584 0.194255
H55   H     H_    0.288494 0.385418 0.859587 0.230023
H56   H     H_    0.216273 0.651739 0.391708 0.190188
H57   H     H_    0.224263 0.462636 0.048501 0.168236
H58   H     H_    0.271932 0.347580 0.108779 0.158838
H59   H     H_    0.198425 0.308011 0.079016 0.173856
H60   H     H_    0.889492 0.051549 0.630988 0.191406
H61   H     H_    0.912434 0.193887 0.702961 0.117916
H62   H     H_    0.993444 0.982311 0.629899 0.273259
N1    N     N_R   0.851750 0.490682 0.496369 -0.364567
N2    N     N_R   0.148179 0.485831 0.518691 -0.413194
N3    N     N_2   0.499380 0.498660 0.846910 0.056027
N4    N     N_2   0.499370 0.498630 0.153040 -0.067269
O1    O     O_R   0.500010 0.321960 0.617040 -0.489718
O2    O     O_R   0.582130 0.500060 0.617050 -0.459718
O3    O     O_R   0.582110 0.500020 0.382900 -0.504532
O4    O     O_2   0.855062 0.705804 0.484035 -0.465892
O5    O     O_3   0.940440 0.151387 0.499351 -0.478404
O6    O     O_3   0.672748 0.359464 0.295202 -0.539380
O7    O     O_3   0.789142 0.620250 0.700724 -0.522936
O8    O     O_3   0.486899 0.121758 0.256948 -0.561693
O9    O     O_3   0.520937 0.605207 0.101712 -0.478067
O10   O     O_3   0.325060 0.697209 0.402240 -0.550771
O11   O     O_3   0.328805 0.290332 0.604379 -0.540636
O12   O     O_2   0.847309 0.276053 0.501275 -0.444885
O13   O     O_3   0.214339 0.307368 0.661640 -0.500236
O14   O     O_2   0.147209 0.280460 0.443663 -0.384919
O15   O     O_2   0.148504 0.691872 0.591254 -0.437942
O16   O     O_R   0.499990 0.321920 0.382900 -0.472735
O17   O     O_R   0.417890 0.499980 0.617100 -0.437795
O18   O     O_R   0.417870 0.499940 0.382950 -0.510436
O19   O     O_R   0.500010 0.678080 0.617100 -0.475013
O20   O     O_R   0.499990 0.678040 0.382960 -0.515425

loop_
_geom_bond_atom_site_label_1
_geom_bond_atom_site_label_2
_ccdc_geom_bond_type
C41   H21   S    
C46   H31   S    
C35   H6    S    
C1    C21   S    
C51   H44   S    
C47   H33   S    
C54   H52   S    
C38   H15   S    
C17   N1    S    
C42   H25   S    
C27   N1    A    
C41   C42   S    
C35   C36   S    
C13   C25   S    
C60   N2    A    
C32   H62   S    
Cu1   N3    S    
C7    C8    A    
C49   H39   S    
C3    H56   S    
C37   H11   S    
C12   C23   A    
C35   H7    S    
Cu2   O18   S    
C12   C28   A    
C40   H19   S    
C36   C37   S    
C39   H16   S    
C36   H9    S    
C16   C19   S    
C57   H57   S    
C38   C39   S    
C53   H49   S    
C9    N2    S    
C51   O11   S    
C10   C17   A    
C50   H42   S    
C43   H26   S    
C48   O10   S    
C18   C19   D    
C46   C47   S    
C40   H18   S    
C25   O2    A    
C36   H8    S    
C33   H4    S    
N4    O9    S    
C15   O7    S    
C44   H30   S    
C48   H38   S    
C48   H37   S    
C45   C56   A    
C19   F1    S    
C8    C9    A    
C43   H27   S    
C42   H24   S    
C2    O15   S    
C41   H22   S    
C55   H54   S    
C13   C14   A    
C38   H14   S    
C34   C60   A    
C37   H13   S    
C31   H60   S    
C44   C46   S    
C49   H40   S    
C52   H48   S    
C4    O18   A    
C55   H55   S    
C51   H46   S    
C47   H35   S    
C22   N3    D    
C51   C52   S    
C20   O8    S    
C4    C6    S    
C57   H58   S    
C53   H50   S    
C5    O10   S    
C32   H2    S    
C3    C5    A    
C58   C59   A    
C50   H41   S    
Cu2   O20   S    
C29   C45   A    
C25   O3    A    
C11   O6    S    
C29   C30   A    
C3    C9    A    
C35   O6    S    
C24   H34   S    
C44   H29   S    
C2    N2    A    
C31   C32   S    
C59   H45   S    
C23   C34   A    
C30   C59   A    
C43   H28   S    
C12   O5    S    
C1    O16   A    
C34   C45   A    
Cu1   O17   S    
C33   H5    S    
C48   C49   S    
C54   H53   S    
C26   C30   A    
C55   C57   S    
C16   O20   A    
C38   O7    S    
C22   C24   S    
C8    O13   S    
C42   C43   S    
C39   H17   S    
C27   O12   S    
C39   C40   S    
C52   C53   S    
C23   F4    S    
C21   H23   S    
C52   H47   S    
C24   N4    D    
C15   C17   A    
C4    O17   A    
C46   H32   S    
C54   C55   S    
C28   C29   A    
C47   H36   S    
Cu2   O16   S    
C26   O4    S    
Cu1   O19   S    
C57   H59   S    
C53   H51   S    
C6    C7    A    
C10   F6    S    
C37   H10   S    
C32   C33   S    
Cu2   N4    S    
C41   O8    S    
C31   H61   S    
C2    C56   A    
C11   C13   A    
C40   H20   S    
C5    C6    A    
C44   O9    S    
C50   H43   S    
C14   H1    S    
C56   C58   A    
C18   C20   S    
Cu2   O3    S    
Cu1   Cu2   S    
C10   C11   A    
C33   H3    S    
C22   F2    S    
C58   F5    S    
C20   C21   D    
C18   H12   S    
C49   C50   S    
C16   O19   A    
C14   C15   A    
C60   O14   S    
C7    O11   S    
C1    O1    A    
C31   O5    S    
Cu1   O1    S    
F3    N3    S    
C26   N1    A    
Cu1   O2    S    
C54   O13   S    
C27   C28   A    
