data_mof_unit_65582.cif
_audit_creation_date              2013-03-05T16:10:03-0500
_audit_creation_method            fapswitch 2.2
_symmetry_space_group_name_H-M    P1
_symmetry_Int_Tables_number       1
_space_group_crystal_system       triclinic
_cell_length_a                    12.745887
_cell_length_b                    13.918794
_cell_length_c                    19.35704
_cell_angle_alpha                 90.001096
_cell_angle_beta                  92.652647
_cell_angle_gamma                 98.103641
_cell_volume                      3396.0740098

loop_
_atom_site_label
_atom_site_type_symbol
_atom_site_description
_atom_site_fract_x
_atom_site_fract_y
_atom_site_fract_z
_atom_type_partial_charge
O1    O     O_R   0.399110 0.356330 0.495750 -0.581927
O2    O     O_R   0.600890 0.643670 0.504250 -0.582383
O3    O     O_R   0.575900 0.366540 0.503170 -0.531707
O4    O     O_R   0.424100 0.633460 0.496830 -0.530957
C1    C     C_R   0.483441 0.315912 0.499064 0.857101
C2    C     C_R   0.516544 0.684076 0.501192 0.861399
O5    O     O_R   0.411580 0.494880 0.396430 -0.552690
O6    O     O_R   0.588420 0.505120 0.603570 -0.552181
O7    O     O_R   0.588360 0.505090 0.403850 -0.563407
O8    O     O_R   0.411640 0.494910 0.596150 -0.563589
C3    C     C_R   0.500819 0.499974 0.367400 0.868814
C4    C     C_R   0.499187 0.500059 0.632597 0.866959
Cu1   Cu    Cu3+1 0.395330 0.493960 0.495610 1.082787
Cu2   Cu    Cu3+1 0.604670 0.506040 0.504390 1.082412
C5    C     C_R   0.446783 0.567049 0.253470 0.303425
C6    C     C_R   0.553308 0.433222 0.746565 0.299918
C7    C     C_R   0.445381 0.564509 0.181164 -0.183868
C8    C     C_R   0.554739 0.435853 0.818861 -0.182577
H1    H     H_    0.402953 0.614693 0.152216 0.204479
H2    H     H_    0.597204 0.385718 0.847833 0.204466
C9    C     C_R   0.500439 0.500361 0.146308 -0.051697
C10   C     C_R   0.499679 0.500036 0.853680 -0.051096
C11   C     C_R   0.556320 0.436984 0.184670 -0.140613
C12   C     C_R   0.443813 0.563391 0.815277 -0.142187
H3    H     H_    0.598533 0.386206 0.158786 0.191877
H4    H     H_    0.401645 0.614223 0.841136 0.191351
C13   C     C_R   0.557504 0.437143 0.256710 0.108660
C14   C     C_R   0.442612 0.563140 0.743234 0.107999
C15   C     C_R   0.502838 0.502279 0.291762 -0.192143
C16   C     C_R   0.497202 0.497901 0.708230 -0.193855
N1    N     N_R   0.555531 0.440128 0.036006 -0.213622
N2    N     N_R   0.444601 0.560330 0.963981 -0.213529
N3    N     N_R   0.555497 0.440222 0.967308 -0.211801
N4    N     N_R   0.444635 0.560236 0.032682 -0.211943
C17   C     C_R   0.500066 0.500336 0.929898 0.457758
C18   C     C_R   0.500065 0.500116 0.070090 0.457639
C19   C     C_1   0.526112 0.787097 0.504715 -0.038441
C20   C     C_1   0.473641 0.212834 0.501225 -0.036194
C21   C     C_2   0.543499 0.977793 0.514577 0.199687
C22   C     C_2   0.455016 0.021974 0.508873 0.204237
C23   C     C_1   0.464872 0.126011 0.504266 0.078484
C24   C     C_1   0.534421 0.873851 0.508851 0.080168
N5    N     N_1   0.238030 0.484880 0.489000 -0.139575
N6    N     N_1   0.761970 0.515120 0.511000 -0.139255
C25   C     C_2   0.028308 0.473507 0.480402 -0.223650
C26   C     C_2   0.971692 0.526497 0.519604 -0.221183
C27   C     C_1   0.854606 0.519166 0.514063 0.292266
C28   C     C_1   0.145394 0.480836 0.485940 0.292528
H5    H     H_    0.013721 0.577368 0.557344 0.187384
H6    H     H_    0.986279 0.422636 0.442661 0.185544
N7    N     N_R   0.393851 0.637747 0.286912 0.138891
O9    O     O_R   0.439566 0.687089 0.339832 -0.355653
O10   O     O_R   0.307361 0.663092 0.258610 -0.305306
N8    N     N_R   0.606342 0.362567 0.713167 0.141333
O11   O     O_R   0.560497 0.312864 0.660443 -0.343056
O12   O     O_R   0.693114 0.337634 0.741363 -0.298193
I1    I     I_    0.637864 0.331792 0.308323 -0.263402
I2    I     I_    0.362471 0.668573 0.691527 -0.231058
N9    N     N_R   0.349485 0.967918 0.503784 0.138288
O13   O     O_R   0.272277 0.006760 0.473836 -0.286750
O14   O     O_R   0.326661 0.887381 0.537558 -0.310055
N10   N     N_R   0.648785 0.031806 0.522898 0.131181
O15   O     O_R   0.729925 0.993332 0.503220 -0.288845
O16   O     O_R   0.666076 0.111824 0.559014 -0.288646

loop_
_geom_bond_atom_site_label_1
_geom_bond_atom_site_label_2
_geom_bond_distance
_ccdc_geom_bond_type
N10   O16   1.301649 A    
O7    Cu2   1.947486 S    
N1    N3    1.329782 A    
C5    C7    1.399298 A    
N10   O15   1.301541 A    
C14   I2    2.127637 S    
C13   C15   1.410528 A    
C8    C10   1.401922 A    
N5    C28   1.172851 T    
N8    O11   1.300944 A    
N4    C18   1.357599 A    
C5    N7    1.438778 S    
N6    C27   1.172854 T    
O5    Cu1   1.940326 S    
O6    C4    1.284834 A    
C4    C16   1.465655 S    
C6    N8    1.438692 S    
C14   C16   1.410499 A    
C2    C19   1.423234 S    
N9    O13   1.301530 A    
C22   N9    1.444814 S    
C26   C27   1.480316 S    
Cu1   Cu2   2.647286 S    
O5    C3    1.284906 A    
C10   C17   1.475143 S    
O7    C3    1.285536 A    
C26   H5    1.085737 S    
O2    C2    1.280675 A    
O3    Cu2   1.924468 S    
O8    C4    1.285543 A    
C25   H6    1.085734 S    
O1    C1    1.280649 A    
C10   C12   1.401892 A    
Cu2   N6    1.989194 S    
C22   C23   1.438885 S    
C7    H1    1.082954 S    
C12   H4    1.082635 S    
C5    C15   1.416059 A    
C21   C24   1.438885 S    
C8    H2    1.082972 S    
C11   C13   1.393857 A    
C9    C11   1.401820 A    
O2    Cu2   1.923026 S    
N8    O12   1.301494 A    
N9    O14   1.301661 A    
O1    Cu1   1.923026 S    
C19   C24   1.199525 T    
N7    O10   1.301383 A    
C6    C16   1.415958 A    
N7    O9    1.300940 A    
C21   C22   1.358779 D    
N2    C17   1.357181 A    
Cu1   N5    1.989195 S    
C11   H3    1.082682 S    
C1    C20   1.423279 S    
C3    C15   1.465819 S    
C20   C23   1.199534 T    
O4    C2    1.283971 A    
C13   I1    2.127506 S    
C25   C28   1.480313 S    
O4    Cu1   1.924468 S    
C9    C18   1.475143 S    
C21   N10   1.444833 S    
N1    C18   1.357132 A    
O6    Cu2   1.940329 S    
N3    C17   1.357554 A    
C25   C26   1.356938 D    
C6    C8    1.399113 A    
C7    C9    1.401915 A    
C12   C14   1.393914 A    
O3    C1    1.284092 A    
O8    Cu1   1.947484 S    
N2    N4    1.329827 A    
