data_mof_unit_8029.cif
_audit_creation_date              2012-12-10T16:43:24-0500
_audit_creation_method            fapswitch 2.2
_symmetry_space_group_name_H-M    P1
_symmetry_Int_Tables_number       1
_space_group_crystal_system       triclinic
_cell_length_a                    10.723857
_cell_length_b                    8.684579
_cell_length_c                    7.488292
_cell_angle_alpha                 103.132363
_cell_angle_beta                  94.138751
_cell_angle_gamma                 92.780326
_cell_volume                      675.877273901

loop_
_atom_site_label
_atom_site_type_symbol
_atom_type_description
_atom_site_fract_x
_atom_site_fract_y
_atom_site_fract_z
_atom_type_partial_charge
C1    C     C_R   0.495406 0.199807 0.453303 0.861610
C2    C     C_R   0.075760 0.652358 0.582833 0.094091
C3    C     C_R   0.129629 0.509236 0.507408 -0.082766
C4    C     C_R   0.055278 0.372125 0.423017 -0.205556
C5    C     C_R   0.926457 0.373256 0.417461 -0.192830
C6    C     C_R   0.871036 0.511975 0.494640 -0.072595
C7    C     C_2   0.491234 0.031630 0.427794 -0.364025
C8    C     C_2   0.507068 0.968437 0.572993 -0.384360
C9    C     C_R   0.262937 0.501543 0.502513 0.773321
C10   C     C_R   0.504190 0.800210 0.546836 0.842112
C11   C     C_R   0.737167 0.503059 0.498008 0.773852
C12   C     C_R   0.149502 0.794171 0.661555 -0.175053
C13   C     C_R   0.093178 0.934729 0.729306 -0.133146
C14   C     C_R   0.963129 0.936813 0.718730 -0.142306
C15   C     C_R   0.888715 0.798129 0.641451 -0.192550
C16   C     C_R   0.943923 0.654085 0.574385 0.102425
Cu1   Cu    Cu3+1 0.513920 0.517380 0.684380 0.967934
Cu2   Cu    Cu3+1 0.486080 0.482620 0.315620 1.000154
H1    H     H_    0.097444 0.263448 0.362868 0.142038
H2    H     H_    0.250683 0.798069 0.670096 0.138190
H3    H     H_    0.150664 0.042715 0.788720 0.134590
H4    H     H_    0.919734 0.046475 0.769478 0.141348
H5    H     H_    0.788130 0.805255 0.631817 0.116348
H6    H     H_    0.869681 0.264943 0.355626 0.137563
H7    H     H_    0.474430 0.959481 0.288455 0.170161
H8    H     H_    0.522733 0.040579 0.712780 0.175780
H9    H     H_    0.391474 0.392872 0.953466 0.178954
N1    N     N_2   0.465100 0.456430 0.038520 -0.144453
N2    N     N_2   0.534900 0.543570 0.961480 0.096492
O1    O     O_R   0.509050 0.286130 0.619770 -0.588164
O2    O     O_R   0.485540 0.256780 0.308360 -0.596902
O3    O     O_R   0.331410 0.514680 0.655740 -0.607912
O4    O     O_R   0.307900 0.485330 0.344330 -0.582901
O5    O     O_R   0.514460 0.743220 0.691640 -0.629116
O6    O     O_R   0.490950 0.713870 0.380230 -0.542860
O7    O     O_R   0.692100 0.514670 0.655670 -0.579650
O8    O     O_R   0.668590 0.485320 0.344260 -0.515961
O9    O     O_3   0.637832 0.612210 0.069068 -0.438230
C17   C     C_3   0.662402 0.763039 0.036390 -0.079993
H10   H     H_    0.576032 0.828372 0.031731 0.128959
H11   H     H_    0.711162 0.755007 0.909894 0.161789
H12   H     H_    0.726492 0.833319 0.152320 0.113619

loop_
_geom_bond_atom_site_label_1
_geom_bond_atom_site_label_2
_ccdc_geom_bond_type
N2    O9    S    
Cu2   N1    S    
C10   O6    A    
C3    C9    S    
Cu1   O7    S    
C2    C16   A    
Cu2   O6    S    
C7    H7    S    
C2    C12   A    
C12   H2    S    
C15   H5    S    
C2    C3    A    
C13   H3    S    
C7    C8    D    
C10   O5    A    
C13   C14   A    
C9    O4    A    
Cu1   O1    S    
C14   H4    S    
O9    C17   S    
C5    H6    S    
C8    C10   S    
C1    O1    A    
Cu2   O8    S    
Cu1   Cu2   S    
C17   H12   S    
C6    C11   S    
C5    C6    A    
Cu2   O4    S    
Cu1   O5    S    
C6    C16   A    
C3    C4    A    
Cu1   N2    S    
C1    O2    A    
C8    H8    S    
C12   C13   A    
C17   H11   S    
C17   H10   S    
C11   O8    A    
Cu1   O3    S    
C14   C15   A    
N1    N2    D    
Cu2   O2    S    
C9    O3    A    
C1    C7    S    
C4    H1    S    
C15   C16   A    
C4    C5    A    
H9    N1    S    
C11   O7    A    
