data_mof_unit_6620.cif
_audit_creation_date              2013-03-05T16:11:51-0500
_audit_creation_method            fapswitch 2.2
_symmetry_space_group_name_H-M    P1
_symmetry_Int_Tables_number       1
_space_group_crystal_system       triclinic
_cell_length_a                    11.068989
_cell_length_b                    9.609944
_cell_length_c                    23.48773
_cell_angle_alpha                 90.023206
_cell_angle_beta                  93.641932
_cell_angle_gamma                 90.514702
_cell_volume                      2493.29798631

loop_
_atom_site_label
_atom_site_type_symbol
_atom_site_description
_atom_site_fract_x
_atom_site_fract_y
_atom_site_fract_z
_atom_type_partial_charge
O1    O     O_R   0.317570 0.620260 0.500030 -0.587261
O2    O     O_R   0.317570 0.379740 0.500030 -0.617602
C1    C     C_R   0.260360 0.500120 0.503313 0.836755
O3    O     O_R   0.499840 0.620290 0.417900 -0.614132
O4    O     O_R   0.499840 0.379710 0.417900 -0.626746
C2    C     C_R   0.497566 0.499208 0.390774 0.890178
Cu1   Cu    Cu3+1 0.499860 0.642410 0.500030 0.936033
Cu2   Cu    Cu3+1 0.499860 0.357590 0.500030 0.916454
O5    O     O_R   0.682190 0.620260 0.500010 -0.603237
O6    O     O_R   0.682190 0.379740 0.500010 -0.584085
O7    O     O_R   0.499920 0.620230 0.582140 -0.580597
O8    O     O_R   0.499920 0.379770 0.582140 -0.605448
C3    C     C_R   0.739228 0.500831 0.503310 0.811270
C4    C     C_R   0.496736 0.499550 0.608864 0.750121
C5    C     C_R   0.559322 0.365047 0.881168 0.611766
N1    N     N_R   0.520630 0.484623 0.854165 -0.455358
C6    C     C_R   0.503957 0.604352 0.884259 0.586946
C7    C     C_R   0.525394 0.606605 0.943749 -0.038093
C8    C     C_R   0.559548 0.482775 0.972402 -0.006340
C9    C     C_R   0.576826 0.361015 0.941010 -0.062044
C10   C     C_R   0.513503 0.729539 0.975088 -0.097299
C11   C     C_R   0.533212 0.729027 0.034223 -0.064951
C12   C     C_R   0.562233 0.605027 0.063325 -0.032324
C13   C     C_R   0.575139 0.480846 0.032543 0.003045
C14   C     C_R   0.601872 0.355114 0.061857 -0.102016
C15   C     C_R   0.630880 0.235568 0.029679 -0.029560
C16   C     C_R   0.614942 0.239622 0.969745 -0.098009
C17   C     C_R   0.572781 0.601064 0.122878 0.619890
N2    N     N_R   0.575616 0.475918 0.150758 -0.442997
C18   C     C_R   0.590981 0.353945 0.121764 0.559070
O9    O     O_2   0.581530 0.250863 0.850187 -0.484693
O10   O     O_2   0.466994 0.721022 0.856588 -0.480857
H1    H     H_    0.488530 0.826401 0.954103 0.206232
H2    H     H_    0.520861 0.824951 0.057262 0.217181
O11   O     O_2   0.573742 0.720980 0.152897 -0.468914
O12   O     O_2   0.587441 0.232360 0.150190 -0.515127
H3    H     H_    0.634878 0.147987 0.945253 0.224004
C19   C     C_R   0.631927 0.415278 0.251057 -0.056316
H4    H     H_    0.713571 0.366366 0.238124 0.209701
C20   C     C_R   0.609079 0.419349 0.308742 -0.169545
H5    H     H_    0.671524 0.368301 0.338835 0.246196
C21   C     C_R   0.510463 0.492955 0.327987 -0.181752
C22   C     C_R   0.424882 0.547100 0.286592 0.221036
C23   C     C_R   0.441746 0.530858 0.228048 0.293423
C24   C     C_R   0.549836 0.473484 0.210287 0.196247
C25   C     C_R   0.414296 0.416953 0.761649 0.352841
C26   C     C_R   0.407608 0.420399 0.700873 -0.113686
C27   C     C_R   0.496704 0.497526 0.672330 -0.219713
C28   C     C_R   0.586844 0.573294 0.705068 -0.068584
C29   C     C_R   0.591313 0.567427 0.764409 -0.091246
H6    H     H_    0.662500 0.621918 0.789490 0.203801
C30   C     C_R   0.507982 0.488992 0.792780 0.194160
C31   C     C_3   0.074155 0.627493 0.541996 -0.194924
C32   C     C_3   0.071523 0.371482 0.538865 -0.212726
H7    H     H_    0.089382 0.595600 0.587429 0.248624
H8    H     H_    0.119755 0.373934 0.581626 0.218189
C33   C     C_3   0.935066 0.645422 0.528425 -0.275566
C34   C     C_3   0.930470 0.382822 0.545275 -0.230507
H9    H     H_    0.921000 0.721982 0.493375 0.209926
H10   H     H_    0.886539 0.282588 0.532029 0.175630
C35   C     C_3   0.059198 0.511370 0.442122 0.370799
C36   C     C_3   0.121365 0.501973 0.504999 -0.255284
C37   C     C_3   0.877022 0.502495 0.505650 -0.185344
C38   C     C_3   0.919755 0.476057 0.443322 0.376399
C39   C     C_3   0.599323 0.084456 0.467757 -0.078058
C40   C     C_3   0.611530 0.921465 0.477209 -0.126734
H11   H     H_    0.686526 0.131115 0.484697 0.182846
H12   H     H_    0.688156 0.910260 0.510040 0.127427
H13   H     H_    0.611578 0.112366 0.578738 0.162107
H14   H     H_    0.579650 0.871315 0.587380 0.161032
C41   C     C_3   0.519842 0.083192 0.560112 -0.232808
C42   C     C_3   0.504013 0.917136 0.560369 -0.217523
C43   C     C_3   0.380702 0.078225 0.479225 -0.104865
C44   C     C_3   0.389996 0.914897 0.471462 -0.082479
N3    N     N_3   0.500250 0.143650 0.501250 -0.227805
N4    N     N_3   0.500250 0.856350 0.501250 -0.230496
H15   H     H_    0.316149 0.093814 0.512923 0.172663
H16   H     H_    0.312014 0.872829 0.492476 0.139406
H17   H     H_    0.454609 0.128062 0.588967 0.182909
H18   H     H_    0.420632 0.888703 0.581703 0.223902
C45   C     C_2   0.307437 0.347336 0.667022 0.444863
H19   H     H_    0.316526 0.318749 0.623049 0.067585
O13   O     O_2   0.210895 0.320963 0.687063 -0.413165
C46   C     C_2   0.681664 0.653918 0.678147 0.479257
H20   H     H_    0.699496 0.632630 0.634588 0.024024
O14   O     O_2   0.740781 0.743792 0.704426 -0.464010
C47   C     C_2   0.135596 0.768441 0.541985 0.477119
H21   H     H_    0.114358 0.843111 0.508436 0.128559
O15   O     O_2   0.202837 0.804753 0.582625 -0.510334
C48   C     C_2   0.100071 0.229580 0.516946 0.383178
H22   H     H_    0.100202 0.209925 0.472123 0.190479
O16   O     O_2   0.114215 0.132363 0.550107 -0.520170
C49   C     C_2   0.876935 0.713663 0.577954 0.386933
H23   H     H_    0.790798 0.764534 0.570798 0.073120
O17   O     O_2   0.928185 0.721189 0.625498 -0.435859
C50   C     C_2   0.893996 0.397891 0.606291 0.478656
H24   H     H_    0.798522 0.396913 0.614333 0.024206
O18   O     O_2   0.968150 0.409533 0.646771 -0.435169
Br1   Br    Br    0.085577 0.697840 0.410289 -0.364808
Br2   Br    Br    0.136297 0.399434 0.385615 -0.348772
Br3   Br    Br    0.824924 0.576817 0.383910 -0.352135
Br4   Br    Br    0.881447 0.284691 0.418518 -0.388174
C51   C     C_2   0.589716 0.122362 0.404461 0.468241
H25   H     H_    0.506013 0.148128 0.381702 0.115971
O19   O     O_2   0.677304 0.113074 0.375809 -0.464563
C52   C     C_2   0.661263 0.851002 0.426541 0.567269
H26   H     H_    0.604569 0.814294 0.390657 0.143666
O20   O     O_2   0.770345 0.855248 0.421652 -0.469613
C53   C     C_2   0.312973 0.144913 0.428567 0.397011
H27   H     H_    0.338933 0.241928 0.411354 0.159024
O21   O     O_2   0.221136 0.089936 0.406966 -0.465151
C54   C     C_2   0.370234 0.859079 0.411709 0.498476
H28   H     H_    0.323384 0.761617 0.406478 0.166975
O22   O     O_2   0.405323 0.918534 0.369879 -0.536477
C55   C     C_2   0.689441 0.110840 0.056389 0.464838
H29   H     H_    0.732471 0.115396 0.099059 0.148901
O23   O     O_2   0.695495 0.002111 0.029858 -0.546927
Br5   Br    Br    0.280997 0.636687 0.306360 -0.269947
Br6   Br    Br    0.313249 0.577452 0.171665 -0.308240
Br7   Br    Br    0.299124 0.314947 0.804487 -0.279398

loop_
_geom_bond_atom_site_label_1
_geom_bond_atom_site_label_2
_geom_bond_distance
_ccdc_geom_bond_type
C40   H12   1.115473 S    
C47   H21   1.082144 S    
C49   H23   1.079073 S    
C7    C10   1.403273 A    
C43   C44   1.585070 S    
C8    C9    1.403789 A    
C42   N4    1.504203 S    
C54   O22   1.219653 D    
C45   H19   1.079723 S    
Cu1   Cu2   2.737103 S    
Cu1   O7    1.940363 S    
C15   C16   1.408161 A    
C44   N4    1.483107 S    
C28   C46   1.473713 S    
C17   N2    1.369258 A    
C19   C20   1.394580 A    
C46   O14   1.221974 D    
C32   C48   1.500776 S    
C53   O21   1.222511 D    
C44   C54   1.504523 S    
C19   H4    1.082741 S    
O7    C4    1.320184 A    
C33   H9    1.108839 S    
C10   H1    1.083274 S    
C52   H26   1.075718 S    
C34   H10   1.110496 S    
C5    N1    1.371523 A    
C25   C30   1.406995 A    
C34   C37   1.575431 S    
C7    C8    1.410084 A    
H13   C41   1.113296 S    
O5    C3    1.314802 A    
C15   C55   1.487741 S    
C19   C24   1.398057 A    
C34   C50   1.520612 S    
C39   H11   1.111021 S    
C17   O11   1.350336 S    
N1    C6    1.370131 A    
C55   O23   1.220911 D    
C50   O18   1.220376 D    
C29   C30   1.388891 A    
C12   C13   1.408106 A    
C20   C21   1.404463 A    
C49   O17   1.221781 D    
C33   C49   1.516415 S    
C10   C11   1.392243 A    
C43   N3    1.520455 S    
C35   Br1   1.968455 S    
C40   C52   1.505702 S    
O3    Cu1   1.940627 S    
C41   H17   1.110934 S    
C54   H28   1.069739 S    
C45   O13   1.219389 D    
C33   C37   1.589143 S    
C31   H7    1.113297 S    
C5    C9    1.407187 A    
C11   H2    1.082845 S    
C32   H8    1.107219 S    
C46   H20   1.074136 S    
C31   C47   1.510191 S    
C31   C33   1.563343 S    
C4    C27   1.490836 S    
C38   Br3   1.954483 S    
C32   C36   1.598055 S    
C23   Br6   1.936481 S    
C29   H6    1.084226 S    
C14   C15   1.425096 A    
Cu2   N3    2.056202 S    
N2    C24   1.444835 S    
O1    C1    1.316453 A    
C35   C38   1.579388 S    
C38   Br4   1.963399 S    
C22   C23   1.408169 A    
N2    C18   1.372694 A    
C31   C36   1.597301 S    
C48   O16   1.221347 D    
C26   C27   1.429219 A    
C3    C37   1.522674 S    
Cu2   O8    1.940190 S    
C40   N4    1.517380 S    
C50   H24   1.085257 S    
C6    C7    1.402486 A    
C25   Br7   1.933861 S    
C51   O19   1.218682 D    
C12   C17   1.396787 A    
C13   C14   1.415187 A    
C5    O9    1.349425 S    
O3    C2    1.325649 A    
C20   H5    1.078098 S    
O8    C4    1.312695 A    
C28   C29   1.392690 A    
C47   O15   1.221355 D    
C44   H16   1.095511 S    
C35   Br2   1.950934 S    
C21   C22   1.416231 A    
C39   C51   1.528155 S    
C23   C24   1.408752 A    
C32   C34   1.582772 S    
C1    C36   1.541822 S    
C14   C18   1.419892 A    
Cu1   O5    2.031334 S    
C25   C26   1.425118 A    
C27   C28   1.416317 A    
O1    Cu1   2.027059 S    
O2    Cu2   2.030862 S    
N1    C30   1.440365 S    
O6    C3    1.318817 A    
O4    Cu2   1.940798 S    
C43   C53   1.511416 S    
Cu1   N4    2.056101 S    
C9    C16   1.402754 A    
C39   N3    1.505171 S    
C18   O12   1.347460 S    
O2    C1    1.328365 A    
C41   C42   1.603867 S    
C42   H18   1.109917 S    
C53   H27   1.060890 S    
C41   N3    1.503596 S    
C48   H22   1.069640 S    
O4    C2    1.313158 A    
C52   O20   1.220434 D    
C16   H3    1.083638 S    
C8    C13   1.412310 A    
C26   C45   1.492692 S    
C35   C36   1.592111 S    
C22   Br5   1.900427 S    
C37   C38   1.587841 S    
Cu2   O6    2.027531 S    
C39   C40   1.587828 S    
C2    C21   1.491856 S    
C51   H25   1.070875 S    
C6    O10   1.349791 S    
C43   H15   1.110466 S    
C11   C12   1.403586 A    
H14   C42   1.112087 S    
C55   H29   1.082657 S    
