data_mof_unit_24107.cif
_audit_creation_date              2012-12-11T16:24:09-0500
_audit_creation_method            fapswitch 2.2
_symmetry_space_group_name_H-M    P1
_symmetry_Int_Tables_number       1
_space_group_crystal_system       triclinic
_cell_length_a                    14.727874
_cell_length_b                    14.710682
_cell_length_c                    33.310836
_cell_angle_alpha                 96.15424
_cell_angle_beta                  95.991167
_cell_angle_gamma                 61.164512
_cell_volume                      6274.23564066

loop_
_atom_site_label
_atom_site_type_symbol
_atom_type_description
_atom_site_fract_x
_atom_site_fract_y
_atom_site_fract_z
_atom_type_partial_charge
C1    C     C_R   0.390562 0.700438 0.446435 0.540151
C2    C     C_1   0.313798 0.345296 0.228416 0.049247
C3    C     C_3   0.803160 0.153461 0.040873 -0.293324
C4    C     C_3   0.546394 0.262166 0.191242 -0.010952
C5    C     C_3   0.652005 0.193399 0.211544 -0.361240
C6    C     C_3   0.129099 0.772447 0.327881 0.001932
C7    C     C_3   0.061098 0.775304 0.289975 -0.375317
C8    C     C_3   0.532499 0.887969 0.350828 -0.322050
C9    C     C_3   0.077457 0.936856 0.163090 0.011159
C10   C     C_3   0.997643 0.918484 0.181221 -0.369602
C11   C     C_3   0.520532 0.851123 0.071229 0.011753
C12   C     C_3   0.599685 0.879766 0.059009 -0.358421
C13   C     C_1   0.319314 0.346826 0.264636 0.023537
C14   C     C_3   0.544777 0.817491 0.184589 0.008299
C15   C     C_3   0.603192 0.840796 0.221160 -0.365189
C16   C     C_3   0.097006 0.583947 0.596692 -0.315639
C17   C     C_3   0.514513 0.098054 0.652859 -0.017266
C18   C     C_3   0.583214 0.012114 0.680841 -0.354293
C19   C     C_3   0.487070 0.112440 0.281560 -0.288300
C20   C     C_3   0.906269 0.030708 0.859165 -0.314060
C21   C     C_3   0.778185 0.123303 0.670396 -0.268289
C22   C     C_3   0.885502 0.156474 0.555582 -0.296606
C23   C     C_3   0.832011 0.561736 0.623797 -0.011816
C24   C     C_R   0.406417 0.385607 0.433753 0.565752
C25   C     C_3   0.800544 0.670450 0.611853 -0.383498
C26   C     C_3   0.969025 0.446763 0.799083 -0.014166
C27   C     C_3   0.967116 0.464198 0.754717 -0.381075
C28   C     C_3   0.928950 0.506989 0.897730 0.041979
C29   C     C_3   0.875697 0.620190 0.887123 -0.376355
C30   C     C_3   0.543963 0.124172 0.395058 0.001285
C31   C     C_3   0.651931 0.049231 0.411827 -0.374874
C32   C     C_3   0.507968 0.978730 0.835518 -0.321841
C33   C     C_3   0.588422 0.729575 0.704742 -0.007525
C34   C     C_3   0.668600 0.749201 0.731164 -0.379839
C35   C     C_R   0.288635 0.300771 0.101289 -0.077811
C36   C     C_3   0.504286 0.867178 0.583042 -0.311367
C37   C     C_3   0.129079 0.880123 0.572843 -0.289701
C38   C     C_3   0.236369 0.737849 0.907333 -0.295700
C39   C     C_3   0.146382 0.463904 0.423347 -0.290079
C40   C     C_3   0.122034 0.562034 0.195437 -0.001838
C41   C     C_3   0.009003 0.644004 0.199092 -0.379261
C42   C     C_3   0.100292 0.520902 0.084184 0.010611
C43   C     C_3   0.994639 0.576365 0.061651 -0.363986
C44   C     C_3   0.085967 0.442904 0.303227 -0.256512
C45   C     C_R   0.758994 0.371838 0.410697 -0.025499
C46   C     C_R   0.792481 0.434119 0.394613 -0.124236
C47   C     C_R   0.820478 0.415538 0.354493 0.258361
C48   C     C_R   0.821203 0.329289 0.331221 0.050981
C49   C     C_R   0.799070 0.260412 0.348828 -0.166264
C50   C     C_R   0.767143 0.282046 0.388242 -0.140856
C51   C     C_R   0.331648 0.345190 0.307945 -0.007107
C52   C     C_R   0.840645 0.308718 0.206395 0.348230
C53   C     C_R   0.829711 0.320169 0.287429 0.363587
C54   C     C_R   0.869675 0.382660 0.148099 0.131774
C55   C     C_R   0.701573 0.409439 0.447692 0.543970
C56   C     C_R   0.895468 0.371598 0.108290 -0.137290
C57   C     C_R   0.884849 0.210827 0.096899 0.119097
C58   C     C_R   0.860270 0.221189 0.137332 -0.161967
C59   C     C_R   0.855177 0.305074 0.163246 0.034846
C60   C     C_R   0.908615 0.283998 0.082939 0.015866
C61   C     C_R   0.368101 0.758050 0.410130 -0.055404
C62   C     C_R   0.426725 0.272573 0.325430 0.131791
C63   C     C_R   0.271642 0.790508 0.388711 -0.139192
C64   C     C_R   0.257401 0.818640 0.348743 0.245751
C65   C     C_R   0.338627 0.822468 0.331502 0.061534
C66   C     C_R   0.432881 0.799317 0.354392 0.092278
C67   C     C_R   0.391945 0.703955 0.560936 0.551752
C68   C     C_R   0.446771 0.766811 0.393500 -0.119499
C69   C     C_R   0.318403 0.859536 0.208257 0.359418
C70   C     C_R   0.327869 0.839056 0.288405 0.367051
C71   C     C_R   0.238148 0.858854 0.138874 0.204445
C72   C     C_R   0.229878 0.875473 0.097946 -0.181276
C73   C     C_R   0.447121 0.279607 0.367373 0.222673
C74   C     C_R   0.378202 0.907617 0.107291 0.261705
C75   C     C_R   0.387584 0.890426 0.148512 0.238142
C76   C     C_R   0.315673 0.868477 0.164599 -0.014817
C77   C     C_R   0.294101 0.907318 0.082386 -0.081100
C78   C     C_R   0.373987 0.368579 0.586496 -0.022066
C79   C     C_R   0.407108 0.388721 0.549239 0.536846
C80   C     C_R   0.278836 0.439255 0.603852 0.128626
C81   C     C_R   0.268755 0.432312 0.645020 -0.145007
C82   C     C_R   0.348044 0.353818 0.667855 0.008296
C83   C     C_R   0.434102 0.274116 0.648152 0.249330
C84   C     C_R   0.396187 0.268193 0.164156 0.226422
C85   C     C_R   0.447567 0.284071 0.608272 -0.153958
C86   C     C_R   0.331635 0.362825 0.793526 0.337842
C87   C     C_R   0.341522 0.357222 0.712201 0.363988
C88   C     C_R   0.232437 0.419225 0.856371 -0.135186
C89   C     C_R   0.219115 0.396283 0.894297 -0.146109
C90   C     C_R   0.391433 0.248507 0.894632 -0.142539
C91   C     C_R   0.703027 0.412499 0.562457 0.562125
C92   C     C_R   0.405867 0.272614 0.857345 -0.130421
C93   C     C_R   0.324201 0.354182 0.836678 0.039245
C94   C     C_R   0.295513 0.306304 0.912240 0.024558
C95   C     C_R   0.384953 0.247358 0.122581 -0.150744
C96   C     C_R   0.761739 0.375779 0.601883 0.002243
C97   C     C_R   0.772034 0.448016 0.631204 0.215299
C98   C     C_R   0.799761 0.422596 0.671470 -0.151053
C99   C     C_R   0.826719 0.323953 0.682760 -0.037675
C100  C     C_R   0.829247 0.246893 0.653369 0.170082
C101  C     C_R   0.797869 0.272024 0.612806 0.119874
C102  C     C_R   0.887829 0.209191 0.822349 -0.152357
C103  C     C_R   0.372861 0.361429 0.392013 -0.019356
C104  C     C_R   0.902928 0.203219 0.864646 0.093716
C105  C     C_R   0.888974 0.377280 0.870551 0.251508
C106  C     C_R   0.204319 0.383043 0.121834 0.257220
C107  C     C_R   0.882009 0.377821 0.827884 0.289218
C108  C     C_R   0.880465 0.293681 0.804212 -0.028137
C109  C     C_1   0.863420 0.297586 0.761021 0.020088
C110  C     C_1   0.847613 0.306005 0.725114 -0.018802
C111  C     C_R   0.910686 0.285357 0.888843 -0.011239
C112  C     C_R   0.369434 0.763878 0.601123 -0.002027
C113  C     C_R   0.275785 0.789227 0.619191 0.108467
C114  C     C_R   0.268563 0.812887 0.660850 -0.165233
C115  C     C_R   0.272548 0.426745 0.374606 0.110925
C116  C     C_R   0.349721 0.817481 0.684593 -0.014429
C117  C     C_R   0.214231 0.400695 0.163861 0.244010
C118  C     C_R   0.436621 0.806634 0.666689 0.295798
C119  C     C_R   0.445385 0.783403 0.624760 0.113456
C120  C     C_R   0.385700 0.904415 0.830363 0.159162
C121  C     C_R   0.365394 0.930287 0.871575 -0.126380
C122  C     C_R   0.248621 0.855124 0.865249 0.128148
C123  C     C_R   0.268127 0.830060 0.824344 -0.105907
C124  C     C_R   0.332427 0.857804 0.806685 0.010909
C125  C     C_1   0.339072 0.842218 0.763663 -0.022389
C126  C     C_1   0.343639 0.831680 0.727599 0.000730
C127  C     C_R   0.252453 0.418744 0.332348 0.100489
C128  C     C_R   0.308933 0.340415 0.185097 -0.009947
C129  C     C_R   0.293014 0.911571 0.888881 -0.003023
C130  C     C_R   0.963113 0.264640 0.045646 0.560116
C131  C     C_R   0.272080 0.260547 0.060035 0.563416
C132  C     C_R   0.259101 0.959985 0.044025 0.552477
C133  C     C_R   0.961135 0.268244 0.930731 0.554676
C134  C     C_R   0.271909 0.264808 0.945842 0.534391
C135  C     C_R   0.256922 0.963709 0.929108 0.536377
C136  C     C_3   0.767034 0.580478 0.335894 0.013120
C137  C     C_3   0.791880 0.639593 0.307854 -0.374072
C138  C     C_3   0.781564 0.565569 0.168287 -0.313725
Cr1   Cr    Cr6+3 0.576280 0.580550 0.506370 1.004230
Cr2   Cr    Cr6+3 0.346780 0.572400 0.496520 1.041564
Cr3   Cr    Cr6+3 0.576960 0.347070 0.497150 1.002369
Cr4   Cr    Cr6+3 0.087320 0.083240 0.984860 1.027382
Cr5   Cr    Cr6+3 0.087720 0.316210 0.996740 1.005385
Cr6   Cr    Cr6+3 0.317350 0.090340 0.995890 1.017909
H1    H     H_    0.450568 0.185138 0.107483 0.173301
H2    H     H_    0.147373 0.445708 0.908681 0.097681
H3    H     H_    0.837524 0.628835 0.856227 0.199812
H4    H     H_    0.815792 0.669003 0.908952 0.147289
H5    H     H_    0.933897 0.648159 0.888627 0.072225
H6    H     H_    0.522369 0.083732 0.368806 0.122225
H7    H     H_    0.488312 0.145513 0.419011 0.131057
H8    H     H_    0.675641 0.087487 0.438278 0.159800
H9    H     H_    0.652020 0.979306 0.421537 0.079952
H10   H     H_    0.708650 0.024769 0.388189 0.143785
H11   H     H_    0.439889 0.943272 0.782192 0.272508
H12   H     H_    0.561939 0.985187 0.816486 0.137864
H13   H     H_    0.200386 0.489378 0.659968 0.134388
H14   H     H_    0.554335 0.934050 0.861849 0.147999
H15   H     H_    0.449291 0.058147 0.845673 0.151084
H16   H     H_    0.628259 0.672230 0.679505 0.186907
H17   H     H_    0.555269 0.695847 0.723537 0.143738
H18   H     H_    0.630261 0.809798 0.755644 0.176686
H19   H     H_    0.726419 0.676521 0.745082 0.117429
H20   H     H_    0.709065 0.775429 0.712664 0.135183
H21   H     H_    0.583757 0.710097 0.595579 0.314398
H22   H     H_    0.576533 0.864327 0.574504 0.121114
H23   H     H_    0.458905 0.942363 0.600379 0.144870
H24   H     H_    0.169384 0.484875 0.841787 0.115289
H25   H     H_    0.458226 0.862540 0.555048 0.138678
H26   H     H_    0.142021 0.774020 0.612010 0.244753
H27   H     H_    0.093368 0.951201 0.593532 0.136931
H28   H     H_    0.066332 0.871800 0.554046 0.135395
H29   H     H_    0.179184 0.888518 0.552396 0.150013
H30   H     H_    0.114966 0.882567 0.891709 0.282495
H31   H     H_    0.180628 0.713315 0.915546 0.132963
H32   H     H_    0.269068 0.761764 0.935493 0.146960
H33   H     H_    0.299842 0.670407 0.891419 0.162878
H34   H     H_    0.140084 0.569306 0.384953 0.267615
H35   H     H_    0.453369 0.180466 0.908354 0.120285
H36   H     H_    0.103000 0.430475 0.403473 0.147410
H37   H     H_    0.091369 0.528073 0.443378 0.129330
H38   H     H_    0.206140 0.403184 0.442677 0.137349
H39   H     H_    0.155969 0.586810 0.173204 0.126866
H40   H     H_    0.165048 0.558757 0.225103 0.126029
H41   H     H_    0.974876 0.625572 0.223215 0.147277
H42   H     H_    0.003270 0.721724 0.206663 0.092061
H43   H     H_    0.964112 0.646114 0.169933 0.158966
H44   H     H_    0.161324 0.495170 0.062124 0.114978
H45   H     H_    0.108146 0.577661 0.107103 0.121780
H46   H     H_    0.478635 0.222395 0.843526 0.126877
H47   H     H_    0.932043 0.603009 0.082934 0.138563
H48   H     H_    0.987655 0.644930 0.047734 0.077006
H49   H     H_    0.985401 0.522953 0.037394 0.171658
H50   H     H_    0.158399 0.527125 0.291562 0.243869
H51   H     H_    0.010887 0.502410 0.290062 0.163311
H52   H     H_    0.071008 0.414905 0.330175 0.188953
H53   H     H_    0.120843 0.377145 0.280148 0.170308
H54   H     H_    0.881562 0.148364 0.802937 0.125654
H55   H     H_    0.797021 0.481954 0.694315 0.124205
H56   H     H_    0.401152 0.970986 0.889900 0.137451
H57   H     H_    0.230370 0.791039 0.805920 0.132838
H58   H     H_    0.199367 0.826746 0.674863 0.116884
H59   H     H_    0.742744 0.232069 0.400131 0.168189
H60   H     H_    0.791412 0.500645 0.412401 0.124449
H61   H     H_    0.754607 0.622763 0.366237 0.131772
H62   H     H_    0.693766 0.580107 0.323592 0.160306
H63   H     H_    0.808476 0.597523 0.277539 0.181442
H64   H     H_    0.724821 0.718173 0.304411 0.098556
H65   H     H_    0.860320 0.648035 0.320653 0.141298
H66   H     H_    0.939721 0.468563 0.173375 0.302735
H67   H     H_    0.787987 0.624025 0.190631 0.132830
H68   H     H_    0.709448 0.562645 0.172984 0.165552
H69   H     H_    0.777064 0.590171 0.137411 0.113908
H70   H     H_    0.912227 0.429359 0.098292 0.172979
H71   H     H_    0.900622 0.062547 0.086271 0.232828
H72   H     H_    0.728732 0.183937 0.055641 0.126901
H73   H     H_    0.815009 0.083655 0.020887 0.129115
H74   H     H_    0.798645 0.213187 0.021820 0.150902
H75   H     H_    0.505757 0.333567 0.211459 0.141513
H76   H     H_    0.558998 0.284131 0.162099 0.118523
H77   H     H_    0.697355 0.124360 0.191098 0.145004
H78   H     H_    0.694914 0.238176 0.218655 0.133293
H79   H     H_    0.642678 0.167163 0.240118 0.169681
H80   H     H_    0.081613 0.792725 0.354495 0.126017
H81   H     H_    0.798659 0.194380 0.331105 0.132711
H82   H     H_    0.194362 0.691310 0.329431 0.135733
H83   H     H_    0.108176 0.751284 0.263106 0.169658
H84   H     H_    0.029380 0.721065 0.291695 0.089307
H85   H     H_    0.995511 0.855113 0.286845 0.161258
H86   H     H_    0.524086 0.780111 0.306916 0.258867
H87   H     H_    0.602723 0.879859 0.337937 0.125358
H88   H     H_    0.543223 0.894101 0.384333 0.143996
H89   H     H_    0.464043 0.960025 0.340444 0.157991
H90   H     H_    0.040961 0.979271 0.135212 0.126574
H91   H     H_    0.098757 0.986490 0.185472 0.166245
H92   H     H_    0.845959 0.163208 0.148691 0.104114
H93   H     H_    0.030943 0.879321 0.209865 0.172033
H94   H     H_    0.927712 0.993972 0.187769 0.107612
H95   H     H_    0.974562 0.869084 0.159692 0.139959
H96   H     H_    0.484903 0.829571 0.043259 0.120821
H97   H     H_    0.562230 0.782072 0.089670 0.092474
H98   H     H_    0.637816 0.900091 0.086403 0.156232
H99   H     H_    0.659820 0.812887 0.041592 0.077969
H100  H     H_    0.560668 0.947386 0.039872 0.159236
H101  H     H_    0.597401 0.783738 0.159304 0.120875
H102  H     H_    0.523910 0.758635 0.192742 0.111914
H103  H     H_    0.209114 0.788401 0.402281 0.130638
H104  H     H_    0.551989 0.875893 0.246859 0.173940
H105  H     H_    0.671844 0.768041 0.230593 0.074843
H106  H     H_    0.629502 0.895762 0.213596 0.161775
H107  H     H_    0.190132 0.491650 0.550199 0.248467
H108  H     H_    0.043958 0.638375 0.573849 0.133747
H109  H     H_    0.105611 0.631430 0.623544 0.145626
H110  H     H_    0.061798 0.536991 0.604835 0.124061
H111  H     H_    0.548500 0.075550 0.622786 0.108252
H112  H     H_    0.435764 0.103841 0.649866 0.134728
H113  H     H_    0.548095 0.028484 0.710454 0.182576
H114  H     H_    0.521717 0.742113 0.409771 0.145175
H115  H     H_    0.591640 0.936623 0.666972 0.159804
H116  H     H_    0.661442 0.006378 0.685760 0.133314
H117  H     H_    0.581209 0.172833 0.310907 0.275851
H118  H     H_    0.496814 0.105477 0.248632 0.221026
H119  H     H_    0.407662 0.125770 0.286052 0.167494
H120  H     H_    0.544409 0.037798 0.294392 0.105544
H121  H     H_    0.864350 0.139543 0.908699 0.251322
H122  H     H_    0.917339 0.970073 0.879214 0.128447
H123  H     H_    0.970911 0.995737 0.838480 0.158750
H124  H     H_    0.830415 0.055986 0.841715 0.135153
H125  H     H_    0.166399 0.872570 0.079274 0.160613
H126  H     H_    0.919803 0.118750 0.687104 0.241461
H127  H     H_    0.810509 0.040263 0.676495 0.121670
H128  H     H_    0.724123 0.138988 0.643041 0.183527
H129  H     H_    0.734681 0.172441 0.696705 0.170764
H130  H     H_    0.735626 0.196481 0.571448 0.265887
H131  H     H_    0.866729 0.217956 0.534687 0.138820
H132  H     H_    0.892079 0.085868 0.537485 0.125776
H133  H     H_    0.961501 0.136632 0.572200 0.146801
H134  H     H_    0.889849 0.504256 0.602587 0.131421
H135  H     H_    0.868850 0.553964 0.655058 0.115329
H136  H     H_    0.519892 0.228073 0.595319 0.133356
H137  H     H_    0.743331 0.729589 0.632679 0.168011
H138  H     H_    0.869732 0.682449 0.613691 0.081896
H139  H     H_    0.765574 0.680632 0.580379 0.154978
H140  H     H_    0.035455 0.368572 0.805548 0.115769
H141  H     H_    0.986047 0.505702 0.816684 0.131822
H142  H     H_    0.897065 0.537061 0.746390 0.143824
H143  H     H_    0.036717 0.470766 0.749263 0.144440
H144  H     H_    0.969006 0.397646 0.735204 0.146352
H145  H     H_    0.997233 0.459665 0.879433 0.098898
H146  H     H_    0.959364 0.505034 0.929721 0.155271
N1    N     N_R   0.786762 0.401565 0.226938 -0.209890
N2    N     N_R   0.344509 0.913217 0.274959 -0.253392
N3    N     N_R   0.339518 0.923448 0.235482 -0.195014
N4    N     N_R   0.246064 0.422337 0.770004 -0.257854
N5    N     N_2   0.871498 0.465294 0.173972 -0.480839
N6    N     N_2   0.888571 0.125427 0.071153 -0.489446
N7    N     N_2   0.518143 0.798758 0.337582 -0.534566
N8    N     N_2   0.196713 0.516741 0.579952 -0.474033
N9    N     N_2   0.505290 0.196228 0.300419 -0.510656
N10   N     N_2   0.907335 0.117884 0.883527 -0.480722
N11   N     N_2   0.862134 0.143918 0.664172 -0.497232
N12   N     N_R   0.251039 0.419992 0.730158 -0.271896
N13   N     N_2   0.805182 0.190677 0.583779 -0.492033
N14   N     N_2   0.457154 0.925573 0.812085 -0.510890
N15   N     N_2   0.530712 0.781445 0.607552 -0.488906
N16   N     N_2   0.188736 0.789484 0.595981 -0.462304
N17   N     N_2   0.183378 0.823264 0.881240 -0.523773
N18   N     N_2   0.193799 0.503909 0.399242 -0.479578
N19   N     N_2   0.153749 0.488210 0.314523 -0.545596
N20   N     N_R   0.427221 0.299710 0.735949 -0.150242
N21   N     N_R   0.422317 0.301900 0.775654 -0.242193
N22   N     N_R   0.781279 0.407142 0.266645 -0.211631
N23   N     N_R   0.881082 0.226386 0.266869 -0.238507
N24   N     N_R   0.887124 0.220839 0.226956 -0.256504
N25   N     N_R   0.300529 0.786359 0.221864 -0.198247
N26   N     N_R   0.305170 0.776315 0.261270 -0.214973
O1    O     O_R   0.679450 0.499830 0.463150 -0.527388
O2    O     O_R   0.340240 0.172500 0.045430 -0.501714
O3    O     O_R   0.309670 0.000990 0.032050 -0.452357
O4    O     O_R   0.480650 0.664000 0.464630 -0.506588
O5    O     O_R   0.168330 0.982130 0.939200 -0.504226
O6    O     O_R   0.000140 0.178170 0.944610 -0.486866
O7    O     O_R   0.983010 0.336750 0.948660 -0.507459
O8    O     O_R   0.181800 0.312190 0.959860 -0.519625
O9    O     O_R   0.338500 0.175680 0.956950 -0.529093
O10   O     O_R   0.308050 0.003930 0.950020 -0.516444
O11   O     O_3   0.164130 0.163270 0.992500 -0.243199
O12   O     O_R   0.356040 0.477400 0.534170 -0.475123
O13   O     O_R   0.323930 0.675950 0.455370 -0.515415
O14   O     O_R   0.354700 0.475360 0.451930 -0.471854
O15   O     O_R   0.494470 0.320860 0.448390 -0.476190
O16   O     O_R   0.662580 0.357570 0.460050 -0.493134
O17   O     O_R   0.680900 0.502040 0.551870 -0.468561
O18   O     O_R   0.481990 0.666040 0.546870 -0.511189
O19   O     O_R   0.325370 0.678160 0.544080 -0.460900
O20   O     O_3   0.851115 0.478507 0.338055 -0.569228
O21   O     O_3   0.489423 0.207037 0.184702 -0.541570
O22   O     O_3   0.164010 0.846227 0.326106 -0.539274
O23   O     O_R   0.495910 0.323070 0.537100 -0.540623
O24   O     O_3   0.165224 0.840183 0.154108 -0.546571
O25   O     O_3   0.444656 0.937094 0.093273 -0.490857
O26   O     O_3   0.457167 0.911386 0.173700 -0.498377
O27   O     O_3   0.510816 0.192381 0.669232 -0.546947
O28   O     O_3   0.742973 0.548051 0.621682 -0.561464
O29   O     O_3   0.870448 0.463048 0.809207 -0.546668
O30   O     O_3   0.855635 0.470117 0.894289 -0.529547
O31   O     O_3   0.545171 0.212843 0.383255 -0.543679
O32   O     O_3   0.510793 0.824412 0.689841 -0.560908
O33   O     O_3   0.125797 0.464951 0.184302 -0.546699
O34   O     O_R   0.663920 0.359620 0.542290 -0.514543
O35   O     O_3   0.106716 0.435738 0.102654 -0.511284
O36   O     O_3   0.500010 0.500010 0.500010 -0.242407
O37   O     O_R   0.170070 0.978950 0.027680 -0.519736
O38   O     O_R   0.001760 0.175230 0.026640 -0.461668
O39   O     O_R   0.984760 0.333570 0.037150 -0.519371
O40   O     O_R   0.183410 0.309240 0.041890 -0.458370

loop_
_geom_bond_atom_site_label_1
_geom_bond_atom_site_label_2
_ccdc_geom_bond_type
C115  N18   S    
Cr3   O34   S    
C37   H28   S    
C39   H36   S    
C16   H108  S    
C22   H133  S    
Cr5   O8    S    
C91   O17   A    
C3    N6    S    
C113  C114  A    
C23   O28   S    
C136  H61   S    
C82   C87   S    
C108  C109  S    
C41   H43   S    
C89   C94   A    
C61   C63   A    
Cr3   O23   S    
C27   H144  S    
C13   C51   S    
C88   H24   S    
C24   O15   A    
Cr4   O11   S    
C1    O13   A    
C8    H89   S    
C33   H17   S    
C132  O3    A    
C86   N21   A    
C55   O1    A    
C20   H123  S    
C23   H134  S    
C6    H80   S    
C74   O25   S    
C127  N19   S    
C44   H52   S    
C9    O24   S    
C28   O30   S    
C15   H105  S    
C50   H59   S    
C99   C110  S    
C36   N15   S    
Cr3   O15   S    
C97   O28   S    
C70   N2    A    
H34   N18   S    
C75   C76   A    
C16   H109  S    
C90   C92   A    
C4    H75   S    
C132  O37   A    
C26   O29   S    
C18   H115  S    
Cr6   O11   S    
Cr1   O18   S    
C12   H98   S    
Cr3   O36   S    
C25   H137  S    
C22   H131  S    
H30   N17   S    
Cr4   O5    S    
C4    O21   S    
C4    C5    S    
C6    C7    S    
C63   H103  S    
C106  O35   S    
C27   H142  S    
C32   N14   S    
C30   C31   S    
C67   O18   A    
C7    H83   S    
C45   C50   A    
C138  H68   S    
C116  C118  A    
C130  O39   A    
C117  C128  A    
C29   H5    S    
C67   C112  S    
C73   C103  A    
C88   C89   A    
C98   C99   A    
C131  O2    A    
C21   H128  S    
C133  O6    A    
Cr1   O1    S    
C84   C128  A    
C138  H69   S    
C9    H91   S    
C29   H4    S    
C97   C98   A    
N23   N24   A    
C123  C124  A    
C105  C107  A    
C98   H55   S    
C105  O30   S    
C34   H20   S    
C78   C80   A    
C65   C70   S    
C16   N8    S    
C69   C76   S    
C136  O20   S    
C18   H113  S    
C19   H120  S    
C32   H12   S    
C99   C100  A    
C12   H100  S    
C74   C77   A    
Cr1   O36   S    
C134  O9    A    
C107  C108  A    
C62   C73   A    
Cr2   O14   S    
C25   H139  S    
C9    C10   S    
C26   H140  S    
C33   H16   S    
C40   H39   S    
C5    H78   S    
C91   C96   S    
C10   H95   S    
C38   H33   S    
C79   O23   A    
C62   N9    S    
C24   O14   A    
C51   C62   A    
C134  O8    A    
C17   C18   S    
H126  N11   S    
C54   C59   A    
C48   C53   S    
H107  N8    S    
C123  H57   S    
Cr2   O19   S    
C26   H141  S    
C20   H122  S    
C23   H135  S    
C11   H96   S    
C84   C95   A    
C6    O22   S    
C86   C93   S    
C104  N10   S    
C113  N16   S    
Cr2   O12   S    
C15   H104  S    
C78   C85   A    
C43   H48   S    
Cr4   O38   S    
C72   H125  S    
C11   H97   S    
C52   N1    A    
C49   H81   S    
C31   H10   S    
Cr6   O10   S    
C120  C121  A    
H121  N10   S    
C119  N15   S    
C90   H35   S    
C44   N19   S    
C138  N5    S    
C34   H18   S    
C21   H129  S    
C37   H27   S    
C114  C116  A    
H21   N15   S    
C43   H49   S    
C24   C103  S    
Cr5   O7    S    
C14   H101  S    
H86   N7    S    
C39   N18   S    
C71   C72   A    
C19   H118  S    
C136  H62   S    
C57   C58   A    
H26   N16   S    
C3    H74   S    
C100  C101  A    
C41   H42   S    
C39   H38   S    
C27   H143  S    
C63   C64   A    
C67   O19   A    
C45   C55   S    
C10   H93   S    
C49   C50   A    
C33   O32   S    
C14   C15   S    
C137  H64   S    
C17   H112  S    
C69   N25   A    
C75   O26   S    
C5    H77   S    
C95   H1    S    
C70   N26   A    
H130  N13   S    
C20   H124  S    
C45   C46   A    
C64   O22   S    
C26   C27   S    
C52   N24   A    
C55   O16   A    
C28   C29   S    
H50   N19   S    
C28   H145  S    
C58   H92   S    
C137  H63   S    
C71   C76   A    
C8    H87   S    
C30   H6    S    
C71   O24   S    
C100  N11   S    
Cr2   O36   S    
C17   O27   S    
C16   H110  S    
C92   H46   S    
C30   O31   S    
C4    H76   S    
C114  H58   S    
C122  C129  A    
C18   H116  S    
Cr5   O40   S    
C32   H15   S    
C135  O10   A    
C46   H60   S    
C105  C111  A    
N25   N26   A    
C96   C101  A    
C22   H132  S    
C90   C94   A    
C81   H13   S    
C136  C137  S    
C57   C60   A    
C3    H72   S    
C36   H23   S    
C56   C60   A    
C137  H65   S    
C103  C115  A    
C121  H56   S    
Cr6   O3    S    
H71   N6    S    
C40   O33   S    
C48   C49   A    
C83   C85   A    
C106  C117  A    
C125  C126  T    
C69   N3    A    
C42   C43   S    
C35   C131  S    
C21   H127  S    
Cr1   O4    S    
C7    H85   S    
C42   H44   S    
C46   C47   A    
C44   H51   S    
C9    H90   S    
C121  C129  A    
C1    C61   S    
C29   H3    S    
C112  C119  A    
C15   H106  S    
C35   C95   A    
C135  O5    A    
Cr1   O17   S    
C86   N4    A    
Cr3   O16   S    
C51   C127  A    
C64   C65   A    
C22   N13   S    
C58   C59   A    
C57   N6    S    
C109  C110  T    
C42   H45   S    
C38   H31   S    
C6    H82   S    
C92   C93   A    
N4    N12   A    
C19   H119  S    
C8    N7    S    
C82   C83   A    
N20   N21   A    
C25   H138  S    
C107  O29   S    
C120  N14   S    
C40   H40   S    
C2    C128  S    
C66   C68   A    
Cr5   O11   S    
C83   O27   S    
C81   C82   A    
C36   H25   S    
N2    N3    A    
C102  H54   S    
C7    H84   S    
C1    O4    A    
C138  H67   S    
C115  C127  A    
C130  O38   A    
C53   N22   A    
C2    C13   T    
C118  C119  A    
C20   N10   S    
C38   H32   S    
H11   N14   S    
C102  C108  A    
C80   N8    S    
C54   N5    S    
C133  O7    A    
C87   N20   A    
C43   H47   S    
C44   H53   S    
C129  C135  S    
C91   O34   A    
C118  O32   S    
C37   N16   S    
C11   O25   S    
C112  C113  A    
C31   H9    S    
C32   H14   S    
C89   H2    S    
C54   C56   A    
C74   C75   A    
C34   H19   S    
C60   C130  S    
C78   C79   S    
C111  C133  S    
C131  O40   A    
C42   O35   S    
C77   C132  S    
C72   C77   A    
C52   C59   S    
C47   C48   A    
C3    H73   S    
C12   H99   S    
C96   C97   A    
C36   H22   S    
C33   C34   S    
C85   H136  S    
C41   H41   S    
Cr2   O13   S    
C102  C104  A    
C73   O31   S    
C39   H37   S    
Cr6   O2    S    
C40   C41   S    
C5    H79   S    
C10   H94   S    
C122  N17   S    
C84   O21   S    
C88   C93   A    
C17   H111  S    
N1    N22   A    
C56   H70   S    
C80   C81   A    
C104  C111  A    
C11   C12   S    
C38   N17   S    
C66   N7    S    
Cr4   O6    S    
C28   H146  S    
C35   C106  A    
C68   H114  S    
C31   H8    S    
C8    H88   S    
C61   C68   A    
C30   H7    S    
C47   O20   S    
C94   C134  S    
C19   N9    S    
C21   N11   S    
H66   N5    S    
C23   C25   S    
H117  N9    S    
C101  N13   S    
C37   H29   S    
C117  O33   S    
C14   O26   S    
Cr4   O37   S    
C65   C66   A    
C87   N12   A    
C53   N23   A    
C116  C126  S    
C79   O12   A    
C122  C123  A    
Cr6   O9    S    
C120  C124  A    
Cr5   O39   S    
C124  C125  S    
C14   H102  S    
