data_mof_unit_48547.cif
_audit_creation_date              2012-12-10T19:06:25-0500
_audit_creation_method            fapswitch 2.2
_symmetry_space_group_name_H-M    P1
_symmetry_Int_Tables_number       1
_space_group_crystal_system       triclinic
_cell_length_a                    23.523847
_cell_length_b                    10.814979
_cell_length_c                    9.536767
_cell_angle_alpha                 90.044619
_cell_angle_beta                  90.0668
_cell_angle_gamma                 90.122451
_cell_volume                      2426.24011626

loop_
_atom_site_label
_atom_site_type_symbol
_atom_type_description
_atom_site_fract_x
_atom_site_fract_y
_atom_site_fract_z
_atom_type_partial_charge
C1    C     C_R   0.498878 0.262307 0.499912 0.804672
C2    C     C_R   0.971375 0.264588 0.490716 0.145099
C3    C     C_R   0.030999 0.268896 0.491267 -0.152852
C4    C     C_R   0.060428 0.381469 0.492750 -0.059782
C5    C     C_R   0.029962 0.493028 0.493123 -0.018768
C6    C     C_R   0.059653 0.606626 0.494220 -0.003357
C7    C     C_R   0.029268 0.718008 0.494289 -0.167666
C8    C     C_R   0.970136 0.717019 0.493722 -0.164531
C9    C     C_R   0.120115 0.385156 0.494196 0.540831
C10   C     C_R   0.119277 0.605833 0.495623 0.531482
C11   C     C_R   0.238542 0.497716 0.627878 0.210071
C12   C     C_R   0.390897 0.499801 0.499972 0.809287
C13   C     C_R   0.298123 0.498608 0.627130 -0.202144
C14   C     C_R   0.328257 0.499261 0.499907 -0.079374
C15   C     C_R   0.298100 0.499092 0.372756 -0.217361
C16   C     C_R   0.238911 0.498228 0.372710 -0.146475
C17   C     C_R   0.208967 0.497501 0.499333 0.364377
C18   C     C_R   0.760158 0.457725 0.376291 -0.099020
C19   C     C_R   0.700896 0.459482 0.377943 -0.219232
C20   C     C_R   0.671618 0.498472 0.498496 -0.039179
C21   C     C_R   0.702680 0.536264 0.616850 -0.222211
C22   C     C_R   0.761933 0.534583 0.615015 -0.099327
C23   C     C_R   0.499062 0.737724 0.499959 0.805507
C24   C     C_R   0.790867 0.495173 0.494841 0.359542
C25   C     C_R   0.492880 0.063756 0.625634 0.122059
C26   C     C_R   0.493122 0.129234 0.499633 -0.096574
C27   C     C_R   0.485389 0.064299 0.373226 -0.208704
C28   C     C_R   0.485561 0.935417 0.373255 -0.208827
C29   C     C_R   0.493454 0.870811 0.499693 -0.097869
C30   C     C_R   0.493137 0.936529 0.625645 0.138146
C31   C     C_3   0.533167 0.930761 0.747159 -0.476534
C32   C     C_3   0.532671 0.071120 0.747534 -0.454262
C33   C     C_R   0.526525 0.592638 0.073988 0.252861
C34   C     C_R   0.609063 0.499881 0.499835 0.800664
C35   C     C_R   0.469171 0.415776 0.074289 -0.080624
C36   C     C_R   0.469147 0.415799 0.925335 -0.081606
C37   C     C_R   0.526802 0.592184 0.926471 0.260354
C38   C     C_3   0.588630 0.622351 0.922339 -0.515695
C39   C     C_3   0.588001 0.625246 0.081143 -0.487848
C40   C     C_R   0.880653 0.603187 0.493094 0.529266
C41   C     C_R   0.879531 0.382172 0.492536 0.535863
C42   C     C_R   0.939822 0.377384 0.491762 -0.030986
C43   C     C_R   0.969870 0.491391 0.492588 -0.053304
C44   C     C_R   0.940067 0.604622 0.493135 -0.000533
Cu1   Cu    Cu3+1 0.500000 0.499980 0.640670 0.944499
Cu2   Cu    Cu3+1 0.500000 0.500020 0.359330 0.942558
H1    H     H_    0.681356 0.568780 0.709941 0.146881
H2    H     H_    0.785447 0.563959 0.706911 0.141226
H3    H     H_    0.482007 0.112377 0.273978 0.160414
H4    H     H_    0.482276 0.887132 0.274009 0.163696
H5    H     H_    0.575139 0.891152 0.718261 0.196508
H6    H     H_    0.511970 0.111051 0.841976 0.195212
H7    H     H_    0.574389 0.112921 0.719632 0.205774
H8    H     H_    0.445105 0.346145 0.130049 0.137278
H9    H     H_    0.054708 0.183079 0.490750 0.190380
H10   H     H_    0.445048 0.346210 0.869324 0.140242
H11   H     H_    0.597310 0.713960 0.874411 0.192866
H12   H     H_    0.614414 0.551219 0.128457 0.217334
H13   H     H_    0.594994 0.719213 0.125306 0.198093
H14   H     H_    0.320933 0.498662 0.725897 0.158492
H15   H     H_    0.320186 0.499517 0.273181 0.164915
H16   H     H_    0.216115 0.497998 0.273985 0.144779
H17   H     H_    0.782284 0.427357 0.282946 0.140573
N1    N     N_R   0.851855 0.493459 0.493181 -0.469834
N2    N     N_R   0.148056 0.496151 0.496333 -0.464118
N3    N     N_R   0.500360 0.500930 0.147930 -0.184206
N4    N     N_R   0.500360 0.500890 0.852020 -0.183183
O1    O     O_R   0.500000 0.319640 0.618810 -0.581381
O2    O     O_2   0.848317 0.277581 0.494006 -0.541633
O3    O     O_2   0.150079 0.278874 0.493947 -0.532953
O4    O     O_2   0.148339 0.713555 0.496733 -0.531359
O5    O     O_R   0.500010 0.319680 0.381230 -0.587529
O6    O     O_R   0.417880 0.499940 0.618820 -0.585155
O7    O     O_R   0.417880 0.499980 0.381240 -0.582928
O8    O     O_R   0.499990 0.680320 0.618770 -0.576938
O9    O     O_R   0.500000 0.680360 0.381190 -0.584212
O10   O     O_R   0.582120 0.500020 0.618760 -0.581252
O11   O     O_R   0.582120 0.500060 0.381180 -0.582690
O12   O     O_2   0.851661 0.710784 0.492226 -0.536772
C45   C     C_3   0.943922 0.138094 0.488870 -0.728406
H18   H     H_    0.917340 0.127359 0.393363 0.259876
H19   H     H_    0.975819 0.062482 0.487017 0.191774
H20   H     H_    0.917916 0.124801 0.584751 0.261632
H21   H     H_    0.678041 0.429082 0.285508 0.149829
H22   H     H_    0.513006 0.889652 0.841690 0.197463
H23   H     H_    0.614290 0.544598 0.880726 0.215087
H24   H     H_    0.051044 0.806367 0.495024 0.187038
H25   H     H_    0.948067 0.804837 0.494018 0.185685
C46   C     C_3   0.206837 0.496858 0.764827 -0.835989
H26   H     H_    0.236277 0.497101 0.855980 0.220945
H27   H     H_    0.179432 0.580049 0.772114 0.247520
H28   H     H_    0.179835 0.412759 0.771422 0.246534

loop_
_geom_bond_atom_site_label_1
_geom_bond_atom_site_label_2
_ccdc_geom_bond_type
C22   H2    S    
C31   H22   S    
C12   O7    A    
C41   C42   A    
C19   C20   A    
C23   O9    A    
Cu2   O9    S    
C36   N4    A    
C7    C8    A    
C13   H14   S    
Cu1   Cu2   S    
C26   C27   A    
C29   C30   A    
C38   H23   S    
C18   C24   A    
C5    C6    A    
C23   C29   S    
C21   C22   A    
C28   C29   A    
Cu2   N3    S    
C34   O10   A    
C30   C31   S    
C18   H17   S    
C15   C16   A    
C1    O1    A    
Cu1   O6    S    
C18   C19   A    
C32   H6    S    
C28   H4    S    
C7    H24   S    
C35   C36   A    
C16   C17   A    
Cu1   N4    S    
C46   H27   S    
Cu2   O5    S    
C20   C34   S    
C10   O4    S    
C25   C32   S    
C5    C43   A    
C24   N1    S    
C12   O6    A    
C35   H8    S    
C16   H16   S    
C45   H20   S    
C33   N3    A    
C1    O5    A    
C9    O3    S    
C45   H19   S    
C31   H5    S    
Cu2   O11   S    
C45   H18   S    
C35   N3    A    
C25   C26   A    
C39   H12   S    
C33   C37   A    
C8    H25   S    
C43   C44   A    
C37   C38   S    
C36   H10   S    
C38   H11   S    
C11   C46   S    
C31   C32   S    
C39   H13   S    
Cu1   O1    S    
C15   H15   S    
C40   O12   S    
C33   C39   S    
C46   H28   S    
C12   C14   S    
C1    C26   S    
C22   C24   A    
C42   C43   A    
C19   H21   S    
C32   H7    S    
Cu2   O7    S    
C41   O2    S    
C10   N2    A    
C25   C30   A    
C11   C17   A    
C17   N2    S    
C8    C44   A    
C23   O8    A    
C4    C5    A    
C6    C10   A    
C6    C7    A    
C3    H9    S    
C40   N1    A    
Cu1   O8    S    
C2    C3    A    
C4    C9    A    
C34   O11   A    
C11   C13   A    
C38   C39   S    
C2    C42   A    
C37   N4    A    
C9    N2    A    
C2    C45   S    
C27   H3    S    
C40   C44   A    
C20   C21   A    
C27   C28   A    
C14   C15   A    
Cu1   O10   S    
C41   N1    A    
C46   H26   S    
C13   C14   A    
C3    C4    A    
C21   H1    S    
