data_mof_unit_30632.cif
_audit_creation_date              2012-12-10T17:36:47-0500
_audit_creation_method            fapswitch 2.2
_symmetry_space_group_name_H-M    P1
_symmetry_Int_Tables_number       1
_space_group_crystal_system       triclinic
_cell_length_a                    10.599221
_cell_length_b                    12.326931
_cell_length_c                    13.166211
_cell_angle_alpha                 116.736248
_cell_angle_beta                  77.664707
_cell_angle_gamma                 101.054881
_cell_volume                      1491.81423046

loop_
_atom_site_label
_atom_site_type_symbol
_atom_type_description
_atom_site_fract_x
_atom_site_fract_y
_atom_site_fract_z
_atom_type_partial_charge
C1    C     C_R   0.510842 0.854854 0.286522 0.773883
C2    C     C_3   0.018007 0.013610 0.602766 -0.166655
C3    C     C_3   0.933353 0.906040 0.521265 -0.139731
C4    C     C_3   0.877157 0.998104 0.499481 0.018497
C5    C     C_R   0.316439 0.274962 0.019385 -0.132156
C6    C     C_R   0.450431 0.227730 0.834968 -0.045533
C7    C     C_R   0.594307 0.813416 0.084060 -0.185055
C8    C     C_R   0.618082 0.733502 0.968909 -0.144781
C9    C     C_R   0.570938 0.610620 0.932214 -0.182957
C10   C     C_R   0.494081 0.565466 0.010358 0.081070
C11   C     C_R   0.455982 0.650431 0.124124 0.084626
C12   C     C_R   0.740353 0.999133 0.499568 0.782060
C13   C     C_R   0.452136 0.439264 0.978480 0.047897
C14   C     C_R   0.361542 0.400439 0.056096 0.126664
C15   C     C_R   0.314292 0.488747 0.165512 -0.035153
C16   C     C_R   0.358053 0.611818 0.195557 -0.293130
C17   C     C_R   0.499393 0.350202 0.871064 -0.239061
C18   C     C_R   0.360262 0.189790 0.909876 -0.218577
C19   C     C_R   0.516314 0.772674 0.163250 -0.095337
C20   C     C_R   0.718107 0.348301 0.333701 -0.094468
C21   C     C_R   0.323122 0.758742 0.644252 0.076737
C22   C     C_R   0.284970 0.661733 0.674926 -0.252807
C23   C     C_R   0.480102 0.145131 0.713533 0.795452
C24   C     C_R   0.352284 0.558789 0.620364 -0.180661
C25   C     C_R   0.459558 0.551462 0.533767 0.020925
C26   C     C_R   0.494825 0.653402 0.505523 0.288552
C27   C     C_R   0.533189 0.447667 0.474833 -0.018976
C28   C     C_R   0.642551 0.448772 0.390522 0.081490
C29   C     C_R   0.672275 0.549180 0.363562 -0.289053
C30   C     C_R   0.600939 0.648231 0.419698 -0.170050
C31   C     C_R   0.502605 0.342084 0.496064 0.020423
C32   C     C_R   0.679498 0.247208 0.359047 0.084372
C33   C     C_R   0.259697 0.000468 0.499885 0.776517
C34   C     C_3   0.982052 0.985219 0.395914 -0.159669
C35   C     C_3   0.040638 0.893273 0.417724 -0.177333
C36   C     C_3   0.122936 0.000819 0.499253 0.018210
C37   C     C_3   0.066715 0.092796 0.477401 -0.120449
C38   C     C_3   0.959507 0.105562 0.580959 -0.166343
Cu1   Cu    Cu3+1 0.529830 0.098270 0.475420 0.939441
Cu2   Cu    Cu3+1 0.470170 0.901730 0.524580 0.920630
H1    H     H_    0.077257 0.806582 0.350987 0.120736
H2    H     H_    0.574344 0.373505 0.812430 0.144728
H3    H     H_    0.639543 0.906801 0.111518 0.165394
H4    H     H_    0.593592 0.554350 0.841533 0.128938
H5    H     H_    0.676955 0.766172 0.908114 0.145827
H6    H     H_    0.313375 0.677623 0.276343 0.162742
H7    H     H_    0.734511 0.169087 0.317598 0.164965
H8    H     H_    0.750242 0.552898 0.297051 0.136208
H9    H     H_    0.421662 0.333417 0.558073 0.126125
H10   H     H_    0.270467 0.838343 0.687105 0.124241
H11   H     H_    0.963913 0.973467 0.311370 0.140113
H12   H     H_    0.318498 0.487026 0.648283 0.133028
H13   H     H_    0.203031 0.666391 0.741360 0.144959
H14   H     H_    0.633336 0.719204 0.392251 0.205006
H15   H     H_    0.123985 0.169303 0.459489 0.161074
H16   H     H_    0.922976 0.192236 0.647761 0.133754
H17   H     H_    0.036133 0.025385 0.687324 0.131947
H18   H     H_    0.875994 0.829458 0.539009 0.142413
H19   H     H_    0.319277 0.095118 0.882121 0.151606
H20   H     H_    0.242753 0.241205 0.071835 0.201980
N1    N     N_R   0.575030 0.246270 0.438190 -0.205536
N2    N     N_R   0.425760 0.754330 0.561190 -0.209671
O1    O     O_R   0.537510 0.972500 0.318130 -0.576630
O2    O     O_R   0.487140 0.806530 0.359650 -0.600921
O3    O     O_R   0.708330 0.082950 0.479220 -0.582978
O4    O     O_R   0.657960 0.916980 0.520740 -0.603524
O5    O     O_R   0.512860 0.193470 0.640350 -0.587540
O6    O     O_R   0.462490 0.027500 0.681870 -0.583155
O7    O     O_R   0.342040 0.083020 0.479260 -0.580975
O8    O     O_R   0.291670 0.917050 0.520780 -0.595232
C39   C     C_2   0.839321 0.347009 0.251401 0.345843
H21   H     H_    0.892043 0.430493 0.249283 0.058234
O9    O     O_2   0.884166 0.251122 0.185506 -0.552556
C40   C     C_2   0.221557 0.459301 0.253926 0.367808
H22   H     H_    0.150841 0.521881 0.310692 0.053778
O10   O     O_2   0.228776 0.370840 0.270174 -0.542245

loop_
_geom_bond_atom_site_label_1
_geom_bond_atom_site_label_2
_ccdc_geom_bond_type
C24   H12   S    
C34   C37   S    
C31   N1    A    
C35   C36   S    
C2    H17   S    
C7    C8    A    
C30   H14   S    
C11   C19   A    
C34   H11   S    
C29   C30   A    
Cu2   O8    S    
C36   C37   S    
C32   N1    A    
C15   C16   A    
C33   C36   S    
Cu2   N2    S    
C34   C35   S    
C23   O5    A    
C8    H5    S    
C17   H2    S    
C8    C9    A    
C20   C39   S    
C7    H3    S    
C4    C12   S    
C9    C10   A    
C33   O7    A    
Cu2   O4    S    
C13   C14   A    
Cu1   O3    S    
C31   H9    S    
Cu1   N1    S    
C1    O1    A    
C21   H10   S    
C22   H13   S    
C6    C18   A    
C4    C34   S    
C1    C19   S    
C40   H22   S    
C29   H8    S    
C27   C31   A    
C24   C25   A    
C16   H6    S    
Cu1   Cu2   S    
C39   O9    D    
C5    C18   A    
C20   C28   A    
C25   C26   A    
C12   O4    A    
C23   O6    A    
C37   C38   S    
C11   C16   A    
C2    C38   S    
C3    C35   S    
Cu1   O7    S    
C5    C14   A    
C40   O10   D    
C33   O8    A    
C4    C38   S    
C26   C30   A    
C7    C19   A    
C32   H7    S    
C22   C24   A    
C3    C4    S    
C1    O2    A    
C20   C32   A    
C2    C36   S    
C6    C17   A    
C28   C29   A    
C9    H4    S    
C5    H20   S    
Cu1   O5    S    
C10   C13   A    
C25   C27   A    
Cu1   O1    S    
C12   O3    A    
Cu2   O2    S    
C13   C17   A    
C2    C3    S    
C26   N2    A    
C39   H21   S    
C6    C23   S    
C35   H1    S    
C10   C11   A    
C37   H15   S    
C3    H18   S    
C18   H19   S    
C15   C40   S    
C38   H16   S    
Cu2   O6    S    
C27   C28   A    
C14   C15   A    
C21   N2    A    
C21   C22   A    
