data_mof_unit_21267.cif
_audit_creation_date              2012-12-11T16:53:37-0500
_audit_creation_method            fapswitch 2.2
_symmetry_space_group_name_H-M    P1
_symmetry_Int_Tables_number       1
_space_group_crystal_system       triclinic
_cell_length_a                    14.887873
_cell_length_b                    14.744573
_cell_length_c                    17.270831
_cell_angle_alpha                 108.939028
_cell_angle_beta                  106.526779
_cell_angle_gamma                 108.128293
_cell_volume                      3078.76972046

loop_
_atom_site_label
_atom_site_type_symbol
_atom_type_description
_atom_site_fract_x
_atom_site_fract_y
_atom_site_fract_z
_atom_type_partial_charge
C1    C     C_R   0.089209 0.285450 0.073214 -0.232520
C2    C     C_R   0.033211 0.528208 0.733397 0.013368
C3    C     C_R   0.664366 0.215927 0.745069 0.094531
C4    C     C_R   0.359653 0.561381 0.051888 0.111256
C5    C     C_R   0.220298 0.704165 0.263679 -0.172104
C6    C     C_R   0.751739 0.566829 0.975331 -0.119664
C7    C     C_R   0.890108 0.398661 0.175404 -0.251849
C8    C     C_R   0.084219 0.802838 0.007774 -0.132399
C9    C     C_R   0.913234 0.718832 0.930794 -0.060418
C10   C     C_R   0.063478 0.476594 0.249555 0.370327
C11   C     C_R   0.227219 0.799608 0.186263 -0.112236
C12   C     C_R   0.938324 0.490779 0.738397 0.328703
C13   C     C_R   0.742864 0.470182 0.051763 -0.130161
C14   C     C_R   0.245672 0.806669 0.271832 0.046384
C15   C     C_R   0.715738 0.546444 0.036035 0.106303
C16   C     C_R   0.971505 0.421595 0.251469 0.080877
C17   C     C_R   0.999000 0.815966 0.963930 0.036402
C18   C     C_R   0.510003 0.635295 0.022438 0.070974
C19   C     C_R   0.471006 0.599205 0.076896 -0.152768
C20   C     C_R   0.539030 0.588801 0.146080 0.551555
C21   C     C_R   0.627571 0.579457 0.138416 -0.359280
C22   C     C_R   0.650656 0.589623 0.067148 -0.026120
C23   C     C_R   0.721586 0.212406 0.822029 -0.120006
C24   C     C_R   0.598461 0.630414 0.017574 0.190766
C25   C     C_3   0.556029 0.599790 0.918211 -0.500017
C26   C     C_3   0.458656 0.605394 0.923687 -0.467545
C27   C     C_R   0.964017 0.421790 0.331545 -0.039437
C28   C     C_R   0.044872 0.526654 0.654528 0.143996
C29   C     C_R   0.085359 0.621199 0.570447 -0.174378
C30   C     C_R   0.094874 0.622516 0.652695 -0.206642
C31   C     C_R   0.992131 0.428677 0.577589 -0.226257
C32   C     C_R   0.982220 0.426066 0.495247 0.123727
C33   C     C_R   0.026651 0.523607 0.491184 0.029244
C34   C     C_R   0.299666 0.594121 0.001938 -0.148488
C35   C     C_R   0.011467 0.521440 0.407900 0.439949
C36   C     C_R   0.919069 0.325601 0.334570 -0.233481
C37   C     C_R   0.926856 0.327857 0.416940 -0.212127
C38   C     C_R   0.556546 0.141528 0.674825 -0.011048
C39   C     C_R   0.292704 0.904705 0.356292 0.133496
C40   C     C_R   0.414532 0.092038 0.441215 -0.207193
C41   C     C_R   0.344974 0.003674 0.358974 -0.177589
C42   C     C_R   0.300024 0.898472 0.437077 -0.269954
C43   C     C_R   0.374771 0.985073 0.519588 0.146037
C44   C     C_R   0.435304 0.080378 0.520616 0.204772
C45   C     C_R   0.725418 0.311555 0.749694 -0.136740
C46   C     C_R   0.523294 0.158186 0.598164 -0.355513
C47   C     C_R   0.490607 0.050523 0.677460 0.570457
C48   C     C_R   0.397492 0.974145 0.599415 -0.400999
C49   C     C_R   0.097684 0.146274 0.166754 0.079683
C50   C     C_R   0.007598 0.118308 0.091120 -0.049570
C51   C     C_R   0.919274 0.021975 0.062083 -0.386697
C52   C     C_R   0.922030 0.956986 0.106721 0.552977
C53   C     C_R   0.017061 0.979790 0.173241 -0.049084
C54   C     C_R   0.101973 0.077591 0.205450 0.035601
C55   C     C_3   0.211948 0.101582 0.221598 -0.580181
C56   C     C_R   0.296424 0.497603 0.077693 -0.119048
C57   C     C_3   0.208983 0.177342 0.179627 0.440742
C58   C     C_R   0.113466 0.573295 0.817420 -0.211969
C59   C     C_R   0.915681 0.203011 0.003532 0.341854
C60   C     C_R   0.003643 0.192108 0.049249 0.072366
H1    H     H_    0.168030 0.314533 0.121521 0.149023
H2    H     H_    0.745790 0.623313 0.949964 0.128160
H3    H     H_    0.808168 0.348484 0.152880 0.128199
H4    H     H_    0.164926 0.857751 0.031384 0.085293
H5    H     H_    0.835438 0.695900 0.883030 0.084071
H6    H     H_    0.239315 0.863917 0.167768 0.085366
H7    H     H_    0.725782 0.435275 0.094999 0.101292
H8    H     H_    0.672330 0.556499 0.183137 0.158901
H9    H     H_    0.600251 0.662924 0.903314 0.190578
H10   H     H_    0.541841 0.517286 0.875502 0.200250
H11   H     H_    0.447468 0.671865 0.912208 0.185093
H12   H     H_    0.388625 0.526161 0.884008 0.207094
H13   H     H_    0.881556 0.249611 0.274226 0.148046
H14   H     H_    0.121578 0.696323 0.568912 0.161932
H15   H     H_    0.892592 0.253290 0.419960 0.139678
H16   H     H_    0.135551 0.698184 0.713673 0.128620
H17   H     H_    0.954902 0.355403 0.581737 0.126383
H18   H     H_    0.570809 0.226644 0.593630 0.144767
H19   H     H_    0.694358 0.155550 0.846065 0.160464
H20   H     H_    0.459611 0.166012 0.441673 0.123164
H21   H     H_    0.346210 0.903388 0.599209 0.148583
H22   H     H_    0.340267 0.011562 0.298163 0.113436
H23   H     H_    0.256788 0.823610 0.436022 0.140723
H24   H     H_    0.848151 0.994088 0.003605 0.177103
H25   H     H_    0.265182 0.142711 0.295089 0.222276
H26   H     H_    0.219427 0.031471 0.179880 0.148196
H27   H     H_    0.327042 0.658280 0.984449 0.103682
H28   H     H_    0.214668 0.151825 0.113565 0.000813
H29   H     H_    0.698230 0.351980 0.713742 0.112465
H30   H     H_    0.320674 0.468443 0.125892 0.128339
H31   H     H_    0.196336 0.616846 0.838080 0.118721
H32   H     H_    0.226021 0.680305 0.316780 0.146566
N1    N     N_R   0.055640 0.348550 0.045600 -0.055201
N2    N     N_R   0.798340 0.505430 0.954400 -0.047821
N3    N     N_R   0.931580 0.439470 0.128350 -0.048915
N4    N     N_R   0.051950 0.704140 0.002340 -0.038265
N5    N     N_R   0.944360 0.651450 0.954400 -0.046265
N6    N     N_R   0.039170 0.492150 0.176290 -0.063108
N7    N     N_R   0.188710 0.696600 0.128350 -0.038904
N8    N     N_R   0.794820 0.447010 0.002340 -0.038133
N9    N     N_R   0.960830 0.507850 0.823710 -0.057703
N10   N     N_R   0.811290 0.303400 0.871650 -0.049710
N11   N     N_R   0.205180 0.552990 0.997660 -0.039829
N12   N     N_R   0.814810 0.361830 0.823710 -0.041897
N13   N     N_R   0.201660 0.494570 0.045600 -0.046724
N14   N     N_R   0.068420 0.560530 0.871650 -0.051944
N15   N     N_R   0.948050 0.295860 0.997660 -0.058105
N16   N     N_R   0.185190 0.638170 0.176290 -0.039079
Ni1   Ni    Ni4+2 0.119330 0.493420 0.109950 0.203987
Ni2   Ni    Ni4+2 0.880670 0.506580 0.890050 0.207046
Ni3   Ni    Ni4+2 0.872590 0.372590 0.000000 0.210233
Ni4   Ni    Ni4+2 0.127410 0.627410 0.000000 0.203717
C61   C     C_3   0.167340 0.483848 0.300865 -1.012685
H33   H     H_    0.202937 0.545841 0.372224 0.262292
H34   H     H_    0.156882 0.405446 0.299775 0.275233
H35   H     H_    0.220483 0.503856 0.268825 0.236180
O1    O     O_3   0.514142 0.574478 0.213817 -0.684974
C62   C     C_3   0.527969 0.673670 0.275986 0.155131
H36   H     H_    0.485718 0.710006 0.241300 0.108826
H37   H     H_    0.612853 0.730406 0.314042 0.113250
C63   C     C_3   0.484666 0.656422 0.342987 -0.267300
H38   H     H_    0.400489 0.598694 0.305038 0.192421
H39   H     H_    0.526814 0.622347 0.380198 0.200112
C64   C     C_3   0.496045 0.761038 0.410838 -1.007596
H40   H     H_    0.579947 0.819320 0.451680 0.265061
H41   H     H_    0.461884 0.745303 0.457224 0.268646
H42   H     H_    0.454147 0.796309 0.374999 0.275006
C65   C     C_3   0.835235 0.469096 0.671420 -1.071243
H43   H     H_    0.846874 0.509715 0.628570 0.262418
H44   H     H_    0.788504 0.381757 0.626676 0.250675
H45   H     H_    0.792905 0.501347 0.707593 0.246207
O2    O     O_3   0.052430 0.616026 0.401977 -0.684873
C66   C     C_3   0.971422 0.645008 0.373627 0.147339
H46   H     H_    0.947793 0.672360 0.429306 0.102552
H47   H     H_    0.901434 0.576952 0.312512 0.109499
C67   C     C_3   0.011609 0.736544 0.350134 -0.233660
H48   H     H_    0.075572 0.808385 0.412337 0.197373
H49   H     H_    0.043345 0.712762 0.300007 0.213024
C68   C     C_3   0.925001 0.764654 0.309954 -1.027662
H50   H     H_    0.862897 0.695399 0.245153 0.272549
H51   H     H_    0.957900 0.833199 0.296141 0.276917
H52   H     H_    0.890404 0.787331 0.357929 0.265629
O3    O     O_3   0.513400 0.042359 0.757980 -0.681524
C69   C     C_3   0.508709 0.941014 0.746691 0.163100
H53   H     H_    0.585055 0.955069 0.795071 0.114309
H54   H     H_    0.497565 0.887993 0.678164 0.087343
C70   C     C_3   0.423018 0.884282 0.770301 -0.259588
H55   H     H_    0.440202 0.934913 0.841330 0.204278
H56   H     H_    0.346100 0.872815 0.725196 0.191423
C71   C     C_3   0.416079 0.775329 0.760492 -1.031385
H57   H     H_    0.396397 0.722365 0.689390 0.277124
H58   H     H_    0.353816 0.736931 0.778709 0.266919
H59   H     H_    0.491578 0.784755 0.806322 0.264860
O4    O     O_3   0.833379 0.866096 0.080134 -0.669072
C72   C     C_3   0.763718 0.896239 0.111310 0.163639
H60   H     H_    0.682813 0.839037 0.059527 0.134378
H61   H     H_    0.771123 0.976917 0.119358 0.082459
C73   C     C_3   0.777910 0.891280 0.200995 -0.282072
H62   H     H_    0.771028 0.811322 0.193029 0.222868
H63   H     H_    0.857242 0.952531 0.254183 0.192705
C74   C     C_3   0.696322 0.911399 0.231513 -1.044555
H64   H     H_    0.703296 0.992142 0.241916 0.271347
H65   H     H_    0.708874 0.907011 0.296463 0.268107
H66   H     H_    0.616257 0.849968 0.180159 0.263585
O5    O     O_3   0.273952 0.285553 0.245144 -0.658569
C75   C     C_3   0.362810 0.330250 0.230594 0.209952
H67   H     H_    0.394870 0.418552 0.267253 0.145930
H68   H     H_    0.342938 0.310289 0.157978 0.075392
C76   C     C_3   0.447569 0.298164 0.268722 -0.321377
H69   H     H_    0.464620 0.317306 0.340649 0.208584
H70   H     H_    0.419449 0.210617 0.229658 0.187626
C77   C     C_3   0.548104 0.357429 0.263285 -0.968795
H71   H     H_    0.532963 0.338971 0.191802 0.269619
H72   H     H_    0.607697 0.331954 0.290436 0.259585
H73   H     H_    0.579656 0.445251 0.304032 0.278827
C78   C     C_3   0.808811 0.151622 0.998914 -1.092116
H74   H     H_    0.760971 0.072978 0.937809 0.240084
H75   H     H_    0.814197 0.142244 0.061048 0.257358
H76   H     H_    0.768946 0.203437 0.995923 0.257786

loop_
_geom_bond_atom_site_label_1
_geom_bond_atom_site_label_2
_ccdc_geom_bond_type
C75   H68   S    
O5    C75   S    
C29   C33   A    
C72   H61   S    
C26   H12   S    
C76   H69   S    
C3    C23   A    
C70   H55   S    
C8    N4    A    
C2    C12   A    
C65   H43   S    
C74   H64   S    
N3    N6    A    
C10   C16   A    
C39   C41   A    
N14   Ni4   S    
C53   C54   A    
C48   H21   S    
N7    N16   A    
N4    Ni4   S    
C18   C24   A    
C36   C37   A    
C70   H56   S    
C69   C70   S    
C13   H7    S    
C68   H52   S    
C23   N10   A    
C57   O5    S    
C41   H22   S    
C52   O4    S    
O3    C69   S    
C47   O3    S    
C49   C57   S    
N16   Ni1   S    
C11   N7    A    
C18   C19   A    
C10   N6    A    
C62   H36   S    
C63   C64   S    
C73   C74   S    
C33   C35   A    
C14   C39   S    
C4    C19   S    
C15   C22   S    
C31   C32   A    
C3    C38   S    
C44   C46   A    
O2    C66   S    
C6    N2    A    
C71   H59   S    
C18   C26   S    
C66   C67   S    
C40   H20   S    
C78   H74   S    
C45   H29   S    
C43   C48   A    
C77   H73   S    
C61   H35   S    
C16   C27   S    
C56   H30   S    
C6    C15   A    
C59   C60   A    
N6    Ni1   S    
C21   C22   A    
C4    C56   A    
C72   C73   S    
C73   H63   S    
C26   H11   S    
C76   H70   S    
N10   Ni3   S    
C67   C68   S    
C20   O1    S    
C74   H65   S    
C77   H72   S    
C31   H17   S    
C39   C42   A    
C62   H37   S    
C78   H76   S    
C4    C34   A    
C38   C46   A    
C51   C52   A    
C55   H26   S    
C70   C71   S    
C24   C25   S    
C67   H49   S    
C59   C78   S    
C1    C60   A    
C46   H18   S    
C69   H53   S    
C29   H14   S    
C27   C35   A    
N9    Ni2   S    
N2    Ni2   S    
C59   N15   A    
C1    H1    S    
N11   Ni4   S    
C58   N14   A    
C62   C63   S    
C55   H25   S    
C43   C44   A    
C29   C30   A    
C45   N12   A    
C30   H16   S    
C47   C48   A    
N2    N8    A    
N4    N5    A    
C38   C47   A    
C50   C51   A    
C5    C14   A    
N11   N13   A    
C32   C37   A    
N10   N12   A    
C7    H3    S    
C63   H38   S    
C10   C61   S    
C8    H4    S    
C64   H42   S    
C69   H54   S    
C40   C41   A    
C55   C57   S    
C21   H8    S    
C66   H46   S    
C76   C77   S    
C22   C24   A    
C25   H9    S    
C42   C43   A    
C65   H45   S    
N8    Ni3   S    
C74   H66   S    
C77   H71   S    
C64   H41   S    
C61   H33   S    
C58   H31   S    
C9    C17   A    
N9    N14   A    
N13   Ni1   S    
C54   C55   S    
C7    C16   A    
C9    N5    A    
N15   Ni3   S    
C28   C31   A    
C42   H23   S    
C34   N11   A    
C67   H48   S    
C65   H44   S    
C68   H50   S    
C2    C58   A    
C12   C65   S    
C27   C36   A    
C7    N3    A    
C8    C17   A    
C57   H28   S    
C50   C60   S    
C32   C33   A    
C6    H2    S    
C19   C20   A    
C13   C15   A    
C25   C26   S    
C12   N9    A    
N3    Ni3   S    
O1    C62   S    
N1    N15   A    
N12   Ni2   S    
N5    Ni2   S    
C68   H51   S    
C73   H62   S    
C75   H67   S    
C13   N8    A    
N7    Ni4   S    
C51   H24   S    
C28   C30   A    
C11   C14   A    
C3    C45   A    
C71   H58   S    
C34   H27   S    
C37   H15   S    
C9    H5    S    
C56   N13   A    
C63   H39   S    
C5    H32   S    
C36   H13   S    
O4    C72   S    
C40   C44   A    
C11   H6    S    
C20   C21   A    
C75   C76   S    
C1    N1    A    
C49   C50   A    
N1    Ni1   S    
C72   H60   S    
C66   H47   S    
C71   H57   S    
C64   H40   S    
C2    C28   S    
C25   H10   S    
C23   H19   S    
C35   O2    S    
C49   C54   A    
C52   C53   A    
C78   H75   S    
C61   H34   S    
C5    N16   A    
