data_mof_unit_53339.cif
_audit_creation_date              2012-12-11T15:15:37-0500
_audit_creation_method            fapswitch 2.2
_symmetry_space_group_name_H-M    P1
_symmetry_Int_Tables_number       1
_space_group_crystal_system       triclinic
_cell_length_a                    20.678141
_cell_length_b                    22.762275
_cell_length_c                    6.935532
_cell_angle_alpha                 90.012271
_cell_angle_beta                  86.362272
_cell_angle_gamma                 89.999244
_cell_volume                      3257.84947213

loop_
_atom_site_label
_atom_site_type_symbol
_atom_type_description
_atom_site_fract_x
_atom_site_fract_y
_atom_site_fract_z
_atom_type_partial_charge
O1    O     O_R   0.387100 0.552640 0.378490 -0.538794
O2    O     O_R   0.612900 0.052640 0.621510 -0.538835
O3    O     O_R   0.249610 0.559600 0.072250 -0.534635
O4    O     O_R   0.750390 0.059600 0.927750 -0.534612
O5    O     O_R   0.249120 0.447360 0.902040 -0.543310
O6    O     O_R   0.750880 0.947360 0.097960 -0.543289
C1    C     C_R   0.226238 0.572654 0.245700 0.742273
C2    C     C_R   0.773766 0.072651 0.754319 0.742286
O7    O     O_R   0.386610 0.559560 0.048860 -0.541103
O8    O     O_R   0.613390 0.059560 0.951140 -0.541086
O9    O     O_R   0.387100 0.447320 0.878470 -0.540708
O10   O     O_R   0.612900 0.947320 0.121530 -0.540701
C3    C     C_R   0.407757 0.574889 0.213683 0.676091
C4    C     C_R   0.592244 0.074894 0.786366 0.676070
O11   O     O_R   0.249120 0.552680 0.402050 -0.516380
O12   O     O_R   0.750880 0.052680 0.597950 -0.516426
O13   O     O_3   0.318110 0.463180 0.223790 -0.378920
O14   O     O_3   0.681890 0.963180 0.776210 -0.378886
V1    V     V_3+5 0.318110 0.506830 0.948930 1.465392
V2    V     V_3+5 0.681890 0.006830 0.051070 1.465434
O15   O     O_R   0.386610 0.440400 0.548840 -0.542994
O16   O     O_R   0.613390 0.940400 0.451160 -0.542964
C5    C     C_R   0.407830 0.425119 0.713601 0.678439
C6    C     C_R   0.592174 0.925119 0.286347 0.678411
O17   O     O_R   0.249610 0.440440 0.572240 -0.540347
O18   O     O_R   0.750390 0.940440 0.427760 -0.540352
C7    C     C_R   0.227056 0.426625 0.745210 0.742606
C8    C     C_R   0.772944 0.926626 0.254770 0.742621
V3    V     V_3+5 0.318110 0.493170 0.448930 1.462717
V4    V     V_3+5 0.681890 0.993170 0.551070 1.462631
O19   O     O_3   0.318110 0.536820 0.723940 -0.356625
O20   O     O_3   0.681890 0.036820 0.276060 -0.356653
C9    C     C_R   0.173004 0.384221 0.764502 -0.044591
C10   C     C_R   0.827001 0.884225 0.235455 -0.044594
C11   C     C_R   0.152463 0.354888 0.601142 -0.167526
C12   C     C_R   0.847520 0.854889 0.398800 -0.167578
C13   C     C_R   0.100969 0.315368 0.618106 -0.116014
C14   C     C_R   0.899024 0.815379 0.381849 -0.116019
C15   C     C_R   0.068097 0.304929 0.799007 0.162721
C16   C     C_R   0.931931 0.804952 0.200976 0.162722
C17   C     C_R   0.089306 0.333537 0.962643 -0.142370
C18   C     C_R   0.910746 0.833562 0.037346 -0.142365
C19   C     C_R   0.141146 0.372871 0.945827 -0.147927
C20   C     C_R   0.858892 0.872887 0.054150 -0.147883
C21   C     C_R   0.885937 0.196901 0.871147 -0.113833
C22   C     C_R   0.114101 0.696924 0.128968 -0.113824
C23   C     C_R   0.836876 0.154799 0.886477 -0.181673
C24   C     C_R   0.163163 0.654821 0.113633 -0.181772
C25   C     C_R   0.868979 0.119672 0.563138 0.251969
C26   C     C_R   0.131007 0.619680 0.436866 0.252028
C27   C     C_R   0.917053 0.162749 0.548286 -0.165812
C28   C     C_R   0.082929 0.662756 0.451724 -0.165791
C29   C     C_R   0.926389 0.201072 0.701550 0.108299
C30   C     C_R   0.073618 0.701086 0.298509 0.108299
C31   C     C_2   0.012952 0.263405 0.824072 -0.186096
C32   C     C_2   0.987088 0.763436 0.175931 -0.186080
C33   C     C_2   0.978482 0.245245 0.677314 -0.176077
C34   C     C_2   0.021517 0.745256 0.322736 -0.176070
C35   C     C_R   0.827369 0.115763 0.733447 -0.107417
C36   C     C_R   0.172641 0.615775 0.266604 -0.107395
H1    H     H_    0.176483 0.362049 0.459739 0.121410
H2    H     H_    0.823473 0.862040 0.540190 0.121425
H3    H     H_    0.805698 0.153391 0.017929 0.161503
H4    H     H_    0.194363 0.653417 0.982223 0.161471
H5    H     H_    0.990045 0.260861 0.531624 0.119908
H6    H     H_    0.009912 0.760852 0.468450 0.119891
H7    H     H_    0.065361 0.325772 0.103875 0.102236
H8    H     H_    0.934719 0.825807 0.896130 0.102236
H9    H     H_    0.891107 0.226880 0.990349 0.117169
H10   H     H_    0.108955 0.726909 0.009811 0.117179
H11   H     H_    0.155870 0.394668 0.074777 0.128724
H12   H     H_    0.844187 0.894690 0.925211 0.128720
H13   H     H_    0.000686 0.247017 0.968885 0.126023
H14   H     H_    0.999396 0.747069 0.031093 0.126015
H15   H     H_    0.088304 0.292652 0.489053 0.097628
H16   H     H_    0.911670 0.792664 0.510899 0.097634
H17   H     H_    0.948472 0.165453 0.417386 0.139968
H18   H     H_    0.051487 0.665456 0.582583 0.139966
C37   C     C_R   0.575584 0.360580 0.649859 -0.160753
C38   C     C_R   0.424234 0.860792 0.345836 -0.160671
H19   H     H_    0.534246 0.446541 0.629536 0.108032
H20   H     H_    0.465562 0.946766 0.366002 0.107941
H21   H     H_    0.665640 0.277651 0.635900 0.126574
H22   H     H_    0.334085 0.777958 0.357804 0.126575
H23   H     H_    0.624065 0.376584 0.611451 0.115072
H24   H     H_    0.375655 0.876904 0.382130 0.115070
C39   C     C_R   0.461379 0.381846 0.710422 -0.035915
C40   C     C_R   0.538623 0.881858 0.289202 -0.035713
C41   C     C_R   0.475630 0.095768 0.838409 -0.163438
C42   C     C_R   0.524477 0.595624 0.164365 -0.163620
C43   C     C_R   0.422398 0.133204 0.851173 -0.119900
C44   C     C_R   0.577761 0.633001 0.152809 -0.119841
C45   C     C_R   0.429919 0.193271 0.817667 -0.157245
C46   C     C_R   0.570203 0.693120 0.185304 -0.157235
C47   C     C_R   0.491648 0.217839 0.769497 0.077572
C48   C     C_R   0.508377 0.717804 0.231141 0.077533
C49   C     C_R   0.546324 0.178835 0.754747 0.068701
C50   C     C_R   0.453633 0.678872 0.244479 0.068721
C51   C     C_R   0.500893 0.279706 0.735830 0.074530
C52   C     C_R   0.499099 0.779718 0.263829 0.074567
C53   C     C_R   0.564566 0.300613 0.686500 0.138305
C54   C     C_R   0.435310 0.800757 0.310543 0.138271
C55   C     C_R   0.617056 0.261684 0.673122 -0.198673
C56   C     C_R   0.382756 0.761895 0.322564 -0.198652
C57   C     C_R   0.608234 0.201921 0.706994 -0.195141
C58   C     C_R   0.391622 0.702077 0.289826 -0.194885
C59   C     C_R   0.449548 0.321799 0.748370 -0.217691
C60   C     C_R   0.550518 0.821739 0.252694 -0.217600
C61   C     C_R   0.524499 0.400617 0.660540 -0.167687
C62   C     C_R   0.475373 0.900773 0.336325 -0.167837
C63   C     C_R   0.537770 0.117489 0.789994 -0.081790
C64   C     C_R   0.462233 0.617471 0.210375 -0.081605
H25   H     H_    0.399972 0.309429 0.784809 0.091224
H26   H     H_    0.600182 0.809268 0.218235 0.091068
H27   H     H_    0.468310 0.049349 0.866950 0.107022
H28   H     H_    0.531843 0.549153 0.136863 0.106936
H29   H     H_    0.386372 0.219297 0.830828 0.107863
H30   H     H_    0.613799 0.719091 0.173240 0.107874
H31   H     H_    0.374641 0.115486 0.888408 0.121203
H32   H     H_    0.625598 0.615190 0.117432 0.121217
H33   H     H_    0.650546 0.173802 0.695033 0.109297
H34   H     H_    0.349260 0.674010 0.300678 0.108881
Br1   Br    Br    0.866802 0.066279 0.348424 -0.569006
Br2   Br    Br    0.133161 0.566280 0.651493 -0.568940

loop_
_geom_bond_atom_site_label_1
_geom_bond_atom_site_label_2
_ccdc_geom_bond_type
V4    O20   S    
C41   H27   S    
O13   V3    S    
C42   C64   A    
O4    C2    A    
V1    O19   S    
C56   C58   A    
C17   H7    S    
C14   H16   S    
C7    C9    S    
C43   H31   S    
O9    V1    S    
C45   H29   S    
O10   V2    S    
H20   C62   S    
C11   C13   A    
O7    V1    S    
C3    C64   S    
O3    C1    A    
C2    C35   S    
C23   H3    S    
C49   C63   A    
C47   C51   A    
C24   H4    S    
O12   V4    S    
C25   Br1   S    
C60   H26   S    
O7    C3    A    
C59   H25   S    
C38   H24   S    
C9    C11   A    
O5    C7    A    
C34   H6    S    
O6    C8    A    
O8    V2    S    
C16   C32   S    
C48   C50   A    
C26   C28   A    
O3    V1    S    
O14   V4    S    
C42   H28   S    
C41   C43   A    
C10   C12   A    
C24   C36   A    
C40   C62   A    
C16   C18   A    
C13   H15   S    
C8    C10   S    
C2    O12   A    
C5    C39   S    
C18   H8    S    
C17   C19   A    
C22   C30   A    
C18   C20   A    
C28   H18   S    
O1    V3    S    
C28   C30   A    
O11   V3    S    
C21   C23   A    
O17   V3    S    
C4    C63   S    
C13   C15   A    
C22   C24   A    
C52   C60   A    
C23   C35   A    
C50   C64   A    
C37   C61   A    
C21   H9    S    
C9    C19   A    
C57   H33   S    
C32   H14   S    
C15   C17   A    
O8    C4    A    
C29   C33   S    
C1    O11   A    
C12   H2    S    
C25   C27   A    
O15   V3    S    
C38   C54   A    
C27   C29   A    
O4    V2    S    
C54   C56   A    
C27   H17   S    
C43   C45   A    
C42   C44   A    
C58   H34   S    
C44   C46   A    
C26   Br2   S    
C11   H1    S    
C46   C48   A    
C6    C40   S    
H21   C55   S    
O5    V1    S    
C51   C53   A    
H19   C61   S    
O18   V4    S    
C31   C33   D    
O17   C7    A    
H22   C56   S    
C55   C57   A    
O16   C6    A    
O1    C3    A    
C12   C14   A    
C1    C36   S    
C37   H23   S    
O6    V2    S    
C52   C54   A    
V2    O20   S    
C10   C20   A    
C41   C63   A    
C19   H11   S    
O16   V4    S    
C33   H5    S    
C39   C59   A    
C25   C35   A    
C47   C49   A    
C39   C61   A    
C15   C31   S    
C51   C59   A    
O10   C6    A    
O18   C8    A    
C50   C58   A    
O2    V4    S    
C26   C36   A    
O15   C5    A    
C44   H32   S    
C49   C57   A    
V3    O19   S    
C14   C16   A    
C46   H30   S    
C45   C47   A    
C40   C60   A    
C48   C52   A    
O9    C5    A    
O13   V1    S    
C32   C34   D    
C20   H12   S    
O14   V2    S    
O2    C4    A    
C22   H10   S    
C21   C29   A    
C31   H13   S    
C30   C34   S    
C53   C55   A    
C38   C62   A    
C37   C53   A    
