data_mof_unit_23273.cif
_audit_creation_date              2013-03-05T15:40:17-0500
_audit_creation_method            fapswitch 2.2
_symmetry_space_group_name_H-M    P1
_symmetry_Int_Tables_number       1
_space_group_crystal_system       triclinic
_cell_length_a                    28.198346
_cell_length_b                    18.565161
_cell_length_c                    17.031461
_cell_angle_alpha                 90.067231
_cell_angle_beta                  60.795583
_cell_angle_gamma                 90.110733
_cell_volume                      7782.69834113

loop_
_atom_site_label
_atom_site_type_symbol
_atom_site_description
_atom_site_fract_x
_atom_site_fract_y
_atom_site_fract_z
_atom_type_partial_charge
O1    O     O_R   0.746490 0.236330 0.638080 -0.640527
O2    O     O_R   0.253510 0.763670 0.361920 -0.648845
O3    O     O_R   0.253510 0.236330 0.361920 -0.604353
O4    O     O_R   0.746490 0.763670 0.638080 -0.653035
O5    O     O_R   0.246490 0.736330 0.638080 -0.601205
O6    O     O_R   0.753510 0.263670 0.361920 -0.585090
O7    O     O_R   0.753510 0.736330 0.361920 -0.597819
O8    O     O_R   0.246490 0.263670 0.638080 -0.596761
O9    O     O_R   0.674170 0.186160 0.516270 -0.601408
O10   O     O_R   0.325830 0.813840 0.483730 -0.628955
O11   O     O_R   0.325830 0.186160 0.483730 -0.605647
O12   O     O_R   0.674170 0.813840 0.516270 -0.623833
O13   O     O_R   0.174170 0.686160 0.516270 -0.622237
O14   O     O_R   0.825830 0.313840 0.483730 -0.588688
O15   O     O_R   0.825830 0.686160 0.483730 -0.615897
O16   O     O_R   0.174170 0.313840 0.516270 -0.639680
O17   O     O_R   0.739960 0.127620 0.525000 -0.642237
O18   O     O_R   0.260040 0.872380 0.475000 -0.639861
O19   O     O_R   0.260040 0.127620 0.475000 -0.644519
O20   O     O_R   0.739960 0.872380 0.525000 -0.637825
O21   O     O_R   0.239960 0.627620 0.525000 -0.638623
O22   O     O_R   0.760040 0.372380 0.475000 -0.639217
O23   O     O_R   0.760040 0.627620 0.475000 -0.637208
O24   O     O_R   0.239960 0.372380 0.525000 -0.635694
O25   O     O_R   0.680700 0.294870 0.629350 -0.628215
O26   O     O_R   0.319300 0.705130 0.370650 -0.635638
O27   O     O_R   0.319300 0.294870 0.370650 -0.628927
O28   O     O_R   0.680700 0.705130 0.629350 -0.639133
O29   O     O_R   0.180700 0.794870 0.629350 -0.613436
O30   O     O_R   0.819300 0.205130 0.370650 -0.592894
O31   O     O_R   0.819300 0.794870 0.370650 -0.603129
O32   O     O_R   0.180700 0.205130 0.629350 -0.644999
C1    C     C_R   0.701833 0.268732 0.675898 0.880902
C2    C     C_R   0.298088 0.731098 0.324124 0.890643
C3    C     C_R   0.298798 0.267381 0.323815 0.940079
C4    C     C_R   0.701764 0.731375 0.675925 0.878190
C5    C     C_R   0.201523 0.768076 0.675996 0.968168
C6    C     C_R   0.798432 0.231825 0.323990 0.941768
C7    C     C_R   0.798422 0.768189 0.324025 0.971138
C8    C     C_R   0.201819 0.231280 0.675961 0.923589
C9    C     C_R   0.697406 0.128510 0.514264 0.901592
C10   C     C_R   0.304127 0.871632 0.480866 0.923344
C11   C     C_R   0.304684 0.128334 0.479124 0.907101
C12   C     C_R   0.695669 0.871787 0.519512 0.908961
C13   C     C_R   0.191534 0.629091 0.533103 0.942342
C14   C     C_R   0.809309 0.370296 0.463408 0.900439
C15   C     C_R   0.808089 0.628768 0.467548 0.915081
C16   C     C_R   0.195679 0.372236 0.520336 0.944692
Zn1   Zn    Zn3+2 0.792340 0.208750 0.507670 1.042326
Zn2   Zn    Zn3+2 0.207660 0.791250 0.492330 0.978900
Zn3   Zn    Zn3+2 0.207660 0.208750 0.492330 0.982222
Zn4   Zn    Zn3+2 0.792340 0.791250 0.507670 1.003564
Zn5   Zn    Zn3+2 0.292340 0.708750 0.507670 1.013723
Zn6   Zn    Zn3+2 0.707660 0.291250 0.492330 1.060046
Zn7   Zn    Zn3+2 0.707660 0.708750 0.492330 1.030001
Zn8   Zn    Zn3+2 0.292340 0.291250 0.507670 1.046083
C17   C     C_R   0.560637 0.129404 0.457181 -0.201717
C18   C     C_R   0.443576 0.869544 0.523351 -0.218675
C19   C     C_R   0.450055 0.130423 0.500979 -0.171986
C20   C     C_R   0.552738 0.868796 0.488328 -0.221152
C21   C     C_R   0.037183 0.628255 0.528562 -0.204525
C22   C     C_R   0.983242 0.373352 0.405587 -0.218000
C23   C     C_R   0.961081 0.631098 0.464125 -0.210828
C24   C     C_R   0.077433 0.379234 0.428213 -0.213392
C25   C     C_R   0.537168 0.191591 0.440404 0.400559
C26   C     C_R   0.470384 0.803492 0.516417 0.455314
C27   C     C_R   0.480315 0.194576 0.472910 0.433725
C28   C     C_R   0.523823 0.803292 0.502998 0.459537
C29   C     C_R   0.014129 0.694276 0.521898 0.446311
C30   C     C_R   0.019767 0.313978 0.381588 0.421501
C31   C     C_R   0.974827 0.695209 0.493403 0.454820
C32   C     C_R   0.062768 0.314918 0.401296 0.460449
C33   C     C_R   0.476317 0.065312 0.496633 -0.060428
C34   C     C_R   0.525792 0.934264 0.496108 -0.046511
C35   C     C_R   0.529533 0.065465 0.482678 -0.044477
C36   C     C_R   0.472834 0.934342 0.508589 -0.044899
C37   C     C_R   0.984162 0.565568 0.469952 -0.047616
C38   C     C_R   0.042293 0.438734 0.451620 -0.051110
C39   C     C_R   0.025029 0.565160 0.495223 -0.045229
C40   C     C_R   0.996617 0.436711 0.437514 -0.047603
C41   C     C_R   0.967424 0.500496 0.447516 0.057129
C42   C     C_R   0.054339 0.501728 0.485466 0.060654
C43   C     C_R   0.448622 0.999915 0.507534 0.052431
C44   C     C_R   0.553143 0.000047 0.486622 0.054281
C45   C     C_R   0.899474 0.434104 0.425528 -0.033925
C46   C     C_R   0.109283 0.564225 0.540963 -0.046303
C47   C     C_R   0.130828 0.440876 0.485560 -0.048634
C48   C     C_R   0.895681 0.565679 0.437005 -0.044276
C49   C     C_R   0.372515 0.935122 0.512004 -0.035058
C50   C     C_R   0.630162 0.065308 0.478498 -0.031031
C51   C     C_R   0.627143 0.934884 0.487863 -0.035137
C52   C     C_R   0.374455 0.065116 0.506524 -0.047479
C53   C     C_R   0.844743 0.434491 0.439187 -0.074095
C54   C     C_R   0.158302 0.564347 0.547271 -0.044553
C55   C     C_R   0.169010 0.438337 0.517712 -0.061465
C56   C     C_R   0.842819 0.564469 0.445046 -0.068900
C57   C     C_R   0.329475 0.936029 0.490300 -0.062630
C58   C     C_R   0.672884 0.064361 0.501571 -0.075088
C59   C     C_R   0.670781 0.936196 0.507973 -0.070182
C60   C     C_R   0.330414 0.063967 0.487543 -0.067514
C61   C     C_R   0.819003 0.499404 0.444961 -0.282138
C62   C     C_R   0.182589 0.500159 0.546968 -0.288610
C63   C     C_R   0.310822 0.999861 0.475114 -0.302491
C64   C     C_R   0.690899 0.000515 0.518422 -0.297996
H1    H     H_    0.777925 0.499260 0.455229 0.192168
H2    H     H_    0.215584 0.499471 0.562533 0.184493
H3    H     H_    0.279055 0.999725 0.456605 0.187277
H4    H     H_    0.722281 0.000705 0.537804 0.189100
C65   C     C_R   0.920728 0.499846 0.436993 -0.017058
C66   C     C_R   0.097519 0.502009 0.505333 -0.022291
C67   C     C_R   0.399038 0.999912 0.507103 -0.017182
C68   C     C_R   0.603027 0.000293 0.485707 -0.009800
C69   C     C_R   0.127277 0.386997 0.429294 0.324773
C70   C     C_R   0.925440 0.630081 0.427551 0.322634
C71   C     C_R   0.934556 0.372462 0.398073 0.318461
C72   C     C_R   0.072593 0.623530 0.566242 0.314907
C73   C     C_R   0.608349 0.871836 0.463996 0.327491
C74   C     C_R   0.394254 0.128011 0.528300 0.359443
C75   C     C_R   0.388514 0.873794 0.543529 0.327547
C76   C     C_R   0.614223 0.126658 0.445789 0.327010
C77   C     C_R   0.721092 0.267099 0.953627 -0.079552
C78   C     C_R   0.279967 0.733412 0.044748 -0.068832
C79   C     C_R   0.278713 0.265978 0.047402 -0.050129
C80   C     C_R   0.719548 0.736870 0.954963 -0.072516
C81   C     C_R   0.221947 0.767394 0.952082 -0.056659
C82   C     C_R   0.779096 0.233196 0.046348 -0.068237
C83   C     C_R   0.779551 0.764409 0.046065 -0.082495
C84   C     C_R   0.220440 0.232728 0.954839 -0.063000
C85   C     C_R   0.735206 0.195622 0.959486 -0.387877
C86   C     C_R   0.265130 0.804763 0.039957 -0.364221
C87   C     C_R   0.263118 0.194868 0.043264 -0.363029
C88   C     C_R   0.776087 0.726692 0.911470 -0.385604
C89   C     C_R   0.236678 0.696065 0.956881 -0.351112
C90   C     C_R   0.764417 0.304544 0.041222 -0.366195
C91   C     C_R   0.722933 0.773878 0.089802 -0.326638
C92   C     C_R   0.236155 0.303794 0.958869 -0.357990
H5    H     H_    0.721637 0.153310 0.931307 0.171983
H6    H     H_    0.276065 0.847537 0.071497 0.176659
H7    H     H_    0.275697 0.152314 0.072458 0.163485
H8    H     H_    0.796319 0.705143 0.843805 0.166171
H9    H     H_    0.223601 0.653677 0.928031 0.170285
H10   H     H_    0.775484 0.347376 0.072504 0.186517
H11   H     H_    0.701745 0.792445 0.158872 0.227424
H12   H     H_    0.225834 0.346644 0.926754 0.177402
C93   C     C_R   0.764751 0.178034 0.004321 0.577475
C94   C     C_R   0.237884 0.822333 0.992015 0.542691
C95   C     C_R   0.233109 0.177763 0.999119 0.571032
C96   C     C_R   0.806582 0.741673 0.955409 0.557076
C97   C     C_R   0.266673 0.678610 0.000883 0.561317
C98   C     C_R   0.736789 0.322039 0.993905 0.546793
C99   C     C_R   0.693079 0.761865 0.044706 0.544192
C100  C     C_R   0.263625 0.321079 0.006520 0.548880
C101  C     C_R   0.643462 0.327288 0.946415 -0.131630
C102  C     C_R   0.357573 0.674094 0.052753 -0.133939
C103  C     C_R   0.356435 0.326821 0.054058 -0.138280
C104  C     C_R   0.642831 0.674383 0.946951 -0.122678
C105  C     C_R   0.144218 0.828109 0.945511 -0.115833
C106  C     C_R   0.856715 0.173146 0.053724 -0.135535
C107  C     C_R   0.855945 0.827381 0.054434 -0.117972
C108  C     C_R   0.142378 0.174308 0.947296 -0.142775
H13   H     H_    0.629434 0.346921 0.014135 0.176835
H14   H     H_    0.372399 0.655516 0.984426 0.161823
H15   H     H_    0.369935 0.347194 0.986844 0.181674
H16   H     H_    0.629752 0.653259 0.013705 0.184305
H17   H     H_    0.130746 0.848494 0.012747 0.181759
H18   H     H_    0.870724 0.153420 0.986077 0.159796
H19   H     H_    0.868407 0.849547 0.988373 0.159233
H20   H     H_    0.127477 0.155868 0.015677 0.156395
C109  C     C_R   0.616449 0.347449 0.898520 -0.099488
C110  C     C_R   0.384043 0.653183 0.101165 -0.091419
C111  C     C_R   0.383608 0.347150 0.101640 -0.093559
C112  C     C_R   0.616068 0.653340 0.898861 -0.102860
C113  C     C_R   0.116731 0.847720 0.898174 -0.102577
C114  C     C_R   0.883749 0.152917 0.101509 -0.100545
C115  C     C_R   0.883365 0.847399 0.101764 -0.099903
C116  C     C_R   0.115825 0.153438 0.898986 -0.080621
C117  C     C_R   0.633160 0.322220 0.813292 -0.263742
C118  C     C_R   0.366885 0.677783 0.186771 -0.260815
C119  C     C_R   0.367373 0.321427 0.186528 -0.254909
C120  C     C_R   0.632800 0.678289 0.813512 -0.267871
C121  C     C_R   0.132927 0.821774 0.813383 -0.221202
C122  C     C_R   0.867226 0.178421 0.186589 -0.216724
C123  C     C_R   0.867190 0.821566 0.186549 -0.214615
C124  C     C_R   0.132954 0.178031 0.813401 -0.266413
H21   H     H_    0.612140 0.338618 0.777249 0.181102
H22   H     H_    0.387677 0.661056 0.223064 0.178231
H23   H     H_    0.388209 0.338455 0.222706 0.180112
H24   H     H_    0.611918 0.661401 0.777350 0.176124
H25   H     H_    0.111704 0.837910 0.777574 0.192007
H26   H     H_    0.888169 0.161853 0.222698 0.200134
H27   H     H_    0.888413 0.837897 0.222361 0.197877
H28   H     H_    0.112064 0.161330 0.777187 0.178371
C125  C     C_R   0.679428 0.281450 0.771236 -0.054259
C126  C     C_R   0.320519 0.718398 0.228756 -0.056003
C127  C     C_R   0.321691 0.279331 0.228189 -0.043712
C128  C     C_R   0.679158 0.719027 0.771296 -0.049996
C129  C     C_R   0.179024 0.780659 0.771335 -0.041143
C130  C     C_R   0.821157 0.219639 0.228468 -0.042622
C131  C     C_R   0.820925 0.780634 0.228754 -0.050429
C132  C     C_R   0.179427 0.218583 0.771319 -0.055722
C133  C     C_R   0.707447 0.260271 0.817692 -0.227638
C134  C     C_R   0.292583 0.739585 0.182092 -0.208921
C135  C     C_R   0.294121 0.256991 0.181400 -0.135382
C136  C     C_R   0.706962 0.740955 0.817818 -0.234844
C137  C     C_R   0.207165 0.759512 0.817533 -0.149874
C138  C     C_R   0.793338 0.241252 0.181824 -0.120816
C139  C     C_R   0.792861 0.758996 0.182538 -0.132194
C140  C     C_R   0.207555 0.239574 0.817828 -0.130854
H29   H     H_    0.744397 0.228824 0.784054 0.157861
H30   H     H_    0.255441 0.770640 0.215785 0.156815
H31   H     H_    0.257964 0.223868 0.214495 0.185333
H32   H     H_    0.743549 0.773269 0.784312 0.150519
H33   H     H_    0.243915 0.727668 0.783904 0.186226
H34   H     H_    0.756644 0.273221 0.215274 0.186148
H35   H     H_    0.756501 0.726246 0.215894 0.184995
H36   H     H_    0.244846 0.270462 0.784019 0.184286
C141  C     C_R   0.689711 0.283776 0.906028 0.128104
C142  C     C_R   0.310852 0.716758 0.093291 0.145893
C143  C     C_R   0.310771 0.282084 0.094067 0.109885
C144  C     C_R   0.688603 0.719001 0.906884 0.134439
C145  C     C_R   0.190144 0.783966 0.905202 0.108886
C146  C     C_R   0.810546 0.216866 0.094006 0.139135
C147  C     C_R   0.810519 0.782092 0.094175 0.143448
C148  C     C_R   0.189340 0.216593 0.906530 0.133936
O33   O     O_R   0.062020 0.072840 0.007170 -0.627869
O34   O     O_R   0.937980 0.927160 0.992830 -0.630813
O35   O     O_R   0.937980 0.072840 0.992830 -0.633345
O36   O     O_R   0.062020 0.927160 0.007170 -0.620446
O37   O     O_R   0.562020 0.572840 0.007170 -0.620540
O38   O     O_R   0.437980 0.427160 0.992830 -0.624088
O39   O     O_R   0.437980 0.572840 0.992830 -0.628052
O40   O     O_R   0.562020 0.427160 0.007170 -0.622067
O41   O     O_R   0.947860 0.073950 0.109290 -0.618082
O42   O     O_R   0.052140 0.926050 0.890710 -0.617832
O43   O     O_R   0.052140 0.073950 0.890710 -0.626724
O44   O     O_R   0.947860 0.926050 0.109290 -0.612860
O45   O     O_R   0.447860 0.573950 0.109290 -0.621154
O46   O     O_R   0.552140 0.426050 0.890710 -0.624236
O47   O     O_R   0.552140 0.573950 0.890710 -0.627701
O48   O     O_R   0.447860 0.426050 0.109290 -0.622231
C149  C     C_R   0.073635 0.100042 0.934332 0.917008
C150  C     C_R   0.925747 0.900648 0.066252 0.927596
C151  C     C_R   0.926019 0.099639 0.066052 0.915798
C152  C     C_R   0.074196 0.900623 0.933773 0.932258
C153  C     C_R   0.573967 0.599696 0.934047 0.910649
C154  C     C_R   0.425844 0.400553 0.066180 0.921811
C155  C     C_R   0.426267 0.599904 0.065802 0.918957
C156  C     C_R   0.573996 0.400408 0.933978 0.910652
Zn9   Zn    Zn3+2 0.505960 0.500000 0.080520 0.968402
Zn10  Zn    Zn3+2 0.494040 0.500000 0.919480 0.945777
Zn11  Zn    Zn3+2 0.005960 0.000000 0.080520 0.989836
Zn12  Zn    Zn3+2 0.994040 0.000000 0.919480 0.952615
O49   O     O_3   0.089780 0.251072 0.394534 -0.548358
C157  C     C_3   0.068220 0.220649 0.481071 -0.238834
H37   H     H_    0.024128 0.208603 0.510036 0.153477
H38   H     H_    0.075122 0.256160 0.527234 0.147042
H39   H     H_    0.089377 0.169019 0.475486 0.173020
O50   O     O_3   0.949658 0.759579 0.495298 -0.545145
C158  C     C_3   0.903193 0.767047 0.580507 -0.237608
H40   H     H_    0.914907 0.775060 0.633451 0.158183
H41   H     H_    0.875156 0.720181 0.597275 0.136738
H42   H     H_    0.880620 0.815641 0.579668 0.176259
O51   O     O_3   0.013415 0.252661 0.341754 -0.542738
C159  C     C_3   0.049479 0.256480 0.248272 -0.180888
H43   H     H_    0.092591 0.254385 0.232970 0.171591
H44   H     H_    0.042296 0.305717 0.218259 0.153026
H45   H     H_    0.042261 0.209182 0.215602 0.179820
O52   O     O_3   0.031038 0.759244 0.539778 -0.556492
C160  C     C_3   0.077407 0.782612 0.460862 -0.214188
H46   H     H_    0.067893 0.792171 0.405511 0.174138
H47   H     H_    0.111509 0.743648 0.438926 0.148195
H48   H     H_    0.091227 0.834486 0.475232 0.169518
O53   O     O_3   0.546932 0.738298 0.505472 -0.545637
C161  C     C_3   0.538369 0.727704 0.593411 -0.232890
H49   H     H_    0.494232 0.725019 0.643121 0.165751
H50   H     H_    0.558443 0.770457 0.612775 0.140418
H51   H     H_    0.556713 0.675474 0.595634 0.178220
O54   O     O_3   0.455850 0.255467 0.460965 -0.604742
C162  C     C_3   0.465563 0.317002 0.500160 -0.124005
H52   H     H_    0.500736 0.347815 0.448625 0.183988
H53   H     H_    0.471686 0.304379 0.558619 0.153678
H54   H     H_    0.429605 0.352762 0.525212 0.164388
O55   O     O_3   0.445667 0.738317 0.519673 -0.551348
C163  C     C_3   0.455540 0.721333 0.432257 -0.214068
H55   H     H_    0.499798 0.715043 0.384905 0.181865
H56   H     H_    0.437883 0.762488 0.406521 0.140148
H57   H     H_    0.435615 0.669153 0.434781 0.172752
O56   O     O_3   0.568559 0.249044 0.391191 -0.574996
C164  C     C_3   0.582015 0.239219 0.300452 -0.211876
H58   H     H_    0.545237 0.241346 0.292255 0.156084
H59   H     H_    0.604225 0.187735 0.272851 0.171375
H60   H     H_    0.609340 0.283698 0.260031 0.194561
N1    N     N_R   0.177259 0.358815 0.355610 0.226971
O57   O     O_R   0.223195 0.390028 0.335424 -0.444873
O58   O     O_R   0.176360 0.318562 0.293846 -0.411490
N2    N     N_R   0.931502 0.682932 0.360401 0.250509
O59   O     O_R   0.909494 0.671201 0.309809 -0.410380
O60   O     O_R   0.969698 0.731389 0.333058 -0.348782
N3    N     N_R   0.925328 0.315498 0.349645 0.227490
O61   O     O_R   0.915879 0.249883 0.380606 -0.327203
O62   O     O_R   0.919316 0.331122 0.280556 -0.438236
N4    N     N_R   0.062353 0.667506 0.643671 0.248657
O63   O     O_R   0.089770 0.657306 0.685868 -0.419369
O64   O     O_R   0.016469 0.701593 0.687496 -0.378873
N5    N     N_R   0.647347 0.828908 0.389189 0.241668
O65   O     O_R   0.696343 0.853725 0.339501 -0.429448
O66   O     O_R   0.631810 0.775796 0.357173 -0.366161
N6    N     N_R   0.356964 0.171493 0.603897 0.244915
O67   O     O_R   0.374346 0.225336 0.631849 -0.404442
O68   O     O_R   0.308093 0.147612 0.656891 -0.404163
N7    N     N_R   0.347028 0.833909 0.619035 0.239040
O69   O     O_R   0.298065 0.860083 0.662278 -0.440547
O70   O     O_R   0.359896 0.784340 0.659207 -0.379869
N8    N     N_R   0.655528 0.174203 0.383090 0.224809
O71   O     O_R   0.653462 0.243209 0.397816 -0.328487
O72   O     O_R   0.698254 0.147017 0.314859 -0.427670
O73   O     O_3   0.723620 0.393121 0.990106 -0.610272
C165  C     C_3   0.767026 0.425330 0.913998 -0.289288
H61   H     H_    0.774189 0.398242 0.850775 0.159032
H62   H     H_    0.804889 0.425431 0.919171 0.166908
H63   H     H_    0.756342 0.482236 0.910288 0.200684
O74   O     O_3   0.278595 0.607578 0.009805 -0.621877
C166  C     C_3   0.305886 0.573437 0.924987 -0.310339
H64   H     H_    0.336168 0.609352 0.871526 0.150379
H65   H     H_    0.276277 0.552314 0.905378 0.183319
H66   H     H_    0.328579 0.526698 0.930373 0.230963
O75   O     O_3   0.276830 0.392212 0.010375 -0.640890
C167  C     C_3   0.235030 0.422956 0.089695 -0.243795
H67   H     H_    0.232086 0.396660 0.150457 0.225768
H68   H     H_    0.195224 0.420660 0.090865 0.154606
H69   H     H_    0.244816 0.480403 0.092372 0.238929
O76   O     O_3   0.637499 0.772177 0.090030 -0.607480
C168  C     C_3   0.627071 0.845891 0.085875 -0.297265
H70   H     H_    0.643974 0.864315 0.014983 0.154436
H71   H     H_    0.643287 0.879482 0.121649 0.179404
H72   H     H_    0.582448 0.853969 0.119952 0.192340
O77   O     O_3   0.226086 0.893623 0.986006 -0.640614
C169  C     C_3   0.269603 0.923174 0.907658 -0.234778
H73   H     H_    0.276495 0.893422 0.846163 0.204314
H74   H     H_    0.307512 0.924373 0.912639 0.155331
H75   H     H_    0.259388 0.979480 0.900251 0.243328
O78   O     O_3   0.774703 0.106847 0.016817 -0.583339
C170  C     C_3   0.800080 0.069371 0.934171 -0.342952
H76   H     H_    0.831724 0.102367 0.878577 0.142005
H77   H     H_    0.769418 0.049659 0.916165 0.167776
H78   H     H_    0.820727 0.021376 0.942165 0.199998
O79   O     O_3   0.861984 0.727997 0.914487 -0.598106
C171  C     C_3   0.889543 0.758929 0.827835 -0.254782
H79   H     H_    0.871638 0.811160 0.823048 0.111966
H80   H     H_    0.890949 0.720075 0.777150 0.176073
H81   H     H_    0.931908 0.770447 0.811757 0.246451
O80   O     O_3   0.220773 0.106833 0.990179 -0.610627
C172  C     C_3   0.192768 0.073005 0.075091 -0.305382
H82   H     H_    0.162315 0.109119 0.127940 0.143445
H83   H     H_    0.221858 0.052027 0.095800 0.178963
H84   H     H_    0.170188 0.026174 0.069256 0.231497

loop_
_geom_bond_atom_site_label_1
_geom_bond_atom_site_label_2
_geom_bond_distance
_ccdc_geom_bond_type
O4    C4    1.253106 A    
O5    C5    1.255042 A    
C86   C94   1.406128 A    
O7    Zn7   2.016122 S    
C32   O49   1.384177 S    
C111  C119  1.372129 A    
C84   C148  1.496084 S    
C80   C144  1.495819 S    
O77   C169  1.410161 S    
C119  C127  1.370795 A    
C168  H70   1.113876 S    
C31   O50   1.383360 S    
C20   C34   1.406076 A    
O41   Zn11  2.008175 S    
C44   C68   1.399109 A    
C117  C125  1.370669 A    
C110  C118  1.370892 A    
C163  H55   1.113432 S    
C46   C66   1.416247 A    
C113  C121  1.371756 A    
C81   C94   1.414108 A    
C12   C59   1.448915 S    
C127  C135  1.419122 A    
C125  C133  1.420151 A    
C22   C30   1.426682 A    
C71   N3    1.439714 S    
C161  H49   1.113497 S    
C133  H29   1.083400 S    
C157  H38   1.112788 S    
C106  C114  1.411300 A    
C100  O75   1.381563 S    
C97   O74   1.388227 S    
C128  C136  1.418608 A    
C19   C33   1.401726 A    
C85   C93   1.416426 A    
C120  C128  1.370402 A    
C55   C62   1.376711 A    
C2    C126  1.446039 S    
O48   Zn9   2.004630 S    
C132  C140  1.421149 A    
C33   C35   1.400090 A    
O8    Zn8   2.016122 S    
O6    Zn6   2.016067 S    
C36   C43   1.401318 A    
C172  H83   1.110357 S    
C37   C39   1.413282 A    
C166  H64   1.115030 S    
C78   C97   1.415555 A    
C10   C57   1.440277 S    
C77   C85   1.403690 A    
O78   C170  1.412135 S    
O27   C3    1.295705 A    
N8    O71   1.301077 A    
C101  H13   1.083482 S    
C76   N8    1.435472 S    
C38   C42   1.415395 A    
O36   C152  1.226217 A    
C72   N4    1.454566 S    
O80   C172  1.412526 S    
C136  H32   1.083441 S    
C20   C73   1.414070 A    
C104  C144  1.398380 A    
C27   O54   1.391320 S    
C57   C63   1.372509 A    
C48   C65   1.412744 A    
N2    O59   1.302258 A    
C108  C148  1.397134 A    
O30   Zn1   2.072909 S    
C23   C31   1.414566 A    
C160  H47   1.113121 S    
C105  H17   1.083447 S    
C86   H6    1.083469 S    
C115  C123  1.371590 A    
C168  H72   1.109264 S    
C116  C124  1.371171 A    
C79   C100  1.415865 A    
C165  H63   1.109443 S    
C163  H57   1.109219 S    
O39   C155  1.226681 A    
C50   C58   1.438072 A    
C158  H41   1.114108 S    
C84   C95   1.415561 A    
O23   Zn7   2.029648 S    
O24   Zn8   2.029648 S    
O9    C9    1.247697 A    
O12   C12   1.248181 A    
O13   C13   1.258636 A    
C112  C153  1.436295 S    
C171  H79   1.115387 S    
C107  H19   1.083237 S    
C108  H20   1.083026 S    
C47   C69   1.421237 A    
C118  H22   1.084923 S    
C85   H5    1.082096 S    
C82   C90   1.403972 A    
O7    C7    1.253246 A    
C63   H3    1.085049 S    
O9    Zn6   2.117432 S    
O8    C8    1.252784 A    
C166  H65   1.110386 S    
N8    O72   1.300541 A    
C33   C43   1.404906 A    
O37   Zn9   1.989173 S    
O11   Zn8   2.119912 S    
O42   C152  1.262797 A    
C139  C147  1.402169 A    
O16   Zn3   2.119912 S    
C121  C129  1.370872 A    
C114  C122  1.371635 A    
C18   C36   1.409084 A    
O22   Zn6   2.025922 S    
C47   C66   1.406497 A    
O30   C6    1.296846 A    
C34   C36   1.401940 A    
C22   C40   1.420733 A    
O18   C10   1.294977 A    
O49   C157  1.409643 S    
C38   C40   1.421184 A    
C35   C44   1.403470 A    
O34   C150  1.226702 A    
C80   C88   1.405192 A    
C52   C74   1.418179 A    
O43   C149  1.261537 A    
C165  H62   1.113314 S    
O2    Zn2   2.016067 S    
C19   C27   1.405158 A    
C45   C53   1.444196 A    
C28   O53   1.382853 S    
C159  H43   1.112779 S    
N5    O66   1.300666 A    
C47   C55   1.427201 A    
C6    C130  1.445991 S    
C87   C95   1.414736 A    
C101  C141  1.397825 A    
C99   O76   1.381698 S    
O36   Zn11  1.991334 S    
O37   C153  1.226560 A    
C162  H53   1.115548 S    
O46   Zn10  2.008177 S    
C105  C145  1.398298 A    
C135  H31   1.083037 S    
O43   Zn12  2.004629 S    
C109  C117  1.371209 A    
O20   C12   1.297118 A    
C82   C93   1.415623 A    
N6    O68   1.301944 A    
O21   C13   1.304106 A    
C69   N1    1.452707 S    
N4    O64   1.300499 A    
O23   C15   1.297854 A    
O24   C16   1.289272 A    
O76   C168  1.409391 S    
O17   Zn1   2.025922 S    
C157  H39   1.109207 S    
C103  H15   1.083350 S    
C104  C112  1.412158 A    
C171  H81   1.108035 S    
O40   C156  1.225977 A    
C50   C76   1.434358 A    
C51   C68   1.402163 A    
C4    C128  1.444700 S    
N1    O57   1.301862 A    
O3    C3    1.254438 A    
C162  H52   1.109420 S    
C51   C73   1.422270 A    
C164  H58   1.112658 S    
C20   C28   1.415702 A    
C17   C76   1.427479 A    
C80   C99   1.412441 A    
C19   C74   1.407007 A    
C169  H74   1.113020 S    
C170  H77   1.110308 S    
C96   O79   1.389026 S    
C101  C109  1.412046 A    
C7    C131  1.443761 S    
C77   C141  1.495915 S    
C102  H14   1.082964 S    
C34   C44   1.409865 A    
C167  H67   1.110568 S    
O41   C151  1.262364 A    
O38   C154  1.226924 A    
C39   C42   1.402415 A    
C81   C145  1.495565 S    
C140  C148  1.404120 A    
C169  H75   1.108390 S    
C122  H26   1.084965 S    
C17   C35   1.411514 A    
C163  H56   1.113115 S    
O50   C158  1.409506 S    
C22   C71   1.439690 A    
C138  H34   1.083404 S    
C138  C146  1.403020 A    
C159  H45   1.109406 S    
O74   C166  1.412683 S    
C161  H50   1.113097 S    
C109  C156  1.436011 S    
C26   O55   1.382794 S    
O12   Zn7   2.119912 S    
C87   H7    1.082255 S    
C1    C125  1.445697 S    
O13   Zn2   2.117432 S    
O33   Zn11  1.989173 S    
O46   C156  1.262796 A    
O55   C163  1.410062 S    
O54   C162  1.414612 S    
O40   Zn9   1.991334 S    
C51   C59   1.429414 A    
C160  H46   1.113339 S    
O25   C1    1.296969 A    
C115  C150  1.436265 S    
C48   C56   1.428926 A    
C70   N2    1.452976 S    
O10   C10   1.248933 A    
C161  H51   1.109234 S    
C129  C137  1.419188 A    
N7    O69   1.301659 A    
C172  H82   1.115185 S    
O51   C159  1.412122 S    
O14   C14   1.263115 A    
C98   O73   1.381701 S    
O34   Zn12  1.989173 S    
C118  C126  1.370963 A    
C136  C144  1.403391 A    
C102  C110  1.410716 A    
C83   C91   1.405321 A    
C45   C65   1.413413 A    
C84   C92   1.403200 A    
C119  H23   1.084849 S    
O33   C149  1.227017 A    
C126  C134  1.421182 A    
C164  H60   1.109383 S    
C117  H21   1.084900 S    
O10   Zn5   2.117432 S    
C79   C143  1.495930 S    
C120  H24   1.084949 S    
C92   C100  1.404812 A    
C121  H25   1.084933 S    
C49   C75   1.424036 A    
C25   C27   1.419088 A    
C15   C56   1.472438 S    
C124  H28   1.084893 S    
C103  C143  1.397548 A    
O15   C15   1.262261 A    
C3    C127  1.446650 S    
C83   C96   1.412213 A    
C112  C120  1.371716 A    
N2    O60   1.301542 A    
C59   C64   1.369214 A    
C137  H33   1.083429 S    
C75   N7    1.449613 S    
C56   C61   1.381284 A    
O47   Zn10  2.004629 S    
O48   C154  1.261518 A    
C24   C38   1.406666 A    
C167  H69   1.107569 S    
O19   C11   1.294660 A    
C168  H71   1.113147 S    
C45   C71   1.434792 A    
C11   C60   1.442303 S    
C131  C139  1.418837 A    
O79   C171  1.411661 S    
O3    Zn3   2.016122 S    
O27   Zn8   2.072991 S    
C8    C132  1.446209 S    
C60   C63   1.370201 A    
N3    O61   1.302348 A    
O32   Zn3   2.072991 S    
C157  H37   1.113486 S    
C90   H10   1.083452 S    
C37   C41   1.414538 A    
C21   C72   1.429095 A    
C139  H35   1.083334 S    
O15   Zn4   2.119912 S    
O25   Zn6   2.072909 S    
O22   C14   1.305045 A    
C73   N5    1.449643 S    
C43   C67   1.401771 A    
C110  C155  1.436005 S    
C53   C61   1.386447 A    
C93   O78   1.389628 S    
C64   H4    1.084950 S    
C172  H84   1.109308 S    
O18   Zn2   2.025922 S    
C79   C87   1.403192 A    
O2    C2    1.254012 A    
C17   C25   1.428550 A    
C88   H8    1.082522 S    
C89   H9    1.082324 S    
O47   C153  1.262315 A    
O75   C167  1.409613 S    
C92   H12   1.083508 S    
C113  C152  1.436762 S    
C134  C142  1.404060 A    
C91   C99   1.406472 A    
C48   C70   1.422803 A    
C18   C75   1.419428 A    
O52   C160  1.410164 S    
O28   C4    1.295057 A    
C159  H44   1.113883 S    
N5    O65   1.301823 A    
C160  H48   1.109197 S    
O29   C5    1.296386 A    
C105  C113  1.412424 A    
O35   Zn12  1.991331 S    
C26   C28   1.409565 A    
C170  H76   1.114800 S    
C16   C55   1.452587 S    
C122  C130  1.371220 A    
C50   C68   1.400899 A    
C158  H42   1.109236 S    
O16   C16   1.259476 A    
C29   O52   1.383269 S    
O1    C1    1.254177 A    
O45   C155  1.262368 A    
O4    Zn4   2.016122 S    
C25   O56   1.377759 S    
C42   C66   1.413891 A    
O5    Zn5   2.016067 S    
C21   C39   1.413780 A    
O35   C151  1.226884 A    
C107  C147  1.398916 A    
O14   Zn1   2.117432 S    
C90   C98   1.405750 A    
C77   C98   1.414123 A    
C46   C72   1.427095 A    
C162  H54   1.109348 S    
O44   C150  1.261978 A    
C29   C31   1.410315 A    
C46   C54   1.437729 A    
C23   C70   1.417469 A    
C18   C26   1.416088 A    
C95   O80   1.388405 S    
C74   N6    1.447323 S    
O11   C11   1.247875 A    
C5    C129  1.445028 S    
C102  C142  1.398155 A    
C83   C147  1.496063 S    
N1    O58   1.299910 A    
O32   C8    1.296092 A    
C140  H36   1.083381 S    
C107  C115  1.411436 A    
C108  C116  1.409631 A    
O45   Zn9   2.008175 S    
C134  H30   1.083373 S    
C13   C54   1.468612 S    
C171  H80   1.110088 S    
O28   Zn7   2.072991 S    
O26   C2    1.297162 A    
O29   Zn2   2.072909 S    
C61   H1    1.083828 S    
C30   O51   1.379935 S    
C111  C154  1.435637 S    
C88   C96   1.415425 A    
C94   O77   1.381320 S    
C89   C97   1.415011 A    
C167  H68   1.113624 S    
O42   Zn12  2.008177 S    
C124  C132  1.370639 A    
N7    O70   1.300633 A    
C123  C131  1.370570 A    
C49   C57   1.431012 A    
C165  H61   1.113557 S    
O19   Zn3   2.029648 S    
C130  C138  1.420422 A    
C81   C89   1.402969 A    
O6    C6    1.254946 A    
O53   C161  1.409874 S    
N3    O62   1.301198 A    
C114  C151  1.436831 S    
C52   C67   1.398543 A    
O44   Zn11  2.004630 S    
C158  H40   1.111055 S    
O26   Zn5   2.072909 S    
N6    O67   1.300311 A    
C52   C60   1.427883 A    
C23   C37   1.407075 A    
C21   C29   1.418890 A    
N4    O63   1.301201 A    
C24   C69   1.421624 A    
C78   C142  1.497322 S    
C41   C65   1.412930 A    
C40   C41   1.405488 A    
C123  H27   1.084960 S    
C82   C146  1.497089 S    
C49   C67   1.396072 A    
O31   Zn4   2.072991 S    
C135  C143  1.403251 A    
C166  H66   1.109255 S    
O56   C164  1.411732 S    
C133  C141  1.403238 A    
O20   Zn4   2.029648 S    
O21   Zn5   2.025922 S    
C14   C53   1.477592 S    
C58   C64   1.375065 A    
C137  C145  1.402081 A    
C91   H11   1.083323 S    
C164  H59   1.113885 S    
O31   C7    1.294871 A    
C62   H2    1.084815 S    
C24   C32   1.410207 A    
O73   C165  1.409484 S    
O17   C9    1.299145 A    
C106  H18   1.083056 S    
C103  C111  1.410817 A    
C104  H16   1.083387 S    
C106  C146  1.398417 A    
C169  H73   1.113666 S    
C170  H78   1.109537 S    
C9    C58   1.444075 S    
C30   C32   1.407244 A    
O38   Zn10  1.989173 S    
O39   Zn10  1.991331 S    
O1    Zn1   2.016067 S    
C78   C86   1.404306 A    
C54   C62   1.374324 A    
C116  C149  1.434705 S    
