data_mof_unit_51911.cif
_audit_creation_date              2012-12-11T15:36:58-0500
_audit_creation_method            fapswitch 2.2
_symmetry_space_group_name_H-M    P1
_symmetry_Int_Tables_number       1
_space_group_crystal_system       triclinic
_cell_length_a                    8.226573
_cell_length_b                    17.298628
_cell_length_c                    19.034154
_cell_angle_alpha                 98.076709
_cell_angle_beta                  94.379678
_cell_angle_gamma                 97.830517
_cell_volume                      2644.21991176

loop_
_atom_site_label
_atom_site_type_symbol
_atom_type_description
_atom_site_fract_x
_atom_site_fract_y
_atom_site_fract_z
_atom_type_partial_charge
Ba1   Ba    Ba6+2 0.162080 0.538580 0.468810 1.683240
Ba2   Ba    Ba6+2 0.648090 0.461410 0.531130 1.737770
C1    C     C_3   0.506914 0.760541 0.236855 -0.376330
C2    C     C_3   0.607765 0.777793 0.510032 -0.016056
C3    C     C_2   0.675818 0.864432 0.515140 -0.094989
C4    C     C_3   0.977715 0.756329 0.320182 0.265885
C5    C     C_2   0.840418 0.888889 0.521751 0.012697
C6    C     C_2   0.953218 0.828560 0.530438 -0.148872
C7    C     C_1   0.890282 0.752876 0.527038 0.064243
C8    C     C_R   0.096294 0.137292 0.529577 -0.190062
C9    C     C_R   0.163975 0.217438 0.539262 -0.013020
C10   C     C_R   0.919071 0.248352 0.477156 0.042882
C11   C     C_R   0.851048 0.168115 0.466772 -0.112355
C12   C     C_3   0.468988 0.726102 0.304047 0.336758
C13   C     C_R   0.935405 0.111238 0.494936 -0.003624
C14   C     C_2   0.908894 0.974603 0.527967 -0.093007
C15   C     C_2   0.858699 0.025100 0.484313 0.208341
C16   C     C_3   0.053957 0.835930 0.302157 -0.038488
C17   C     C_R   0.072443 0.272580 0.515571 -0.250585
C18   C     C_R   0.616173 0.533580 0.301336 -0.253282
C19   C     C_R   0.459505 0.493255 0.276767 0.070975
C20   C     C_R   0.401504 0.487795 0.204856 -0.090240
C21   C     C_R   0.500409 0.522619 0.156988 0.048389
C22   C     C_R   0.659967 0.562119 0.182471 -0.038299
C23   C     C_3   0.568021 0.700926 0.657996 0.301778
C24   C     C_R   0.718378 0.565836 0.254326 0.062521
C25   C     C_R   0.458274 0.574972 0.040932 -0.127350
C26   C     C_R   0.401664 0.563900 0.968395 0.578105
C27   C     C_R   0.327246 0.488850 0.932391 0.021090
C28   C     C_3   0.767430 0.363128 0.308469 0.267599
C29   C     C_R   0.306795 0.424808 0.972238 0.167294
C30   C     C_R   0.366493 0.437398 0.044864 -0.080119
C31   C     C_R   0.441062 0.511902 0.079852 -0.051262
C32   C     C_R   0.114751 0.444316 0.824944 0.440038
C33   C     C_R   0.072228 0.432610 0.750952 -0.103675
C34   C     C_3   0.617693 0.786957 0.691450 -0.364930
C35   C     C_R   0.341243 0.500316 0.733969 -0.007294
C36   C     C_R   0.387559 0.508393 0.807407 -0.228411
C37   C     C_R   0.276152 0.479002 0.853826 -0.047683
C38   C     C_R   0.188205 0.458229 0.705856 0.255447
C39   C     C_3   0.770310 0.340491 0.228321 0.409118
C40   C     C_3   0.046690 0.630366 0.687465 0.270170
C41   C     C_3   0.078083 0.650849 0.768176 -0.355444
C42   C     C_3   0.245757 0.301015 0.368912 0.315267
C43   C     C_3   0.214879 0.212006 0.345561 -0.400469
C44   C     C_3   0.113180 0.976759 0.345753 -0.249274
C45   C     C_3   0.848415 0.241127 0.666760 0.518108
C46   C     C_3   0.930982 0.158962 0.802082 -0.204981
C47   C     C_3   0.599313 0.285476 0.873933 -0.152956
C48   C     C_3   0.574730 0.009988 0.426691 -0.253476
C49   C     C_3   0.099869 0.308751 0.971459 -0.154488
C50   C     C_3   0.812530 0.154392 0.678023 0.685322
C51   C     C_3   0.317662 0.237691 0.703187 0.404934
C52   C     C_3   0.381322 0.229236 0.778755 0.038742
C53   C     C_2   0.740378 0.726666 0.496782 -0.257623
F1    F     F_    0.750826 0.403823 0.193574 -0.743988
F2    F     F_    0.657934 0.137120 0.700807 -0.696773
F3    F     F_    0.416900 0.627462 0.933580 -0.704893
F4    F     F_    0.997998 0.424698 0.868567 -0.723258
F5    F     F_    0.148122 0.447813 0.634446 -0.714419
H1    H     H_    0.344416 0.690034 0.294114 0.082939
H2    H     H_    0.337401 0.314596 0.416513 0.065048
H3    H     H_    0.412601 0.797434 0.222848 0.123873
H4    H     H_    0.120398 0.196601 0.298968 0.119930
H5    H     H_    0.170354 0.181581 0.389417 0.060737
H6    H     H_    0.331024 0.190875 0.330698 0.123055
H7    H     H_    0.563379 0.688331 0.315458 -0.049416
H8    H     H_    0.506170 0.712015 0.191948 0.070054
H9    H     H_    0.681577 0.676864 0.643702 0.019131
H10   H     H_    0.482209 0.697528 0.609380 0.021111
H11   H     H_    0.693934 0.790756 0.742906 0.141003
H12   H     H_    0.669191 0.291341 0.207553 0.027352
H13   H     H_    0.691537 0.819699 0.655780 0.058715
H14   H     H_    0.505999 0.814897 0.701113 0.123448
H15   H     H_    0.630169 0.797523 0.245143 0.120096
H16   H     H_    0.775308 0.246852 0.616716 0.013921
H17   H     H_    0.981367 0.256053 0.660174 -0.251406
H18   H     H_    0.811984 0.117379 0.625426 -0.070415
H19   H     H_    0.212916 0.189902 0.684637 -0.040173
H20   H     H_    0.275290 0.296281 0.704221 -0.072818
H21   H     H_    0.277941 0.228318 0.812781 -0.021849
H22   H     H_    0.037550 0.747842 0.372049 0.091853
H23   H     H_    0.890136 0.321033 0.216924 0.037361
H24   H     H_    0.428771 0.171952 0.777611 0.156049
H25   H     H_    0.084911 0.847460 0.542001 0.098639
H26   H     H_    0.172455 0.095979 0.546823 0.072185
H27   H     H_    0.004303 0.996137 0.571403 0.047055
H28   H     H_    0.590339 0.906823 0.518522 0.079561
H29   H     H_    0.733002 0.151287 0.436071 0.104333
H30   H     H_    0.712597 0.669116 0.463635 0.057573
H31   H     H_    0.126195 0.334063 0.522195 0.128199
H32   H     H_    0.508493 0.539484 0.828460 0.165779
H33   H     H_    0.843793 0.756155 0.324373 -0.025626
H34   H     H_    0.155497 0.608514 0.665889 0.047598
H35   H     H_    0.514172 0.633282 0.066942 0.102756
H36   H     H_    0.280253 0.455435 0.186075 0.087269
H37   H     H_    0.359805 0.387926 0.074115 0.099705
H38   H     H_    0.740914 0.586332 0.146145 0.076157
H39   H     H_    0.662385 0.535859 0.356472 0.052906
H40   H     H_    0.182023 0.832183 0.288635 0.115819
H41   H     H_    0.980669 0.848779 0.254719 0.095033
H42   H     H_    0.645000 0.378485 0.319767 -0.012918
H43   H     H_    0.864493 0.414507 0.327567 0.064319
H44   H     H_    0.117118 0.888083 0.408136 0.220130
H45   H     H_    0.938250 0.583534 0.674170 0.082315
H46   H     H_    0.119630 0.020914 0.394495 0.120026
H47   H     H_    0.025727 0.992065 0.304316 0.129954
H48   H     H_    0.238155 0.979669 0.326948 0.104328
H49   H     H_    0.953765 0.074969 0.715835 0.179921
H50   H     H_    0.034686 0.140069 0.832892 0.081504
H51   H     H_    0.814049 0.131438 0.819628 0.155292
H52   H     H_    0.943083 0.224210 0.813871 0.141442
H53   H     H_    0.473518 0.349009 0.808890 0.190101
H54   H     H_    0.700565 0.335843 0.889346 0.166912
H55   H     H_    0.654116 0.230098 0.867553 0.107740
H56   H     H_    0.191461 0.694791 0.782947 0.161184
H57   H     H_    0.515933 0.284458 0.917054 0.092267
H58   H     H_    0.753912 0.939790 0.397248 0.233424
H59   H     H_    0.489133 0.953321 0.418725 0.130349
H60   H     H_    0.540495 0.042891 0.383147 0.111911
H61   H     H_    0.557438 0.044461 0.478795 0.127239
H62   H     H_    0.226096 0.335758 0.884993 0.201779
H63   H     H_    0.057075 0.248873 0.941311 0.074135
H64   H     H_    0.996340 0.343696 0.970323 0.172807
H65   H     H_    0.135725 0.301599 0.027243 0.089946
H66   H     H_    0.093841 0.597430 0.792205 0.068244
H67   H     H_    0.971794 0.675880 0.790078 0.131942
H68   H     H_    0.128763 0.321227 0.382402 -0.002985
N1    N     N_2   0.057415 0.898662 0.361590 -0.445201
N2    N     N_2   0.937987 0.133453 0.726825 -0.468053
N3    N     N_2   0.510070 0.294194 0.807791 -0.355535
N4    N     N_2   0.743646 0.995273 0.422938 -0.425664
N5    N     N_2   0.238273 0.346496 0.939692 -0.418153
O1    O     O_2   0.166667 0.691630 0.546720 -0.464891
O2    O     O_2   0.731482 0.435759 0.744622 -0.456066
O3    O     O_3   0.802445 0.291763 0.723877 -0.565741
O4    O     O_3   0.893830 0.593690 0.541700 -0.480181
O5    O     O_3   0.426330 0.460710 0.414310 -0.491922
O6    O     O_2   0.638540 0.536570 0.671920 -0.480915
O7    O     O_3   0.488901 0.660147 0.707406 -0.634611
O8    O     O_2   0.497551 0.217413 0.524828 -0.503391
O9    O     O_3   0.443543 0.229365 0.658331 -0.527212
O10   O     O_3   0.390350 0.644650 0.417800 -0.492337
O11   O     O_2   0.277447 0.778546 0.460646 -0.512939
O12   O     O_3   0.304092 0.336916 0.312465 -0.636490
O13   O     O_3   0.018122 0.698624 0.659983 -0.641219
O14   O     O_3   0.474066 0.787716 0.361000 -0.613753
O15   O     O_2   0.171750 0.463380 0.328050 -0.465666
O16   O     O_3   0.965290 0.605410 0.380210 -0.500922
O17   O     O_2   0.047422 0.550077 0.251894 -0.442850
O18   O     O_3   0.004272 0.696960 0.265748 -0.627801
O19   O     O_2   0.643630 0.308330 0.453260 -0.464038
O20   O     O_3   0.916470 0.406310 0.458240 -0.473149
O21   O     O_3   0.419940 0.355340 0.582140 -0.439550
O22   O     O_3   0.795289 0.297406 0.340166 -0.688051
O23   O     O_3   0.383960 0.539280 0.585630 -0.411593
O24   O     O_3   0.845010 0.394580 0.619730 -0.425773
P1    P     P_3+3 0.992230 0.679190 0.566750 0.994810
P2    P     P_3+3 0.339610 0.439630 0.337240 0.991615
P3    P     P_3+3 0.933253 0.604286 0.287896 0.969092
P4    P     P_3+3 0.818060 0.320800 0.433200 0.981531
P5    P     P_3+3 0.862206 0.389714 0.711093 1.108218
P6    P     P_3+3 0.436182 0.747287 0.438708 0.943156
P7    P     P_3+3 0.460899 0.558775 0.676093 1.031915
P8    P     P_3+3 0.379236 0.252682 0.575406 0.990746

loop_
_geom_bond_atom_site_label_1
_geom_bond_atom_site_label_2
_ccdc_geom_bond_type
Ba1   P1    S    
C46   H50   S    
C4    H22   S    
C45   O3    S    
C49   H63   S    
C25   H35   S    
C1    H8    S    
C29   N5    S    
C44   N1    S    
C52   H24   S    
C5    C6    S    
H62   N5    S    
O3    P5    S    
C51   C52   S    
C25   C31   A    
C52   N3    S    
C47   N3    S    
C9    C17   A    
O17   P3    D    
O4    P1    S    
C47   H55   S    
C48   H60   S    
Ba2   O6    S    
C6    H25   S    
O6    P7    D    
C51   H19   S    
C22   C24   A    
C45   H16   S    
Ba1   Ba2   S    
C53   H30   S    
C8    C13   A    
C36   C37   A    
C32   C33   A    
C39   H23   S    
C36   H32   S    
C30   H37   S    
Ba2   P4    S    
C51   O9    S    
C10   P4    S    
C3    H28   S    
O5    P2    S    
C47   H57   S    
C14   C15   D    
C21   C31   S    
C44   H48   S    
C28   H43   S    
C14   H27   S    
C21   C22   A    
O21   P8    S    
Ba1   O16   S    
C7    C53   D    
C1    H15   S    
O19   P4    D    
C34   H11   S    
C47   H54   S    
Ba2   O21   S    
C19   C20   A    
C15   N4    S    
C49   H64   S    
C19   P2    S    
C46   N2    S    
C48   H61   S    
C16   H40   S    
C50   H18   S    
C41   H66   S    
O10   P6    S    
O16   P3    S    
C16   H41   S    
Ba2   O19   S    
C4    C16   S    
C33   P5    S    
C32   C37   A    
C49   H65   S    
Ba1   P2    S    
C23   O7    S    
H58   N4    S    
C50   F2    S    
C41   H67   S    
C3    C5    D    
C51   H20   S    
C6    C7    D    
O24   P5    S    
C42   H2    S    
C12   H1    S    
C12   O14   S    
O22   P4    S    
C48   H59   S    
O20   P4    S    
O15   P2    D    
Ba2   O5    S    
Ba1   O23   S    
C39   F1    S    
C35   C36   A    
Ba1   O10   S    
C41   H56   S    
C29   C30   A    
C12   H7    S    
C4    H33   S    
C44   H47   S    
C28   H42   S    
C42   O12   S    
C2    P6    S    
C28   C39   S    
C10   C11   A    
Ba1   O20   S    
C1    C12   S    
C48   N4    S    
C35   P7    S    
C4    O18   S    
C28   O22   S    
C46   H52   S    
Ba2   O20   S    
C1    H3    S    
H44   N1    S    
C39   H12   S    
C2    C53   S    
C43   H5    S    
C32   F4    S    
O2    P5    D    
C22   H38   S    
C23   H9    S    
C40   C41   S    
C45   H17   S    
Ba1   O1    S    
C26   C27   A    
H49   N2    S    
Ba1   O4    S    
C42   C43   S    
C24   P3    S    
C27   C37   S    
C13   C15   S    
C42   H68   S    
Ba2   O23   S    
H53   N3    S    
C11   H29   S    
C40   H34   S    
Ba2   O4    S    
C20   H36   S    
C5    C14   S    
C2    C3    S    
Ba1   O15   S    
C45   C50   S    
O13   P1    S    
C26   F3    S    
C35   C38   A    
C43   H4    S    
O8    P8    D    
C50   N2    S    
O18   P3    S    
C11   C13   A    
C33   C38   A    
O11   P6    D    
O14   P6    S    
C30   C31   A    
O9    P8    S    
C49   N5    S    
C8    H26   S    
C18   H39   S    
C18   C24   A    
C7    P1    S    
Ba2   O24   S    
O12   P2    S    
C44   H46   S    
C10   C17   A    
O1    P1    D    
C40   H45   S    
C17   H31   S    
C8    C9    A    
C23   C34   S    
C38   F5    S    
C46   H51   S    
C18   C19   A    
O23   P7    S    
C27   C29   A    
C43   H6    S    
C9    P8    S    
C20   C21   A    
C16   N1    S    
C23   H10   S    
C34   H13   S    
O7    P7    S    
C34   H14   S    
Ba1   O5    S    
C52   H21   S    
C25   C26   A    
C40   O13   S    
