data_mof_unit_57575.cif
_audit_creation_date              2012-12-10T16:51:31-0500
_audit_creation_method            fapswitch 2.2
_symmetry_space_group_name_H-M    P1
_symmetry_Int_Tables_number       1
_space_group_crystal_system       triclinic
_cell_length_a                    7.861405
_cell_length_b                    8.562708
_cell_length_c                    12.094839
_cell_angle_alpha                 92.824179
_cell_angle_beta                  101.222052
_cell_angle_gamma                 94.022863
_cell_volume                      794.979895893

loop_
_atom_site_label
_atom_site_type_symbol
_atom_type_description
_atom_site_fract_x
_atom_site_fract_y
_atom_site_fract_z
_atom_type_partial_charge
Br1   Br    Br    0.525577 0.705793 0.628794 -0.418818
C1    C     C_R   0.044501 0.794569 0.497571 0.977069
C2    C     C_R   0.159353 0.504083 0.832214 -0.119664
C3    C     C_2   0.067841 0.958320 0.496564 -0.382526
C4    C     C_R   0.105912 0.503695 0.710259 0.861187
C5    C     C_2   0.932925 0.041839 0.505111 -0.377926
C6    C     C_R   0.955749 0.205476 0.502992 0.937205
C7    C     C_R   0.892521 0.488405 0.289670 0.849518
C8    C     C_R   0.810129 0.289349 0.000912 -0.184819
C9    C     C_R   0.830116 0.457832 0.169548 -0.064146
C10   C     C_R   0.074078 0.595007 0.900678 -0.167349
C11   C     C_R   0.146053 0.625896 0.014425 -0.129478
C12   C     C_R   0.397144 0.485125 0.989783 0.085227
C13   C     C_R   0.307873 0.574639 0.058712 -0.198766
C14   C     C_R   0.310981 0.433977 0.879650 0.085636
C15   C     C_R   0.569243 0.445017 0.026231 0.084305
C16   C     C_R   0.641834 0.334264 0.961309 0.160956
C17   C     C_R   0.543921 0.267843 0.859358 -0.221360
C18   C     C_R   0.380265 0.317081 0.818760 -0.177844
C19   C     C_R   0.672223 0.514401 0.125135 -0.262596
C20   C     C_R   0.902701 0.348159 0.106666 -0.185435
H1    H     H_    0.025976 0.303102 0.141192 0.157304
H2    H     H_    0.307698 0.261601 0.739665 0.166469
H3    H     H_    0.195116 0.009521 0.488522 0.189553
H4    H     H_    0.805734 0.990647 0.513335 0.201552
H5    H     H_    0.469298 0.372542 0.417464 0.155291
H6    H     H_    0.594829 0.179725 0.810115 0.162129
H7    H     H_    0.866373 0.203999 0.952623 0.141676
H8    H     H_    0.628629 0.608128 0.172909 0.149264
H9    H     H_    0.955063 0.646662 0.865491 0.176103
H10   H     H_    0.357852 0.603335 0.147481 0.140159
H11   H     H_    0.079401 0.694748 0.067569 0.146986
N1    N     N_2   0.434800 0.456690 0.470850 -0.123917
N2    N     N_2   0.565200 0.543310 0.529150 0.058617
O1    O     O_R   0.893060 0.738880 0.507150 -0.593330
O2    O     O_R   0.172250 0.711130 0.488470 -0.579728
O3    O     O_R   0.944700 0.520730 0.667600 -0.599212
O4    O     O_R   0.223890 0.492980 0.648920 -0.570640
O5    O     O_R   0.827750 0.288870 0.511530 -0.630415
O6    O     O_R   0.106940 0.261120 0.492850 -0.625118
O7    O     O_R   0.776110 0.507020 0.351080 -0.628244
O8    O     O_R   0.055300 0.479270 0.332400 -0.626067
Zn1   Zn    Zn3+2 0.813580 0.518530 0.512470 0.997166
Zn2   Zn    Zn3+2 0.186420 0.481470 0.487530 0.984028

loop_
_geom_bond_atom_site_label_1
_geom_bond_atom_site_label_2
_ccdc_geom_bond_type
C1    O1    A    
O3    Zn1   S    
C1    C3    S    
C10   C11   A    
O4    Zn2   S    
C5    C6    S    
C4    O3    A    
O1    Zn1   S    
H5    N1    S    
C18   H2    S    
C15   C19   A    
C13   H10   S    
C6    O6    A    
N1    N2    D    
C11   C13   A    
C12   C13   A    
C11   H11   S    
C14   C18   A    
O7    Zn1   S    
C8    C20   A    
O8    Zn2   S    
C8    C16   A    
C4    O4    A    
C7    O8    A    
Br1   N2    S    
C16   C17   A    
C19   H8    S    
C12   C14   A    
C9    C20   A    
C3    H3    S    
O2    Zn2   S    
C5    H4    S    
C2    C10   A    
N2    Zn1   S    
O6    Zn2   S    
C2    C14   A    
C7    O7    A    
C10   H9    S    
C3    C5    D    
C17   C18   A    
C12   C15   A    
C1    O2    A    
C6    O5    A    
O5    Zn1   S    
C20   H1    S    
N1    Zn2   S    
C7    C9    S    
C17   H6    S    
C8    H7    S    
C9    C19   A    
C15   C16   A    
C2    C4    S    
