data_mof_unit_21396.cif
_audit_creation_date              2012-12-10T17:39:07-0500
_audit_creation_method            fapswitch 2.2
_symmetry_space_group_name_H-M    P1
_symmetry_Int_Tables_number       1
_space_group_crystal_system       triclinic
_cell_length_a                    11.928852
_cell_length_b                    12.904621
_cell_length_c                    23.478018
_cell_angle_alpha                 89.666309
_cell_angle_beta                  86.056761
_cell_angle_gamma                 94.234567
_cell_volume                      3595.52841717

loop_
_atom_site_label
_atom_site_type_symbol
_atom_type_description
_atom_site_fract_x
_atom_site_fract_y
_atom_site_fract_z
_atom_type_partial_charge
C1    C     C_R   0.523635 0.700890 0.501290 0.925979
C2    C     C_R   0.409963 0.480256 0.295198 -0.220451
C3    C     C_R   0.423999 0.523142 0.770308 0.425708
C4    C     C_R   0.420076 0.482109 0.234994 0.416989
C5    C     C_R   0.524625 0.493099 0.791745 0.043607
C6    C     C_R   0.528440 0.500137 0.206801 0.049021
C7    C     C_R   0.460295 0.187498 0.507733 -0.126871
C8    C     C_R   0.540987 0.813102 0.504811 -0.146499
C9    C     C_R   0.652403 0.976765 0.488604 -0.097733
C10   C     C_R   0.352696 0.026006 0.534886 -0.096714
C11   C     C_R   0.647177 0.868196 0.493107 -0.060682
C12   C     C_R   0.476557 0.299272 0.502212 0.938888
C13   C     C_R   0.360272 0.135167 0.532495 -0.132925
C14   C     C_R   0.445935 0.865625 0.520391 -0.199880
C15   C     C_R   0.552384 0.133354 0.489698 -0.148309
C16   C     C_R   0.499658 0.495807 0.610993 0.959859
C17   C     C_R   0.500577 0.503610 0.389014 0.954884
C18   C     C_R   0.449304 0.972765 0.517969 0.086979
C19   C     C_R   0.551932 0.027849 0.498654 0.091644
C20   C     C_R   0.951471 0.393944 0.450884 -0.126079
C21   C     C_R   0.046570 0.595064 0.555165 -0.122335
C22   C     C_R   0.835697 0.408240 0.454410 0.093496
C23   C     C_R   0.612447 0.459528 0.754887 -0.172148
C24   C     C_R   0.163499 0.588475 0.547410 0.052286
C25   C     C_R   0.858242 0.541667 0.522361 0.068284
C26   C     C_R   0.141419 0.454421 0.479733 0.020132
C27   C     C_R   0.975390 0.531929 0.521343 -0.005948
C28   C     C_R   0.023166 0.458416 0.483896 -0.001257
C29   C     C_R   0.539282 0.403450 0.119330 0.627474
C30   C     C_R   0.561977 0.587321 0.877534 0.617870
C31   C     C_R   0.553890 0.589310 0.116504 0.709005
C32   C     C_R   0.524019 0.402712 0.881269 0.709923
C33   C     C_R   0.564849 0.589794 0.057100 -0.029464
C34   C     C_R   0.623704 0.525485 0.237688 -0.176271
C35   C     C_R   0.536239 0.401033 0.939793 -0.034296
C36   C     C_R   0.557081 0.494655 0.028181 -0.002843
C37   C     C_R   0.556193 0.495544 0.968236 -0.004959
C38   C     C_R   0.547109 0.399088 0.059168 -0.093823
C39   C     C_R   0.572139 0.590801 0.937016 -0.094097
C40   C     C_R   0.583519 0.683519 0.026482 -0.160393
C41   C     C_R   0.529539 0.306692 0.969946 -0.156542
C42   C     C_R   0.592232 0.685117 0.966913 -0.049546
C43   C     C_R   0.539782 0.304132 0.028777 -0.057220
C44   C     C_2   0.992309 0.310290 0.413468 0.909947
C45   C     C_R   0.592719 0.441568 0.697550 0.308958
C46   C     C_2   0.003067 0.665032 0.600108 0.978977
C47   C     C_2   0.625956 0.786610 0.938620 1.032730
C48   C     C_2   0.546205 0.200673 0.055510 1.038449
C49   C     C_2   0.727362 0.449689 0.774943 1.058163
C50   C     C_2   0.740738 0.523931 0.210565 1.062303
C51   C     C_2   0.321776 0.578740 0.687793 1.049058
C52   C     C_2   0.300250 0.446523 0.325158 1.062174
C53   C     C_2   0.265582 0.193139 0.557213 1.008241
C54   C     C_2   0.753497 0.815486 0.492014 0.991514
C55   C     C_2   0.763727 0.036114 0.476773 0.908270
C56   C     C_R   0.607398 0.546775 0.295927 0.307744
C57   C     C_2   0.246209 0.969487 0.558246 0.956381
C58   C     C_R   0.501204 0.486705 0.673803 -0.312429
C59   C     C_R   0.504490 0.511885 0.326044 -0.322508
C60   C     C_R   0.416483 0.527818 0.710717 -0.209903
H1    H     H_    0.594956 0.756261 0.049015 0.214416
H2    H     H_    0.887903 0.686991 0.665167 0.380946
H3    H     H_    0.735017 0.869540 0.883331 0.374915
H4    H     H_    0.632453 0.108403 0.103472 0.375592
H5    H     H_    0.824496 0.405044 0.836364 0.373409
H6    H     H_    0.848852 0.548877 0.141029 0.372668
H7    H     H_    0.525302 0.249745 0.639157 0.365986
H8    H     H_    0.582794 0.746011 0.352219 0.357023
H9    H     H_    0.255859 0.713156 0.668912 0.359476
H10   H     H_    0.151481 0.489041 0.359826 0.341939
H11   H     H_    0.260837 0.549405 0.907913 0.397934
H12   H     H_    0.519917 0.233872 0.947332 0.220060
H13   H     H_    0.255070 0.468747 0.107736 0.397882
H14   H     H_    0.214093 0.300044 0.613662 0.380324
H15   H     H_    0.880591 0.755522 0.445170 0.356643
H16   H     H_    0.906133 0.058398 0.425393 0.374443
H17   H     H_    0.131890 0.945876 0.625325 0.399411
H18   H     H_    0.182685 0.401810 0.451180 0.178367
H19   H     H_    0.817917 0.597884 0.548839 0.188127
H20   H     H_    0.219951 0.636738 0.571994 0.150819
H21   H     H_    0.779023 0.359911 0.429907 0.150030
H22   H     H_    0.626404 0.174907 0.468987 0.171080
H23   H     H_    0.368267 0.821550 0.534367 0.187105
H24   H     H_    0.091733 0.191029 0.402650 0.378389
N1    N     N_R   0.541477 0.497268 0.145980 -0.317932
N2    N     N_R   0.537441 0.494645 0.851723 -0.321395
N3    N     N_R   0.207800 0.519350 0.510590 -0.120814
N4    N     N_R   0.792200 0.480650 0.489410 -0.115033
O1    O     O_R   0.421690 0.658830 0.502820 -0.629513
O2    O     O_2   0.571874 0.675053 0.845589 -0.481956
O3    O     O_2   0.555199 0.679956 0.145015 -0.497713
O4    O     O_2   0.498912 0.313323 0.853672 -0.487370
O5    O     O_2   0.952907 0.295453 0.367214 -0.547607
O6    O     O_R   0.071622 0.245337 0.431890 -0.747371
O7    O     O_2   0.053405 0.749287 0.607586 -0.605574
O8    O     O_R   0.908108 0.632840 0.635851 -0.727403
O9    O     O_2   0.575260 0.862861 0.951838 -0.559212
O10   O     O_R   0.719381 0.796182 0.899071 -0.724556
O11   O     O_2   0.475462 0.130144 0.046721 -0.548719
O12   O     O_R   0.578310 0.341170 0.497180 -0.598101
O13   O     O_R   0.636465 0.182371 0.088259 -0.723568
O14   O     O_2   0.810097 0.480528 0.744126 -0.512664
O15   O     O_R   0.742194 0.406317 0.828307 -0.791408
O16   O     O_2   0.815248 0.493910 0.238453 -0.510591
O17   O     O_R   0.766611 0.554657 0.153739 -0.797593
O18   O     O_2   0.771276 0.401363 0.626665 -0.193214
O19   O     O_2   0.712633 0.271490 0.700897 -0.222965
O20   O     O_3   0.590339 0.280989 0.614816 -0.518144
O21   O     O_2   0.790077 0.579319 0.356896 -0.217247
O22   O     O_2   0.766983 0.707331 0.282278 -0.212308
O23   O     O_R   0.609320 0.646410 0.496030 -0.600518
O24   O     O_3   0.636014 0.710102 0.374623 -0.517620
O25   O     O_2   0.239705 0.525983 0.672910 -0.570018
O26   O     O_R   0.326012 0.687092 0.684385 -0.751748
O27   O     O_2   0.273032 0.353938 0.332313 -0.582225
O28   O     O_R   0.227214 0.521133 0.343760 -0.729772
O29   O     O_2   0.320130 0.677776 0.821651 -0.214726
O30   O     O_2   0.199242 0.527096 0.794802 -0.221851
O31   O     O_3   0.312784 0.509573 0.883398 -0.565576
O32   O     O_2   0.274802 0.339471 0.192871 -0.216275
O33   O     O_2   0.197818 0.501737 0.224245 -0.210439
O34   O     O_R   0.390680 0.353590 0.503970 -0.621254
O35   O     O_3   0.316633 0.503738 0.128391 -0.567608
O36   O     O_2   0.171393 0.177382 0.540072 -0.540422
O37   O     O_R   0.284459 0.264792 0.600621 -0.763387
O38   O     O_2   0.792987 0.794893 0.537032 -0.632696
O39   O     O_R   0.809222 0.791586 0.440019 -0.647197
O40   O     O_2   0.794943 0.104209 0.509406 -0.547581
O41   O     O_R   0.832676 0.013282 0.428622 -0.718409
O42   O     O_2   0.192390 0.910725 0.527807 -0.566563
O43   O     O_R   0.206589 0.986142 0.614627 -0.737029
O44   O     O_R   0.406170 0.506240 0.587240 -0.614166
O45   O     O_R   0.593830 0.493760 0.412760 -0.567384
O46   O     O_R   0.593790 0.493820 0.580450 -0.560271
O47   O     O_R   0.406210 0.506180 0.419550 -0.619232
O48   O     O_2   0.524818 0.315925 0.151417 -0.484767
S1    S     S_3+6 0.671285 0.347618 0.659892 0.126770
S2    S     S_3+6 0.705466 0.636819 0.327167 0.124087
S3    S     S_3+6 0.310560 0.561297 0.817612 0.095023
S4    S     S_3+6 0.298410 0.455334 0.195317 0.098514
Zn1   Zn    Zn3+2 0.374720 0.508290 0.504530 1.018198
Zn2   Zn    Zn3+2 0.625280 0.491710 0.495470 1.086319

loop_
_geom_bond_atom_site_label_1
_geom_bond_atom_site_label_2
_ccdc_geom_bond_type
C34   C56   A    
C23   C45   A    
H2    O8    S    
C1    C8    S    
C14   C18   A    
C30   O2    S    
C16   O46   A    
C15   C19   A    
C54   O38   D    
O45   Zn2   S    
C26   H18   S    
C47   O10   S    
C31   N1    A    
O33   S4    D    
C36   C37   A    
C35   C37   A    
H24   O6    S    
H3    O10   S    
H8    O24   S    
O20   S1    S    
H7    O20   S    
C23   C49   S    
H14   O37   S    
C4    S4    S    
C58   C60   A    
C33   C36   A    
C18   C19   A    
H17   O43   S    
C44   O5    D    
O23   Zn2   S    
C9    C19   A    
C46   O7    D    
C26   N3    A    
H13   O35   S    
C29   C38   A    
C17   O47   A    
C50   O17   S    
C8    C14   A    
C31   C33   A    
O32   S4    D    
C22   N4    A    
C30   N2    A    
C43   C48   S    
C29   N1    A    
C53   O37   S    
C3    C60   A    
C40   C42   A    
C21   C27   A    
C41   C43   A    
O29   S3    D    
C14   H23   S    
C16   O44   A    
N4    Zn2   S    
C20   C44   S    
C24   H20   S    
C39   C42   A    
C13   C53   S    
C52   O28   S    
H4    O13   S    
H9    O26   S    
C45   C58   A    
C34   C50   S    
C33   C40   A    
C51   O26   S    
C32   C35   A    
O24   S2    S    
C57   O42   D    
O22   S2    D    
C10   C57   S    
C4    C6    A    
C49   O14   D    
C2    C59   A    
O18   S1    D    
C16   C58   S    
C7    C15   A    
C20   C28   A    
H10   O28   S    
O35   S4    S    
C53   O36   D    
C25   N4    A    
C40   H1    S    
C6    C34   A    
O21   S2    D    
O19   S1    D    
C2    C4    A    
C22   H21   S    
O46   Zn2   S    
C56   S2    S    
H16   O41   S    
C5    C23   A    
O47   Zn1   S    
C32   N2    A    
C45   S1    S    
C46   O8    S    
C51   O25   D    
N3    Zn1   S    
C9    C11   A    
C11   C54   S    
C2    C52   S    
C17   C59   S    
C41   H12   S    
C9    C55   S    
C5    N2    S    
C20   C22   A    
C31   O3    S    
C17   O45   A    
C7    C12   S    
C3    S3    S    
H5    O15   S    
H6    O17   S    
O30   S3    D    
C15   H22   S    
C21   C46   S    
C52   O27   D    
O44   Zn1   S    
C48   O11   D    
C1    O1    A    
C25   H19   S    
C57   O43   S    
C3    C5    A    
C10   C13   A    
C49   O15   S    
C25   C27   A    
C54   O39   S    
C26   C28   A    
C47   O9    D    
C56   C59   A    
H11   O31   S    
O31   S3    S    
C55   O41   S    
C38   C43   A    
C37   C39   A    
O12   Zn2   S    
C1    O23   A    
C32   O4    S    
C10   C18   A    
C8    C11   A    
O1    Zn1   S    
C48   O13   S    
C36   C38   A    
C30   C39   A    
H15   O39   S    
C42   C47   S    
C35   C41   A    
C24   N3    A    
C12   O12   A    
C44   O6    S    
C7    C13   A    
C29   O48   S    
C12   O34   A    
C55   O40   D    
C21   C24   A    
C6    N1    S    
C27   C28   A    
C51   C60   S    
O34   Zn1   S    
C50   O16   D    
