data_mof_unit_35454.cif
_audit_creation_date              2013-03-05T15:40:54-0500
_audit_creation_method            fapswitch 2.2
_symmetry_space_group_name_H-M    P1
_symmetry_Int_Tables_number       1
_space_group_crystal_system       triclinic
_cell_length_a                    27.910801
_cell_length_b                    18.713572
_cell_length_c                    16.665261
_cell_angle_alpha                 89.921194
_cell_angle_beta                  63.154237
_cell_angle_gamma                 89.859109
_cell_volume                      7766.30367752

loop_
_atom_site_label
_atom_site_type_symbol
_atom_site_description
_atom_site_fract_x
_atom_site_fract_y
_atom_site_fract_z
_atom_type_partial_charge
O1    O     O_R   0.255040 0.869590 0.478480 -0.579204
O2    O     O_R   0.744960 0.130410 0.521520 -0.566940
O3    O     O_R   0.744960 0.869590 0.521520 -0.577380
O4    O     O_R   0.255040 0.130410 0.478480 -0.565795
O5    O     O_R   0.755040 0.369590 0.478480 -0.578318
O6    O     O_R   0.244960 0.630410 0.521520 -0.565312
O7    O     O_R   0.244960 0.369590 0.521520 -0.577973
O8    O     O_R   0.755040 0.630410 0.478480 -0.565547
O9    O     O_R   0.182050 0.796550 0.624440 -0.587926
O10   O     O_R   0.817950 0.203450 0.375560 -0.576354
O11   O     O_R   0.817950 0.796550 0.375560 -0.588120
O12   O     O_R   0.182050 0.203450 0.624440 -0.573748
O13   O     O_R   0.682050 0.296550 0.624440 -0.576164
O14   O     O_R   0.317950 0.703450 0.375560 -0.574038
O15   O     O_R   0.317950 0.296550 0.375560 -0.589425
O16   O     O_R   0.682050 0.703450 0.624440 -0.572128
Cu1   Cu    Cu3+1 0.209920 0.785290 0.495070 0.981807
Cu2   Cu    Cu3+1 0.790080 0.214710 0.504930 1.016052
Cu3   Cu    Cu3+1 0.790080 0.785290 0.504930 0.982416
Cu4   Cu    Cu3+1 0.209920 0.214710 0.495070 1.015736
Cu5   Cu    Cu3+1 0.709920 0.285290 0.495070 0.983078
Cu6   Cu    Cu3+1 0.290080 0.714710 0.504930 1.015338
Cu7   Cu    Cu3+1 0.290080 0.285290 0.504930 0.988458
Cu8   Cu    Cu3+1 0.709920 0.714710 0.495070 1.019578
C1    C     C_R   0.296680 0.732099 0.327952 0.798651
C2    C     C_R   0.709211 0.279034 0.667939 0.817991
C3    C     C_R   0.703353 0.732024 0.672018 0.798386
C4    C     C_R   0.290810 0.278976 0.332047 0.800892
C5    C     C_R   0.796667 0.232073 0.327947 0.780761
C6    C     C_R   0.209198 0.779014 0.667957 0.805272
C7    C     C_R   0.203347 0.232034 0.672009 0.797433
C8    C     C_R   0.790781 0.779028 0.332078 0.802221
O17   O     O_R   0.250530 0.763330 0.367210 -0.583498
O18   O     O_R   0.749470 0.236670 0.632790 -0.575659
O19   O     O_R   0.749470 0.763330 0.632790 -0.583043
O20   O     O_R   0.250530 0.236670 0.367210 -0.579186
O21   O     O_R   0.750530 0.263330 0.367210 -0.600689
O22   O     O_R   0.249470 0.736670 0.632790 -0.579059
O23   O     O_R   0.249470 0.263330 0.632790 -0.581628
O24   O     O_R   0.750530 0.736670 0.367210 -0.578942
O25   O     O_R   0.177260 0.690030 0.513710 -0.596825
O26   O     O_R   0.822740 0.309970 0.486290 -0.607648
O27   O     O_R   0.822740 0.690030 0.486290 -0.595945
O28   O     O_R   0.177260 0.309970 0.513710 -0.606895
O29   O     O_R   0.677260 0.190030 0.513710 -0.593389
O30   O     O_R   0.322740 0.809970 0.486290 -0.609333
O31   O     O_R   0.322740 0.190030 0.486290 -0.589345
O32   O     O_R   0.677260 0.809970 0.513710 -0.604726
C9    C     C_R   0.196570 0.631674 0.527541 0.821853
C10   C     C_R   0.803458 0.368305 0.472324 0.784667
C11   C     C_R   0.803489 0.631720 0.472178 0.820203
C12   C     C_R   0.196513 0.368279 0.527754 0.782445
C13   C     C_R   0.700601 0.131067 0.513616 0.826389
C14   C     C_R   0.303302 0.868281 0.472448 0.785260
C15   C     C_R   0.303819 0.131866 0.470665 0.816118
C16   C     C_R   0.697008 0.868580 0.525497 0.782284
H1    H     H_    0.530506 0.758906 0.534663 0.169027
H2    H     H_    0.492808 0.237264 0.381785 0.148142
H3    H     H_    0.461480 0.755574 0.482070 0.172050
H4    H     H_    0.577900 0.234987 0.391597 0.150863
H5    H     H_    0.034227 0.255236 0.528064 0.168034
H6    H     H_    0.965605 0.744848 0.471547 0.149195
H7    H     H_    0.965860 0.255029 0.474101 0.168698
H8    H     H_    0.035323 0.745061 0.522517 0.149324
C17   C     C_R   0.041253 0.629657 0.525057 0.090750
C18   C     C_R   0.959336 0.370363 0.472869 0.074327
C19   C     C_R   0.959401 0.629446 0.471149 0.091450
C20   C     C_R   0.040764 0.370575 0.527813 0.074586
C21   C     C_R   0.570535 0.124447 0.434603 0.093236
C22   C     C_R   0.460368 0.870235 0.464974 0.072471
C23   C     C_R   0.473648 0.126342 0.419820 0.096691
C24   C     C_R   0.543450 0.873072 0.515353 0.075573
C25   C     C_R   0.020152 0.694413 0.512287 -0.177795
C26   C     C_R   0.980657 0.305677 0.485168 -0.022698
C27   C     C_R   0.980683 0.694291 0.482649 -0.177447
C28   C     C_R   0.019446 0.305796 0.516320 -0.022996
C29   C     C_R   0.554034 0.186718 0.406583 -0.177726
C30   C     C_R   0.479042 0.806418 0.485204 -0.030584
C31   C     C_R   0.505497 0.188014 0.400775 -0.179348
C32   C     C_R   0.518286 0.808337 0.515230 -0.020177
C33   C     C_R   0.979026 0.564670 0.486798 0.036273
C34   C     C_R   0.021324 0.435325 0.511748 0.040800
C35   C     C_R   0.021515 0.564763 0.510504 0.036565
C36   C     C_R   0.978925 0.435231 0.487812 0.041130
C37   C     C_R   0.491785 0.062952 0.442448 0.036512
C38   C     C_R   0.527819 0.936106 0.487892 0.041423
C39   C     C_R   0.539269 0.062563 0.452958 0.037776
C40   C     C_R   0.483679 0.935318 0.468724 0.043498
C41   C     C_R   0.463536 0.999291 0.451461 -0.030151
C42   C     C_R   0.555964 0.999767 0.479929 -0.029989
C43   C     C_R   0.956963 0.499898 0.476857 -0.029945
C44   C     C_R   0.043390 0.500081 0.521693 -0.030055
C45   C     C_R   0.389212 0.933698 0.446975 0.043100
C46   C     C_R   0.631493 0.063501 0.482959 0.046062
C47   C     C_R   0.617683 0.936319 0.523683 0.044860
C48   C     C_R   0.391309 0.065000 0.438416 0.050074
C49   C     C_R   0.888103 0.434182 0.454495 0.044276
C50   C     C_R   0.112110 0.565765 0.544489 0.050298
C51   C     C_R   0.111932 0.434490 0.545532 0.043594
C52   C     C_R   0.888189 0.565459 0.453692 0.049393
C53   C     C_R   0.336068 0.934273 0.455071 -0.102692
C54   C     C_R   0.674172 0.064410 0.508029 -0.113833
C55   C     C_R   0.667007 0.935553 0.530228 -0.104020
C56   C     C_R   0.336876 0.065389 0.452000 -0.114032
C57   C     C_R   0.836192 0.434418 0.456803 -0.103382
C58   C     C_R   0.163870 0.565532 0.542782 -0.113623
C59   C     C_R   0.163783 0.434533 0.543264 -0.103311
C60   C     C_R   0.836234 0.565429 0.456419 -0.113293
C61   C     C_R   0.311061 0.999958 0.457942 -0.247226
C62   C     C_R   0.692216 0.000269 0.527981 -0.252733
C63   C     C_R   0.811782 0.499978 0.456829 -0.249796
C64   C     C_R   0.188191 0.499972 0.543054 -0.250012
H9    H     H_    0.269751 0.000174 0.468831 0.198389
H10   H     H_    0.727502 0.000411 0.539343 0.199933
H11   H     H_    0.771780 0.500065 0.461546 0.199065
H12   H     H_    0.228096 0.499879 0.538746 0.199099
C65   C     C_R   0.414583 0.999396 0.445326 0.075538
C66   C     C_R   0.601595 0.000012 0.496150 0.074045
C67   C     C_R   0.911101 0.499833 0.461131 0.074218
C68   C     C_R   0.089141 0.500120 0.537751 0.074042
C69   C     C_R   0.584724 0.875205 0.540474 -0.191299
C70   C     C_R   0.423910 0.127101 0.417499 -0.223143
C71   C     C_R   0.418041 0.870008 0.442749 -0.191011
C72   C     C_R   0.617801 0.123151 0.444232 -0.221575
C73   C     C_R   0.082248 0.371308 0.552577 -0.189000
C74   C     C_R   0.917835 0.628665 0.446601 -0.220523
C75   C     C_R   0.917714 0.370894 0.448396 -0.189204
C76   C     C_R   0.082649 0.629083 0.550039 -0.221185
H13   H     H_    0.589458 0.828697 0.574465 0.185086
H14   H     H_    0.412294 0.175988 0.396532 0.170508
H15   H     H_    0.409339 0.819226 0.422347 0.189657
H16   H     H_    0.643833 0.168689 0.418083 0.176873
H17   H     H_    0.089748 0.321818 0.577955 0.187107
H18   H     H_    0.910247 0.678144 0.421313 0.176845
H19   H     H_    0.910128 0.321137 0.423961 0.187912
H20   H     H_    0.090029 0.678832 0.574737 0.177805
C77   C     C_R   0.248115 0.818229 0.930214 -0.006646
C78   C     C_R   0.805427 0.277778 0.025892 -0.006035
C79   C     C_R   0.751957 0.818180 0.069632 -0.006626
C80   C     C_R   0.194788 0.277276 0.973863 -0.006122
C81   C     C_R   0.748129 0.318281 0.930164 -0.006522
C82   C     C_R   0.305441 0.777769 0.025923 -0.006194
C83   C     C_R   0.252057 0.317963 0.069490 -0.006468
C84   C     C_R   0.694719 0.777419 0.973974 -0.006240
C85   C     C_R   0.298890 0.784869 0.883629 -0.010831
C86   C     C_R   0.762583 0.327185 0.065052 -0.013782
C87   C     C_R   0.701183 0.785031 0.116334 -0.010468
C88   C     C_R   0.237459 0.326777 0.934674 -0.013254
C89   C     C_R   0.798963 0.285076 0.883520 -0.010879
C90   C     C_R   0.262652 0.827264 0.065023 -0.013210
C91   C     C_R   0.201334 0.284678 0.116140 -0.010577
C92   C     C_R   0.737428 0.826858 0.934740 -0.013443
C93   C     C_R   0.325493 0.759164 0.933984 0.016591
C94   C     C_R   0.731003 0.342450 0.019477 0.030503
C95   C     C_R   0.674665 0.759113 0.066015 0.016934
C96   C     C_R   0.269045 0.342148 0.980204 0.030145
C97   C     C_R   0.825561 0.259340 0.933880 0.016516
C98   C     C_R   0.231056 0.842522 0.019461 0.030673
C99   C     C_R   0.174814 0.258799 0.065829 0.016920
C100  C     C_R   0.768997 0.842255 0.980289 0.030366
C101  C     C_R   0.166757 0.869311 0.928934 -0.031396
C102  C     C_R   0.873618 0.201222 0.039298 -0.016681
C103  C     C_R   0.833255 0.869256 0.070859 -0.030964
C104  C     C_R   0.126617 0.200805 0.960671 -0.015862
C105  C     C_R   0.666736 0.369267 0.928937 -0.031458
C106  C     C_R   0.373626 0.701216 0.039337 -0.016759
C107  C     C_R   0.333299 0.369165 0.070794 -0.030714
C108  C     C_R   0.626579 0.700876 0.960756 -0.015833
C109  C     C_R   0.130864 0.872986 0.888370 -0.093144
C110  C     C_R   0.890085 0.161627 0.096379 -0.030839
C111  C     C_R   0.869100 0.873054 0.111595 -0.093120
C112  C     C_R   0.109987 0.161509 0.903632 -0.029407
C113  C     C_R   0.630849 0.372954 0.888372 -0.094055
C114  C     C_R   0.390105 0.661644 0.096400 -0.030357
C115  C     C_R   0.369133 0.372993 0.111554 -0.092169
C116  C     C_R   0.609982 0.661531 0.903683 -0.029375
C117  C     C_R   0.145445 0.840004 0.805698 -0.261805
C118  C     C_R   0.864533 0.174555 0.189155 -0.206493
C119  C     C_R   0.854477 0.840110 0.194371 -0.261838
C120  C     C_R   0.135470 0.174607 0.810875 -0.204576
C121  C     C_R   0.645445 0.339996 0.805685 -0.258227
C122  C     C_R   0.364580 0.674612 0.189166 -0.204756
C123  C     C_R   0.354522 0.340035 0.194320 -0.262621
C124  C     C_R   0.635493 0.674593 0.810916 -0.204546
H21   H     H_    0.117801 0.841050 0.776372 0.182630
H22   H     H_    0.875765 0.142935 0.232541 0.190380
H23   H     H_    0.882064 0.841146 0.223802 0.182636
H24   H     H_    0.124197 0.143205 0.767521 0.190386
H25   H     H_    0.617799 0.341034 0.776363 0.185197
H26   H     H_    0.375815 0.642999 0.232551 0.190426
H27   H     H_    0.382097 0.341112 0.223776 0.181612
H28   H     H_    0.624236 0.643172 0.767557 0.190544
C125  C     C_R   0.195538 0.807885 0.758447 -0.085394
C126  C     C_R   0.823687 0.225481 0.227912 -0.096142
C127  C     C_R   0.804431 0.808019 0.241572 -0.084717
C128  C     C_R   0.176293 0.225405 0.772085 -0.101092
C129  C     C_R   0.695554 0.307919 0.758416 -0.091097
C130  C     C_R   0.323736 0.725550 0.227915 -0.101085
C131  C     C_R   0.304493 0.307898 0.241495 -0.083877
C132  C     C_R   0.676314 0.725389 0.772115 -0.101346
C133  C     C_R   0.232054 0.806046 0.797213 0.024161
C134  C     C_R   0.807490 0.265014 0.171161 0.021974
C135  C     C_R   0.767945 0.806295 0.202761 0.023766
C136  C     C_R   0.192470 0.264774 0.828803 0.023197
C137  C     C_R   0.732086 0.306131 0.797152 0.023862
C138  C     C_R   0.307557 0.765102 0.171154 0.023173
C139  C     C_R   0.268041 0.306082 0.202626 0.024099
C140  C     C_R   0.692483 0.764773 0.828844 0.023369
C141  C     C_R   0.214847 0.829374 0.886429 0.037036
C142  C     C_R   0.828583 0.247329 0.078963 0.033327
C143  C     C_R   0.785190 0.829423 0.113441 0.036545
C144  C     C_R   0.171567 0.246910 0.920928 0.033589
C145  C     C_R   0.714858 0.329402 0.886389 0.038061
C146  C     C_R   0.328616 0.747364 0.078986 0.033980
C147  C     C_R   0.285278 0.329242 0.113317 0.036499
C148  C     C_R   0.671537 0.746975 0.921010 0.033549
C149  C     C_R   0.158322 0.906387 0.008322 0.315985
C150  C     C_R   0.899706 0.196840 0.944043 0.344166
C151  C     C_R   0.841642 0.906163 0.991291 0.315379
C152  C     C_R   0.100751 0.196254 0.055948 0.344882
C153  C     C_R   0.658271 0.406301 0.008357 0.316144
C154  C     C_R   0.399656 0.696721 0.944110 0.343431
C155  C     C_R   0.341652 0.406119 0.991265 0.315783
C156  C     C_R   0.600651 0.696439 0.056060 0.344990
C157  C     C_R   0.183236 0.882252 0.059291 -0.203750
C158  C     C_R   0.871693 0.215885 0.895842 -0.138173
C159  C     C_R   0.816724 0.881991 0.940408 -0.203623
C160  C     C_R   0.128861 0.215247 0.103947 -0.137405
C161  C     C_R   0.683135 0.382081 0.059359 -0.208000
C162  C     C_R   0.371567 0.715593 0.896000 -0.137409
C163  C     C_R   0.316731 0.381972 0.940373 -0.201194
C164  C     C_R   0.628658 0.715662 0.104174 -0.137834
C165  C     C_R   0.286967 0.789354 0.747500 -0.222696
C166  C     C_R   0.774504 0.325851 0.201108 -0.233871
C167  C     C_R   0.713003 0.789988 0.252545 -0.222908
C168  C     C_R   0.225242 0.325653 0.798877 -0.225786
C169  C     C_R   0.787025 0.289588 0.747390 -0.223080
C170  C     C_R   0.274612 0.825981 0.201059 -0.227124
C171  C     C_R   0.213122 0.289643 0.252353 -0.222135
C172  C     C_R   0.725282 0.825625 0.798882 -0.226867
C173  C     C_R   0.320579 0.780478 0.788529 0.321782
C174  C     C_R   0.754118 0.359226 0.147796 0.288656
C175  C     C_R   0.679381 0.781169 0.211517 0.318722
C176  C     C_R   0.245669 0.358920 0.852045 0.292684
C177  C     C_R   0.820682 0.280840 0.788384 0.321143
C178  C     C_R   0.254250 0.859371 0.147707 0.291805
C179  C     C_R   0.179546 0.280690 0.211295 0.319623
C180  C     C_R   0.745698 0.858920 0.852043 0.291960
H29   H     H_    0.167284 0.901544 0.127271 0.211778
H30   H     H_    0.888441 0.198147 0.827233 0.225952
H31   H     H_    0.832636 0.901181 0.872367 0.212129
H32   H     H_    0.112281 0.197501 0.172570 0.225502
H33   H     H_    0.667122 0.401258 0.127397 0.210686
H34   H     H_    0.388217 0.697609 0.827508 0.226571
H35   H     H_    0.332602 0.401243 0.872373 0.212802
H36   H     H_    0.611970 0.698171 0.172914 0.225352
H37   H     H_    0.306334 0.790060 0.675030 0.202007
H38   H     H_    0.768349 0.352354 0.262508 0.204733
H39   H     H_    0.693674 0.791065 0.325016 0.202557
H40   H     H_    0.231170 0.352288 0.737607 0.201516
H41   H     H_    0.806345 0.290362 0.674920 0.201706
H42   H     H_    0.268467 0.852475 0.262461 0.202190
H43   H     H_    0.193739 0.290711 0.324818 0.202746
H44   H     H_    0.731244 0.852230 0.737580 0.201912
O33   O     O_R   0.051640 0.926880 0.885090 -0.593672
O34   O     O_R   0.948360 0.073120 0.114910 -0.571084
O35   O     O_R   0.948360 0.926880 0.114910 -0.593880
O36   O     O_R   0.051640 0.073120 0.885090 -0.570732
O37   O     O_R   0.551640 0.426880 0.885090 -0.591926
O38   O     O_R   0.448360 0.573120 0.114910 -0.571005
O39   O     O_R   0.448360 0.426880 0.114910 -0.594727
O40   O     O_R   0.551640 0.573120 0.885090 -0.570507
Cu9   Cu    Cu3+1 0.495240 0.500000 0.924150 1.125033
Cu10  Cu    Cu3+1 0.504760 0.500000 0.075850 1.119443
Cu11  Cu    Cu3+1 0.995240 0.000000 0.924150 1.121285
Cu12  Cu    Cu3+1 0.004760 0.000000 0.075850 1.120844
C181  C     C_R   0.921897 0.910140 0.069728 0.804987
C182  C     C_R   0.071079 0.100936 0.935887 0.887988
C183  C     C_R   0.078071 0.910083 0.930309 0.805006
C184  C     C_R   0.928934 0.100951 0.064077 0.887222
C185  C     C_R   0.421906 0.410125 0.069718 0.805005
C186  C     C_R   0.571069 0.600952 0.935906 0.887870
C187  C     C_R   0.578059 0.410056 0.930317 0.805236
C188  C     C_R   0.428934 0.600948 0.064085 0.886981
O41   O     O_R   0.940620 0.926560 0.986760 -0.571317
O42   O     O_R   0.059380 0.073440 0.013240 -0.516709
O43   O     O_R   0.059380 0.926560 0.013240 -0.572164
O44   O     O_R   0.940620 0.073440 0.986760 -0.517205
O45   O     O_R   0.440620 0.426560 0.986760 -0.570367
O46   O     O_R   0.559380 0.573440 0.013240 -0.516799
O47   O     O_R   0.559380 0.426560 0.013240 -0.573277
O48   O     O_R   0.440620 0.573440 0.986760 -0.517436
N1    N     N_R   0.141191 0.979523 0.020983 0.151809
O49   O     O_R   0.116908 0.006271 0.101695 -0.322564
O50   O     O_R   0.161805 0.022741 0.952531 -0.394331
N2    N     N_R   0.956819 0.186744 0.894284 0.136621
O51   O     O_R   0.977664 0.159521 0.813741 -0.324656
O52   O     O_R   0.988523 0.215268 0.923331 -0.352129
N3    N     N_R   0.858849 0.979186 0.978169 0.152248
O53   O     O_R   0.883048 0.005721 0.897338 -0.322730
O54   O     O_R   0.838544 0.022578 0.046443 -0.395552
N4    N     N_R   0.043686 0.186186 0.106036 0.137269
O55   O     O_R   0.023112 0.158686 0.186443 -0.323547
O56   O     O_R   0.011740 0.214930 0.077437 -0.351103
N5    N     N_R   0.641233 0.479481 0.020954 0.152363
O57   O     O_R   0.617156 0.506361 0.101605 -0.322826
O58   O     O_R   0.661733 0.522589 0.952388 -0.394463
N6    N     N_R   0.456774 0.686693 0.894267 0.136672
O59   O     O_R   0.477596 0.659465 0.813728 -0.323400
O60   O     O_R   0.488495 0.715249 0.923257 -0.352064
N7    N     N_R   0.358859 0.479142 0.978168 0.151850
O61   O     O_R   0.383092 0.505680 0.897338 -0.321663
O62   O     O_R   0.338535 0.522533 0.046449 -0.394254
N8    N     N_R   0.543597 0.686233 0.106046 0.137062
O63   O     O_R   0.523017 0.658673 0.186421 -0.323491
O64   O     O_R   0.511652 0.714940 0.077421 -0.351528
N9    N     N_R   0.377298 0.778110 0.730986 0.096474
O65   O     O_R   0.409342 0.821403 0.744558 -0.345776
O66   O     O_R   0.396399 0.737534 0.659982 -0.384620
N10   N     N_R   0.733122 0.430477 0.171898 0.112713
O67   O     O_R   0.747640 0.480155 0.110692 -0.307829
O68   O     O_R   0.705694 0.448278 0.256049 -0.351084
N11   N     N_R   0.622594 0.779702 0.268941 0.097574
O69   O     O_R   0.590809 0.822700 0.253887 -0.347050
O70   O     O_R   0.603297 0.741265 0.341853 -0.377643
N12   N     N_R   0.266400 0.430195 0.827965 0.112035
O71   O     O_R   0.251698 0.479826 0.889195 -0.309783
O72   O     O_R   0.293692 0.448081 0.743814 -0.346804
N13   N     N_R   0.877427 0.278860 0.730835 0.096985
O73   O     O_R   0.909315 0.322068 0.744945 -0.346398
O74   O     O_R   0.896633 0.239219 0.658990 -0.382257
N14   N     N_R   0.233340 0.930671 0.171701 0.112288
O75   O     O_R   0.247879 0.980275 0.110400 -0.308796
O76   O     O_R   0.205998 0.948592 0.255827 -0.348533
N15   N     N_R   0.122775 0.278888 0.268720 0.097486
O77   O     O_R   0.090846 0.321859 0.254004 -0.345711
O78   O     O_R   0.103589 0.239890 0.341152 -0.381539
N16   N     N_R   0.766484 0.930163 0.827869 0.112164
O79   O     O_R   0.751790 0.979858 0.889018 -0.309553
O80   O     O_R   0.793848 0.947949 0.743697 -0.348529

loop_
_geom_bond_atom_site_label_1
_geom_bond_atom_site_label_2
_geom_bond_distance
_ccdc_geom_bond_type
C101  C149  1.416903 A    
C130  C138  1.424343 A    
Cu2   Cu5   2.663473 S    
C59   C64   1.402025 A    
O38   Cu10  1.959706 S    
C23   C70   1.406179 A    
C135  C143  1.409585 A    
C105  C153  1.416763 A    
C119  C127  1.393184 A    
C117  C125  1.392449 A    
C77   C98   1.416567 A    
C110  C118  1.400702 A    
C83   C147  1.432049 A    
C134  C142  1.414361 A    
C155  N7    1.432976 S    
C80   C99   1.416735 A    
C38   C40   1.405548 A    
C81   C94   1.416564 A    
C127  C135  1.432307 A    
Cu6   O22   1.952631 S    
C125  C133  1.432392 A    
C6    O22   1.279340 A    
C116  C124  1.400863 A    
C133  C141  1.409856 A    
C2    C129  1.480926 S    
C33   C35   1.409127 A    
N6    O60   1.300856 A    
O40   Cu9   1.963859 S    
O3    Cu3   1.956528 S    
N12   O71   1.301847 A    
C109  C183  1.485841 S    
C36   C43   1.403686 A    
C128  C136  1.424466 A    
C110  C184  1.491046 S    
C120  C128  1.399355 A    
C151  N3    1.432969 S    
C49   C57   1.431935 A    
C138  C146  1.414218 A    
C83   C91   1.416201 A    
C132  C140  1.424623 A    
C25   C27   1.396051 A    
Cu9   O45   1.967545 S    
C136  C144  1.414137 A    
C177  N13   1.434391 S    
O25   C9    1.282500 A    
C29   C31   1.401216 A    
O40   C186  1.303797 A    
C106  C114  1.433780 A    
C168  H40   1.079271 S    
N11   O69   1.301669 A    
C38   C42   1.401420 A    
C45   C53   1.427456 A    
N15   O78   1.300826 A    
C154  N6    1.438607 S    
C102  C142  1.416760 A    
C3    O19   1.292296 A    
N8    O63   1.301826 A    
C134  C166  1.405092 A    
C86   C94   1.427642 A    
C87   C175  1.421199 A    
C13   C54   1.475007 S    
O12   Cu4   1.944892 S    
C169  C177  1.398067 A    
C138  C170  1.405113 A    
C167  C175  1.398545 A    
H2    C31   1.083449 S    
N2    O51   1.301837 A    
C34   C36   1.409232 A    
C48   C56   1.431377 A    
H6    C27   1.083663 S    
Cu11  O41   1.967545 S    
C51   C59   1.430559 A    
C159  H31   1.075543 S    
C166  H38   1.079213 S    
C45   C71   1.420315 A    
C16   C55   1.487838 S    
O2    C13   1.302926 A    
C100  C159  1.404666 A    
C50   C68   1.414923 A    
C9    C58   1.491585 S    
H7    C26   1.083581 S    
O37   Cu9   1.959709 S    
C87   C95   1.431698 A    
C50   C58   1.432040 A    
C60   C63   1.402103 A    
O34   C184  1.301968 A    
C136  C168  1.405308 A    
Cu3   O19   1.952571 S    
C82   C90   1.414968 A    
C104  C144  1.417866 A    
N15   O77   1.301652 A    
C118  H22   1.083406 S    
O5    Cu5   1.960906 S    
C40   C41   1.404948 A    
C188  O48   1.285835 A    
O37   C187  1.308098 A    
C122  H26   1.083402 S    
O38   C188  1.301840 A    
N8    O64   1.300871 A    
C150  C158  1.395952 A    
C183  O43   1.275357 A    
Cu12  O43   1.964312 S    
C103  C151  1.417061 A    
C14   C53   1.486848 S    
C21   C29   1.406489 A    
C107  C147  1.415065 A    
O27   C11   1.285461 A    
C114  C122  1.400676 A    
C23   C31   1.404314 A    
C34   C44   1.404173 A    
C26   C28   1.396162 A    
C55   C62   1.394071 A    
C52   C74   1.419083 A    
C37   C41   1.400238 A    
O7    C12   1.308860 A    
Cu2   O26   1.963674 S    
C30   C32   1.395243 A    
C6    C125  1.481018 S    
C18   C26   1.402640 A    
C72   H16   1.077077 S    
C79   C143  1.432026 A    
C116  C186  1.493564 S    
C150  N2    1.438565 S    
C186  O46   1.285201 A    
C90   C98   1.427839 A    
C82   C93   1.417069 A    
N5    O58   1.301184 A    
C10   C57   1.491152 S    
H8    C25   1.083665 S    
C62   H10   1.083610 S    
C101  C109  1.441011 A    
O28   C12   1.285061 A    
O16   C3    1.302579 A    
O29   C13   1.279631 A    
N13   O74   1.300784 A    
H1    C32   1.083646 S    
C171  H43   1.077700 S    
C45   C65   1.414337 A    
C172  H44   1.079223 S    
H3    C30   1.083436 S    
C109  C117  1.392651 A    
Cu4   O28   1.960377 S    
C47   C55   1.429265 A    
Cu5   O29   1.963674 S    
H5    C28   1.083597 S    
N4    O56   1.300874 A    
C52   C60   1.430139 A    
C4    C131  1.481328 S    
Cu7   O31   1.960377 S    
C169  H41   1.077685 S    
Cu8   O32   1.960377 S    
C48   C65   1.416227 A    
N14   O75   1.301847 A    
O34   Cu12  1.959706 S    
C84   C148  1.428750 A    
C181  O41   1.275277 A    
C15   C56   1.493929 S    
C78   C142  1.427476 A    
N11   O70   1.300916 A    
N10   O68   1.301594 A    
C49   C67   1.414900 A    
N1    O49   1.302292 A    
N3    O54   1.301174 A    
Cu4   Cu7   2.669148 S    
C86   C174  1.422738 A    
C52   C67   1.414166 A    
C99   C160  1.407361 A    
Cu10  O46   1.967545 S    
C74   H18   1.076282 S    
O9    C6    1.304700 A    
O26   C10   1.282594 A    
C105  C145  1.414104 A    
C41   C65   1.415419 A    
O11   C8    1.306066 A    
C19   C33   1.400835 A    
N16   O80   1.301587 A    
N7    O62   1.301241 A    
O12   C7    1.302412 A    
C43   C67   1.417842 A    
O13   C2    1.304655 A    
C104  C112  1.435942 A    
C19   C27   1.403254 A    
C153  C161  1.392696 A    
C64   H12   1.083259 S    
C103  C111  1.442490 A    
C107  C115  1.442544 A    
C165  C173  1.397688 A    
C108  C116  1.436290 A    
C178  N14   1.437945 S    
C111  C181  1.488296 S    
C113  C187  1.485847 S    
C20   C28   1.402613 A    
C114  C188  1.491012 S    
O1    Cu1   1.960906 S    
C20   C34   1.400487 A    
C108  C148  1.417937 A    
C44   C68   1.418028 A    
C24   C32   1.402267 A    
C96   C163  1.404636 A    
C166  C174  1.398758 A    
C46   C66   1.412348 A    
C47   C69   1.415738 A    
C78   C86   1.414956 A    
O7    Cu7   1.956528 S    
C50   C76   1.419693 A    
O8    Cu8   1.956531 S    
C113  C121  1.392588 A    
C154  C162  1.395641 A    
C88   C176  1.422653 A    
N12   O72   1.301590 A    
C20   C73   1.393849 A    
C149  C157  1.392794 A    
O39   Cu10  1.963858 S    
C102  C150  1.418792 A    
C24   C69   1.392770 A    
C176  N12   1.437890 S    
C129  C137  1.432389 A    
Cu11  Cu12  2.658705 S    
C106  C154  1.418510 A    
Cu12  O42   1.967545 S    
C118  C126  1.398719 A    
O11   Cu3   1.944892 S    
C42   C66   1.416381 A    
C77   C85   1.415675 A    
C75   H19   1.075889 S    
C76   H20   1.075720 S    
C91   C179  1.420915 A    
O39   C185  1.309480 A    
C119  H23   1.083980 S    
C53   C61   1.402201 A    
O6    Cu6   1.960904 S    
O36   C182  1.303608 A    
C95   C164  1.407345 A    
C117  H21   1.084010 S    
C152  C160  1.396668 A    
C171  C179  1.398118 A    
N9    O66   1.300651 A    
C175  N11   1.434891 S    
C1    C130  1.492552 S    
C120  H24   1.083382 S    
C121  H25   1.083997 S    
O33   Cu11  1.959709 S    
C12   C59   1.490148 S    
Cu3   O27   1.960377 S    
C122  C130  1.398815 A    
C124  H28   1.083383 S    
C163  H35   1.075543 S    
C21   C39   1.399683 A    
C139  C171  1.409002 A    
C112  C120  1.400821 A    
N2    O52   1.300857 A    
C57   C63   1.401779 A    
C137  C145  1.409737 A    
C140  C172  1.405306 A    
Cu1   O17   1.952630 S    
C8    C127  1.481297 S    
Cu11  O44   1.964309 S    
C155  C163  1.393824 A    
O10   Cu2   1.945120 S    
O35   Cu12  1.963858 S    
C17   C76   1.393808 A    
C156  N8    1.438453 S    
C82   C146  1.427417 A    
C19   C74   1.393644 A    
C153  N5    1.432837 S    
C21   C72   1.399200 A    
C152  N4    1.438529 S    
C101  C141  1.414113 A    
C77   C141  1.431337 A    
N3    O53   1.302090 A    
C184  O44   1.285738 A    
C135  C167  1.409095 A    
C133  C165  1.408731 A    
C102  C110  1.434036 A    
O30   C14   1.283638 A    
C139  C147  1.409620 A    
C137  C169  1.408796 A    
C98   C157  1.403970 A    
C107  C155  1.417169 A    
Cu6   O30   1.963674 S    
C79   C100  1.416234 A    
O4    C15   1.308174 A    
O5    C10   1.308432 A    
C54   C62   1.397194 A    
C80   C144  1.428552 A    
C158  H30   1.074045 S    
C89   C177  1.421096 A    
C182  O42   1.285302 A    
C71   H15   1.074387 S    
C69   H13   1.077725 S    
C162  H34   1.073910 S    
C24   C38   1.402672 A    
C173  N9    1.433989 S    
Cu1   Cu6   2.663473 S    
C48   C70   1.420416 A    
C187  O47   1.275383 A    
C111  C119  1.392839 A    
Cu3   Cu8   2.669148 S    
O10   C5    1.300909 A    
O14   Cu6   1.945120 S    
O15   C4    1.306062 A    
C7    C128  1.493170 S    
C91   C99   1.431369 A    
C121  C129  1.392496 A    
O14   C1    1.300778 A    
C180  N16   1.437889 S    
C92   C180  1.422579 A    
Cu4   O20   1.952569 S    
Cu5   O21   1.952630 S    
C4    O20   1.281490 A    
C167  H39   1.077799 S    
N5    O57   1.302138 A    
C39   C42   1.408951 A    
C5    O21   1.290293 A    
C172  C180  1.398932 A    
C88   C96   1.428875 A    
C151  C159  1.393769 A    
C89   C97   1.430837 A    
C112  C182  1.493420 S    
C84   C92   1.415722 A    
C160  H32   1.074258 S    
N7    O61   1.302149 A    
C92   C100  1.428805 A    
C22   C30   1.402175 A    
N13   O73   1.301644 A    
C164  H36   1.074344 S    
C49   C75   1.419749 A    
C22   C40   1.396930 A    
C80   C88   1.415746 A    
C81   C89   1.415723 A    
C51   C73   1.419406 A    
C58   C64   1.401655 A    
C35   C44   1.404026 A    
C79   C87   1.416221 A    
N14   O76   1.301589 A    
C156  C164  1.397040 A    
C56   C61   1.402770 A    
C17   C35   1.400670 A    
C105  C113  1.440872 A    
C5    C126  1.492575 S    
C17   C25   1.403438 A    
C18   C75   1.394217 A    
C51   C68   1.414234 A    
C23   C37   1.404951 A    
C22   C71   1.388541 A    
C2    O18   1.279323 A    
C11   C60   1.490556 S    
Cu9   O48   1.964309 S    
Cu10  O47   1.964312 S    
C61   H9    1.083212 S    
C85   C93   1.430663 A    
C104  C152  1.419223 A    
O15   Cu7   1.944892 S    
C140  C148  1.414368 A    
C170  C178  1.398958 A    
C108  C156  1.419516 A    
C37   C39   1.413079 A    
C47   C66   1.419446 A    
H4    C29   1.083578 S    
C174  N10   1.437928 S    
O13   Cu5   1.945120 S    
C81   C145  1.431203 A    
C103  C143  1.415111 A    
O33   C183  1.308139 A    
C165  H37   1.077652 S    
C124  C132  1.399293 A    
O35   C181  1.309488 A    
C123  C131  1.393140 A    
O1    C14   1.304883 A    
O3    C16   1.309964 A    
C131  C139  1.432259 A    
Cu9   Cu10  2.658705 S    
C85   C173  1.420786 A    
C33   C43   1.404356 A    
Cu2   O18   1.952631 S    
O8    C11   1.308467 A    
C149  N1    1.432744 S    
C106  C146  1.416720 A    
C97   C158  1.407160 A    
O9    Cu1   1.945120 S    
C93   C162  1.407209 A    
C94   C161  1.404007 A    
N6    O59   1.301837 A    
O31   C15   1.288104 A    
C73   H17   1.076283 S    
O32   C16   1.283243 A    
N4    O55   1.301834 A    
C179  N15   1.434672 S    
C157  H29   1.075555 S    
C115  C123  1.392874 A    
C3    C132  1.493486 S    
O2    Cu2   1.960904 S    
C123  H27   1.083990 S    
C161  H33   1.075559 S    
O4    Cu4   1.956531 S    
N10   O67   1.301846 A    
C168  C176  1.399004 A    
C84   C95   1.416872 A    
N1    O50   1.301319 A    
C78   C97   1.417181 A    
C83   C96   1.416231 A    
C90   C178  1.422839 A    
Cu7   O23   1.952571 S    
O36   Cu11  1.963859 S    
Cu8   O24   1.952569 S    
C7    O23   1.292328 A    
C8    O24   1.281511 A    
O6    C9    1.308510 A    
N9    O65   1.301614 A    
Cu1   O25   1.963674 S    
C170  H42   1.079269 S    
C18   C36   1.400574 A    
C126  C134  1.424347 A    
O16   Cu8   1.944892 S    
N16   O79   1.301848 A    
C1    O17   1.290343 A    
C63   H11   1.083250 S    
C115  C185  1.488174 S    
C70   H14   1.078950 S    
C46   C54   1.429489 A    
C185  O45   1.275223 A    
C46   C72   1.423829 A    
