data_mof_unit_26078.cif
_audit_creation_date              2013-03-05T15:49:44-0500
_audit_creation_method            fapswitch 2.2
_symmetry_space_group_name_H-M    P1
_symmetry_Int_Tables_number       1
_space_group_crystal_system       triclinic
_cell_length_a                    12.04074
_cell_length_b                    12.847982
_cell_length_c                    13.18887
_cell_angle_alpha                 87.128332
_cell_angle_beta                  113.24256
_cell_angle_gamma                 93.590815
_cell_volume                      1870.32402226

loop_
_atom_site_label
_atom_site_type_symbol
_atom_site_description
_atom_site_fract_x
_atom_site_fract_y
_atom_site_fract_z
_atom_type_partial_charge
O1    O     O_R   0.579910 0.341070 0.505280 -0.566018
O2    O     O_R   0.388440 0.353740 0.492580 -0.648593
C1    C     C_R   0.476638 0.299946 0.496824 0.919912
O3    O     O_R   0.643280 0.490550 0.663120 -0.565937
O4    O     O_R   0.451810 0.503220 0.650420 -0.613923
C2    C     C_R   0.566186 0.494191 0.708271 0.883497
Zn1   Zn    Zn3+2 0.627850 0.491540 0.508480 1.004381
Zn2   Zn    Zn3+2 0.372150 0.508460 0.491520 0.953049
O5    O     O_R   0.611560 0.646260 0.507420 -0.636564
O6    O     O_R   0.420090 0.658930 0.494720 -0.609374
O7    O     O_R   0.548190 0.496780 0.349580 -0.626067
O8    O     O_R   0.356720 0.509450 0.336880 -0.620193
C3    C     C_R   0.523455 0.700067 0.503436 0.901945
C4    C     C_R   0.433778 0.504544 0.291943 0.894836
C5    C     C_R   0.249267 0.438063 0.998269 0.321636
H1    H     H_    0.207864 0.451315 0.141721 0.198603
C6    C     C_R   0.392276 0.501699 0.173151 -0.105248
C7    C     C_R   0.712969 0.567980 0.879758 -0.183042
C8    C     C_R   0.726369 0.620227 0.973565 -0.134486
C9    C     C_R   0.636544 0.610495 0.015877 0.104675
C10   C     C_R   0.539430 0.532795 0.973215 0.062621
C11   C     C_R   0.528267 0.479223 0.878679 0.051754
C12   C     C_R   0.451420 0.507587 0.018109 0.006732
C13   C     C_R   0.343193 0.447899 0.958219 0.048158
C14   C     C_R   0.340157 0.389275 0.869994 0.101424
C15   C     C_R   0.434278 0.402780 0.833948 -0.240125
C16   C     C_R   0.476703 0.526462 0.127603 -0.269128
C17   C     C_R   0.275708 0.464740 0.107125 -0.281545
C18   C     C_R   0.608742 0.505146 0.827076 -0.083963
H2    H     H_    0.567196 0.550400 0.181756 0.170955
H3    H     H_    0.776329 0.587199 0.841072 0.186217
H4    H     H_    0.800916 0.677295 0.006678 0.161355
H5    H     H_    0.432541 0.353410 0.768973 0.142515
C19   C     C_R   0.537163 0.811210 0.502102 -0.041446
C20   C     C_R   0.463156 0.188853 0.498661 -0.027745
C21   C     C_R   0.415530 0.033996 0.585195 -0.209148
C22   C     C_R   0.410008 0.140354 0.566340 -0.237718
C23   C     C_R   0.516584 0.132151 0.443566 0.060911
C24   C     C_R   0.525654 0.024784 0.464497 0.130453
C25   C     C_R   0.474933 0.975336 0.536582 0.118770
C26   C     C_R   0.483254 0.867826 0.556881 0.024100
C27   C     C_R   0.591149 0.859896 0.435167 -0.247274
C28   C     C_R   0.585490 0.966230 0.416244 -0.194456
H6    H     H_    0.632546 0.814872 0.393188 0.154498
H7    H     H_    0.375145 0.999181 0.639698 0.146565
H8    H     H_    0.626122 0.001102 0.361956 0.146949
H9    H     H_    0.369073 0.185505 0.608638 0.147703
N1    N     N_R   0.798200 0.480260 0.519790 -0.156398
N2    N     N_R   0.201820 0.519740 0.480210 -0.098865
C29   C     C_R   0.022876 0.620267 0.425422 -0.299772
C30   C     C_R   0.140341 0.606571 0.430571 0.028340
C31   C     C_R   0.148115 0.443578 0.524046 -0.001088
C32   C     C_R   0.030351 0.454479 0.521254 0.028417
C33   C     C_R   0.966962 0.544183 0.472158 0.100887
C34   C     C_R   0.849380 0.554822 0.471019 -0.124194
C35   C     C_R   0.861513 0.393357 0.569604 0.487743
C36   C     C_R   0.975488 0.378426 0.567791 -0.311626
H10   H     H_    0.798749 0.622448 0.430909 0.139009
H11   H     H_    0.976818 0.690234 0.386092 0.143683
H12   H     H_    0.021720 0.308098 0.605121 0.175667
H13   H     H_    0.182660 0.666345 0.395228 0.136844
H14   H     H_    0.197578 0.374937 0.562186 0.107457
N3    N     N_3   0.560436 0.185279 0.366980 -0.448930
H15   H     H_    0.516462 0.152275 0.289482 0.175572
H16   H     H_    0.653559 0.176474 0.394467 0.224203
N4    N     N_R   0.814738 0.316738 0.626674 0.227921
O9    O     O_R   0.816862 0.218284 0.609035 -0.419959
O10   O     O_R   0.799740 0.342523 0.714277 -0.315343
N5    N     N_3   0.250864 0.306376 0.826190 -0.389192
H17   H     H_    0.212454 0.316765 0.740615 0.184775
H18   H     H_    0.294951 0.236048 0.843627 0.179211
N6    N     N_R   0.127766 0.403792 0.929689 0.227831
O11   O     O_R   0.078133 0.439756 0.828549 -0.378879
O12   O     O_R   0.060089 0.351654 0.972769 -0.358932
N7    N     N_3   0.637255 0.692209 0.086640 -0.475628
H19   H     H_    0.549691 0.708398 0.077220 0.199555
H20   H     H_    0.692079 0.673121 0.168485 0.171763
N8    N     N_3   0.437430 0.814390 0.631944 -0.444373
H21   H     H_    0.344268 0.823749 0.603185 0.191873
H22   H     H_    0.480574 0.846614 0.709925 0.190209

loop_
_geom_bond_atom_site_label_1
_geom_bond_atom_site_label_2
_geom_bond_distance
_ccdc_geom_bond_type
H1    C17   1.083461 S    
N1    C34   1.374183 A    
N4    O10   1.299145 A    
N3    H16   1.045195 S    
C11   C18   1.403706 A    
C8    C9    1.396154 A    
C19   C27   1.392766 A    
C32   C33   1.405509 A    
Zn1   O7    1.929764 S    
C5    N6    1.437741 S    
C29   C33   1.404805 A    
C29   H11   1.083239 S    
C21   C22   1.377622 A    
C20   C22   1.392736 A    
O4    C2    1.293848 A    
O7    C4    1.291786 A    
N8    H22   1.045511 S    
C35   C36   1.407130 A    
N1    C35   1.377412 A    
C7    C8    1.385434 A    
N5    H18   1.045951 S    
O5    C3    1.284639 A    
N2    C30   1.367079 A    
C30   H13   1.081340 S    
C12   C13   1.425929 A    
C12   C16   1.384110 A    
C22   H9    1.084402 S    
N4    O9    1.301180 A    
C10   C11   1.410154 A    
C16   H2    1.075998 S    
C4    C6    1.446121 S    
C19   C26   1.397989 A    
C27   H6    1.084265 S    
O3    Zn1   1.973065 S    
C8    H4    1.083639 S    
C6    C16   1.384849 A    
C21   C25   1.403047 A    
C20   C23   1.397581 A    
C13   C14   1.404765 A    
N6    O12   1.301724 A    
C26   N8    1.439241 S    
C32   C36   1.395328 A    
N8    H21   1.045533 S    
C36   H12   1.082068 S    
C24   C28   1.402776 A    
C14   C15   1.390244 A    
C9    N7    1.436678 S    
O1    C1    1.285295 A    
N7    H19   1.044900 S    
C15   H5    1.084349 S    
C1    C20   1.426461 S    
Zn2   O8    1.973066 S    
N2    C31   1.367127 A    
C29   C30   1.410732 A    
C21   H7    1.081511 S    
C7    C18   1.396613 A    
N7    H20   1.045201 S    
O3    C2    1.289564 A    
C25   C26   1.395983 A    
O8    C4    1.288860 A    
C10   C12   1.418265 A    
C14   N5    1.432521 S    
C27   C28   1.377469 A    
C24   C25   1.424641 A    
C31   C32   1.419420 A    
C23   N3    1.439343 S    
Zn1   O5    2.008498 S    
C33   C34   1.424985 A    
C5    C13   1.421587 A    
O1    Zn1   1.980290 S    
C6    C17   1.395380 A    
O2    Zn2   2.008498 S    
N6    O11   1.301400 A    
O6    C3    1.285438 A    
O4    Zn2   1.929764 S    
Zn1   N1    2.010975 S    
O2    C1    1.284424 A    
C3    C19   1.427187 S    
C31   H14   1.081836 S    
C5    C17   1.398186 A    
C23   C24   1.395692 A    
C35   N4    1.429568 S    
N5    H17   1.042208 S    
C28   H8    1.081487 S    
N3    H15   1.045475 S    
C2    C18   1.454973 S    
C9    C10   1.439192 A    
Zn2   O6    1.980288 S    
C11   C15   1.408997 A    
C34   H10   1.082675 S    
C7    H3    1.083658 S    
Zn2   N2    2.010736 S    
