data_mof_unit_29884.cif
_audit_creation_date              2012-12-10T16:48:44-0500
_audit_creation_method            fapswitch 2.2
_symmetry_space_group_name_H-M    P1
_symmetry_Int_Tables_number       1
_space_group_crystal_system       triclinic
_cell_length_a                    17.134074
_cell_length_b                    8.67591
_cell_length_c                    7.450508
_cell_angle_alpha                 102.926429
_cell_angle_beta                  90.995569
_cell_angle_gamma                 92.835577
_cell_volume                      1077.6962017

loop_
_atom_site_label
_atom_site_type_symbol
_atom_type_description
_atom_site_fract_x
_atom_site_fract_y
_atom_site_fract_z
_atom_type_partial_charge
C1    C     C_R   0.497725 0.199728 0.453598 0.868046
C2    C     C_R   0.502531 0.800278 0.546343 0.879882
C3    C     C_2   0.496791 0.031852 0.427372 -0.366422
C4    C     C_2   0.503825 0.968168 0.572484 -0.372287
C5    C     C_R   0.350570 0.505807 0.524942 0.834120
C6    C     C_R   0.648780 0.492630 0.474549 0.841715
C7    C     C_R   0.265605 0.522628 0.539068 -0.209220
C8    C     C_R   0.732058 0.467716 0.460113 -0.171935
C9    C     C_R   0.218650 0.525137 0.381014 0.400363
C10   C     C_R   0.779219 0.536109 0.342757 0.373995
C11   C     C_R   0.139567 0.555645 0.400242 0.437262
C12   C     C_R   0.859919 0.513580 0.341323 0.444335
C13   C     C_R   0.104729 0.559793 0.569979 -0.008901
C14   C     C_R   0.892565 0.431232 0.464770 -0.000008
C15   C     C_R   0.150361 0.555625 0.725776 -0.194828
C16   C     C_R   0.844960 0.358790 0.574890 -0.224215
C17   C     C_R   0.230733 0.541090 0.711269 -0.262867
C18   C     C_R   0.765200 0.377474 0.573268 -0.252330
C19   C     C_2   0.019660 0.556049 0.578257 0.200112
C20   C     C_2   0.977003 0.426867 0.486300 0.245287
Cu1   Cu    Cu3+1 0.508700 0.517250 0.683000 0.961198
Cu2   Cu    Cu3+1 0.491300 0.482750 0.317000 0.980937
H1    H     H_    0.729245 0.322950 0.662787 0.183500
H2    H     H_    0.265369 0.541249 0.834080 0.217945
H3    H     H_    0.123549 0.560166 0.857125 0.205024
H4    H     H_    0.869979 0.292089 0.666347 0.178442
H5    H     H_    0.490218 0.960332 0.287504 0.181708
H6    H     H_    0.510436 0.039690 0.712342 0.180094
H7    H     H_    0.438752 0.378550 0.957849 0.223913
H8    H     H_    0.561205 0.621522 0.042207 0.241532
N1    N     N_2   0.478180 0.456750 0.041980 -0.211277
N2    N     N_2   0.521820 0.543250 0.958020 -0.209287
O1    O     O_R   0.505650 0.286040 0.618880 -0.588946
O2    O     O_R   0.494350 0.713960 0.381120 -0.582246
O3    O     O_R   0.490960 0.256910 0.309800 -0.593396
O4    O     O_R   0.509040 0.743090 0.690200 -0.586750
O5    O     O_R   0.394600 0.516230 0.672450 -0.598086
O6    O     O_R   0.605400 0.483770 0.327550 -0.556740
O7    O     O_R   0.379910 0.487100 0.363380 -0.532309
O8    O     O_R   0.620090 0.512900 0.636620 -0.580845
O9    O     O_3   0.249881 0.503614 0.207758 -0.572282
C21   C     C_3   0.235489 0.343394 0.116247 -0.229521
H9    H     H_    0.172263 0.316501 0.080257 0.211260
H10   H     H_    0.256927 0.261121 0.199218 0.148330
H11   H     H_    0.267719 0.320931 0.985999 0.161000
O10   O     O_3   0.746802 0.622487 0.227999 -0.574254
C22   C     C_3   0.750828 0.783588 0.320096 -0.220618
H12   H     H_    0.812477 0.830088 0.351023 0.214397
H13   H     H_    0.717081 0.803010 0.448869 0.126739
H14   H     H_    0.724274 0.852812 0.228705 0.178554
Br1   Br    Br    0.022886 0.229620 0.380908 -0.540256
Br2   Br    Br    0.972904 0.746376 0.703685 -0.536546
O11   O     O_3   0.907666 0.582240 0.229946 -0.545752
C23   C     C_3   0.909015 0.476810 0.056260 -0.177262
H15   H     H_    0.850358 0.461101 0.986213 0.171918
H16   H     H_    0.930369 0.360027 0.067283 0.175576
H17   H     H_    0.950162 0.527354 0.968786 0.209519
O12   O     O_3   0.094710 0.567081 0.248104 -0.574420
C24   C     C_3   0.096898 0.727459 0.237425 -0.186683
H18   H     H_    0.157099 0.770230 0.211777 0.155768
H19   H     H_    0.074107 0.804018 0.363860 0.208487
H20   H     H_    0.058722 0.738808 0.119885 0.219530

loop_
_geom_bond_atom_site_label_1
_geom_bond_atom_site_label_2
_ccdc_geom_bond_type
C10   O10   S    
C2    C4    S    
C6    O6    A    
C23   H16   S    
C15   C17   A    
C5    O5    A    
C20   Br1   S    
C11   O12   S    
C9    C11   A    
O9    C21   S    
C9    O9    S    
C12   O11   S    
C2    O2    A    
C19   C20   D    
C3    H5    S    
C1    O1    A    
C24   H18   S    
C22   H13   S    
Cu1   O4    S    
N1    N2    D    
Cu1   Cu2   S    
H8    N2    S    
Cu2   O3    S    
C11   C13   A    
Cu1   O8    S    
C21   H10   S    
Cu2   O7    S    
C10   C12   A    
C8    C10   A    
C4    H6    S    
C12   C14   A    
C22   H14   S    
C5    C7    S    
C13   C15   A    
C16   H4    S    
Cu2   O2    S    
Cu1   N2    S    
C14   C16   A    
C15   H3    S    
C17   H2    S    
Cu1   O1    S    
C21   H9    S    
C13   C19   S    
C18   H1    S    
Cu2   O6    S    
C22   H12   S    
C14   C20   S    
C6    O8    A    
Cu1   O5    S    
C1    O3    A    
H7    N1    S    
Cu2   N1    S    
C24   H19   S    
C2    O4    A    
C7    C9    A    
C5    O7    A    
C23   H15   S    
C24   H20   S    
C6    C8    S    
C1    C3    S    
O12   C24   S    
O10   C22   S    
C19   Br2   S    
C23   H17   S    
C16   C18   A    
C8    C18   A    
C3    C4    D    
O11   C23   S    
C7    C17   A    
C21   H11   S    
