data_mof_unit_63515.cif
_audit_creation_date              2013-03-05T16:02:49-0500
_audit_creation_method            fapswitch 2.2
_symmetry_space_group_name_H-M    P1
_symmetry_Int_Tables_number       1
_space_group_crystal_system       triclinic
_cell_length_a                    6.958896
_cell_length_b                    14.070305
_cell_length_c                    16.763833
_cell_angle_alpha                 90.021515
_cell_angle_beta                  89.897341
_cell_angle_gamma                 90.555779
_cell_volume                      1641.33044809

loop_
_atom_site_label
_atom_site_type_symbol
_atom_site_description
_atom_site_fract_x
_atom_site_fract_y
_atom_site_fract_z
_atom_type_partial_charge
O1    O     O_R   0.611670 0.415650 0.164070 -0.580899
O2    O     O_R   0.388330 0.915650 0.835930 -0.583119
O3    O     O_R   0.940950 0.405490 0.337780 -0.589345
O4    O     O_R   0.059050 0.905490 0.662220 -0.595401
O5    O     O_R   0.111350 0.584350 0.338470 -0.612710
O6    O     O_R   0.888650 0.084350 0.661530 -0.606996
C1    C     C_R   0.771714 0.384487 0.368238 0.957038
C2    C     C_R   0.225436 0.884898 0.630980 0.949874
O7    O     O_R   0.941380 0.404630 0.164680 -0.580697
O8    O     O_R   0.058620 0.904630 0.835320 -0.575233
O9    O     O_R   0.111780 0.583470 0.164130 -0.595317
O10   O     O_R   0.888220 0.083470 0.835870 -0.598021
C3    C     C_R   0.771528 0.380482 0.137214 1.051317
C4    C     C_R   0.226927 0.882545 0.864735 1.053534
O11   O     O_R   0.611240 0.416530 0.338400 -0.569764
O12   O     O_R   0.388760 0.916530 0.661600 -0.553927
O13   O     O_3   0.778020 0.558680 0.251290 -0.293065
O14   O     O_3   0.221980 0.058680 0.748710 -0.297348
V1    V     V_3+5 0.052840 0.489110 0.251260 1.196874
V2    V     V_3+5 0.947160 0.989110 0.748740 1.192660
O15   O     O_R   0.441500 0.594510 0.164760 -0.606959
O16   O     O_R   0.558500 0.094510 0.835240 -0.601512
C5    C     C_R   0.273939 0.618492 0.137607 0.948182
C6    C     C_R   0.728592 0.119212 0.861920 0.948040
O17   O     O_R   0.441080 0.595370 0.337860 -0.609185
O18   O     O_R   0.558920 0.095370 0.662140 -0.614299
C7    C     C_R   0.272707 0.619272 0.365324 0.879451
C8    C     C_R   0.727985 0.117287 0.632886 0.877611
V3    V     V_3+5 0.552850 0.510890 0.251270 1.190237
V4    V     V_3+5 0.447150 0.010890 0.748730 1.187700
O19   O     O_3   0.277800 0.441320 0.251250 -0.230906
O20   O     O_3   0.722200 0.941320 0.748750 -0.235320
C9    C     C_3   0.228416 0.636842 0.514382 -0.185968
C10   C     C_3   0.892538 0.156887 0.499491 -0.157985
H1    H     H_    0.095718 0.593225 0.506408 0.122378
H2    H     H_    0.035904 0.166319 0.528275 0.153774
C11   C     C_3   0.195616 0.708247 0.584519 -0.098205
C12   C     C_3   0.882976 0.221068 0.423446 -0.120358
H3    H     H_    0.301942 0.691551 0.630756 0.200435
H4    H     H_    0.806720 0.178996 0.377254 0.173806
H5    H     H_    0.954774 0.715178 0.422582 0.165713
H6    H     H_    0.933913 0.282850 0.625039 0.142930
C13   C     C_3   0.089780 0.758378 0.423393 -0.383912
C14   C     C_3   0.799048 0.288369 0.590340 -0.420705
C15   C     C_3   0.445855 0.752123 0.442440 -0.395610
C16   C     C_3   0.542065 0.196178 0.519025 -0.430583
C17   C     C_3   0.262108 0.690130 0.434745 0.073380
C18   C     C_3   0.738923 0.187116 0.561872 0.074881
H7    H     H_    0.467978 0.791422 0.385559 0.147917
H8    H     H_    0.426714 0.209402 0.563655 0.175279
H9    H     H_    0.575411 0.707307 0.449012 0.154163
H10   H     H_    0.500612 0.128500 0.489667 0.131986
C19   C     C_3   0.229223 0.814993 0.557670 -0.039858
C20   C     C_3   0.760735 0.313516 0.439715 -0.028826
C21   C     C_3   0.079181 0.835877 0.490254 -0.098499
C22   C     C_3   0.831277 0.359534 0.519594 -0.083654
C23   C     C_3   0.430924 0.821644 0.515023 -0.139038
C24   C     C_3   0.547356 0.277365 0.455886 -0.109507
H11   H     H_    0.539344 0.799627 0.559746 0.179164
H12   H     H_    0.489597 0.247399 0.399913 0.200458
H13   H     H_    0.096219 0.793903 0.364839 0.130676
H14   H     H_    0.684719 0.316854 0.629730 0.135375
H15   H     H_    0.114195 0.905222 0.462858 0.100426
H16   H     H_    0.747630 0.425176 0.531375 0.080303
H17   H     H_    0.594745 0.582076 0.796767 0.151482
H18   H     H_    0.407037 0.074133 0.200495 0.147004
C25   C     C_R   0.050130 0.921267 0.017532 -0.207522
C26   C     C_R   0.942961 0.427777 0.987938 -0.205709
C27   C     C_R   0.993278 0.952596 0.092493 -0.110923
C28   C     C_R   0.027026 0.457192 0.917194 -0.108687
C29   C     C_R   0.052554 0.904838 0.160232 -0.155524
C30   C     C_R   0.020128 0.399054 0.851166 -0.167559
C31   C     C_R   0.160842 0.821589 0.153826 0.006689
C32   C     C_R   0.926960 0.310546 0.854433 0.008926
C33   C     C_R   0.192110 0.779924 0.077431 0.101883
C34   C     C_R   0.841164 0.276738 0.926575 0.111878
C35   C     C_R   0.155899 0.836377 0.008165 0.083942
C36   C     C_R   0.850289 0.337683 0.995071 0.089020
C37   C     C_R   0.271357 0.687644 0.069175 -0.288987
C38   C     C_R   0.741249 0.187161 0.931349 -0.289274
C39   C     C_R   0.351338 0.660987 0.994889 0.082439
C40   C     C_R   0.655004 0.159674 0.004536 0.091577
C41   C     C_R   0.339615 0.722692 0.926983 -0.034963
C42   C     C_R   0.660778 0.221010 0.072818 -0.043642
C43   C     C_R   0.236111 0.811101 0.932824 -0.303025
C44   C     C_R   0.760731 0.311154 0.068198 -0.309550
C45   C     C_R   0.444400 0.572141 0.987234 -0.182454
C46   C     C_R   0.567324 0.068457 0.011444 -0.185295
C47   C     C_R   0.534735 0.546100 0.917191 -0.190568
C48   C     C_R   0.477468 0.039513 0.080859 -0.190715
C49   C     C_R   0.530591 0.605790 0.852161 -0.212630
C50   C     C_R   0.473590 0.099205 0.145821 -0.207238
C51   C     C_R   0.428841 0.690924 0.855037 0.376723
C52   C     C_R   0.567681 0.187355 0.143649 0.374954
H19   H     H_    0.013095 0.966116 0.967836 0.136929
H20   H     H_    0.946637 0.479131 0.035711 0.135442
H21   H     H_    0.914501 0.018151 0.098416 0.147142
H22   H     H_    0.092207 0.527052 0.912719 0.148780
H23   H     H_    0.022119 0.935472 0.218131 0.117015
H24   H     H_    0.081714 0.424350 0.795587 0.117691
H25   H     H_    0.448046 0.520520 0.034790 0.143563
H26   H     H_    0.570405 0.016365 0.964184 0.138472
H27   H     H_    0.602450 0.477538 0.912321 0.159634
H28   H     H_    0.415944 0.968976 0.085058 0.160874
N1    N     N_3   0.480526 0.918898 0.488315 -0.235274
H29   H     H_    0.444181 0.970448 0.530038 0.100602
H30   H     H_    0.412126 0.936382 0.434945 0.099221
N2    N     N_3   0.415588 0.352135 0.482366 -0.204876
H31   H     H_    0.419175 0.412389 0.446693 0.147384
H32   H     H_    0.444117 0.372860 0.540983 0.107837
N3    N     N_3   0.262354 0.788385 0.222906 -0.221710
H33   H     H_    0.406756 0.781148 0.206829 0.101155
H34   H     H_    0.268203 0.842756 0.265284 0.069877
N4    N     N_3   0.904968 0.260608 0.781389 -0.204359
H35   H     H_    0.814630 0.302281 0.747029 0.064234
H36   H     H_    0.039543 0.255341 0.753932 0.120111
N5    N     N_3   0.385329 0.571025 0.532063 -0.242924
H37   H     H_    0.507979 0.608475 0.550354 0.123567
H38   H     H_    0.343506 0.529295 0.580796 0.087690
N6    N     N_3   0.874529 0.056575 0.477581 -0.241189
H39   H     H_    0.746313 0.044364 0.446960 0.108026
H40   H     H_    0.983782 0.041990 0.436727 0.083313
N7    N     N_R   0.391633 0.734813 0.780942 0.200841
O21   O     O_R   0.214086 0.738524 0.757911 -0.526555
O22   O     O_R   0.530547 0.748200 0.729948 -0.459627
N8    N     N_R   0.585576 0.235063 0.217464 0.205332
O23   O     O_R   0.753612 0.237883 0.250604 -0.532563
O24   O     O_R   0.432695 0.251638 0.259638 -0.456805
N9    N     N_3   0.000971 0.691205 0.616423 -0.198126
H41   H     H_    0.998625 0.625003 0.644860 0.111850
H42   H     H_    0.964458 0.741055 0.659570 0.211126
N10   N     N_3   0.078297 0.241994 0.394211 -0.176267
H43   H     H_    0.165238 0.182648 0.402560 0.095971
H44   H     H_    0.073490 0.249158 0.332229 0.206025
N11   N     N_3   0.882222 0.840360 0.519491 -0.206142
H45   H     H_    0.797346 0.848931 0.468858 0.117298
H46   H     H_    0.862327 0.902857 0.551509 0.147776
N12   N     N_3   0.033678 0.387507 0.515714 -0.191291
H47   H     H_    0.070396 0.419956 0.569808 0.088112
H48   H     H_    0.050407 0.440335 0.472670 0.109731

loop_
_geom_bond_atom_site_label_1
_geom_bond_atom_site_label_2
_geom_bond_distance
_ccdc_geom_bond_type
C23   N1    1.477439 S    
C9    N5    1.469280 S    
N8    O23   1.295754 A    
C31   C33   1.425511 A    
N3    H33   1.045840 S    
C25   C35   1.417588 A    
O4    C2    1.305019 A    
V1    O19   1.709759 S    
N4    H35   1.038988 S    
N11   H45   1.042659 S    
N1    H30   1.044744 S    
C15   C23   1.564865 S    
C26   H20   1.078625 S    
C33   C37   1.422192 A    
C32   C34   1.427466 A    
C42   C44   1.442667 A    
O3    C1    1.313855 A    
N5    H38   1.045496 S    
C30   H24   1.083648 S    
C40   C46   1.420434 A    
N7    O22   1.301679 A    
C15   H9    1.110863 S    
C52   N8    1.412668 S    
C24   H12   1.103430 S    
C41   C51   1.429083 A    
C16   H10   1.107711 S    
O13   V3    1.699116 S    
N2    H31   1.037733 S    
O17   V3    2.034098 S    
H17   C49   1.083573 S    
O7    V1    2.026320 S    
C27   C29   1.385215 A    
O7    C3    1.310939 A    
O13   V1    2.156838 S    
O5    C7    1.302256 A    
C6    C38   1.508114 S    
O6    C8    1.306728 A    
O8    V2    2.035765 S    
N10   H43   1.045502 S    
C21   H15   1.103454 S    
C3    C44   1.514535 S    
C22   H16   1.113893 S    
O3    V1    2.018339 S    
O14   V4    1.711104 S    
C47   C49   1.376921 A    
C13   C17   1.555561 S    
C24   N2    1.470231 S    
C11   C19   1.583184 S    
C36   C44   1.422538 A    
C15   C17   1.546403 S    
C35   C43   1.426262 A    
C2    O12   1.321150 A    
C45   H25   1.079172 S    
C16   C24   1.557725 S    
C25   H19   1.078427 S    
H5    C13   1.114117 S    
H6    C14   1.108422 S    
O1    V3    2.026622 S    
C39   C41   1.434839 A    
N6    H40   1.044146 S    
O11   V3    2.018743 S    
C16   C18   1.554297 S    
C19   C21   1.569784 S    
C26   C36   1.421659 A    
C20   C22   1.564891 S    
V4    O20   2.158266 S    
C51   N7    1.412825 S    
N7    O21   1.296654 A    
C31   N3    1.438087 S    
C30   C32   1.399453 A    
O8    C4    1.311773 A    
C29   C31   1.402906 A    
C19   C23   1.576047 S    
H18   C50   1.083778 S    
C1    O11   1.308612 A    
C14   H14   1.110755 S    
C29   H23   1.083269 S    
C9    C11   1.564143 S    
N4    H36   1.046021 S    
C25   C27   1.389657 A    
C12   N10   1.471168 S    
C49   C51   1.398161 A    
C22   N12   1.460107 S    
C14   C22   1.566859 S    
C48   C50   1.375406 A    
C12   C20   1.584424 S    
C15   H7    1.112175 S    
O9    V1    2.013243 S    
O10   V2    2.017761 S    
C50   C52   1.397338 A    
N3    H34   1.044372 S    
C42   C52   1.430251 A    
C33   C35   1.431209 A    
C48   H28   1.079340 S    
C39   C45   1.419114 A    
N12   H48   1.041715 S    
N10   H44   1.044584 S    
C38   C40   1.417134 A    
C41   C43   1.446665 A    
C46   C48   1.379773 A    
O18   V4    2.025900 S    
C40   C42   1.433665 A    
C45   C47   1.381902 A    
C9    C17   1.547778 S    
O16   C6    1.309836 A    
O1    C3    1.301453 A    
N6    H39   1.042938 S    
C13   H13   1.102339 S    
C37   C39   1.415085 A    
N9    H41   1.046512 S    
V2    O20   1.697773 S    
C13   C21   1.565617 S    
N11   H46   1.040316 S    
C16   H8    1.113279 S    
C8    C18   1.545139 S    
N8    O24   1.299251 A    
O16   V4    2.018161 S    
C10   C12   1.564415 S    
C34   C38   1.435712 A    
C4    C43   1.523093 S    
C34   C36   1.433983 A    
C2    C19   1.574144 S    
C46   H26   1.079418 S    
N2    H32   1.043744 S    
O5    V1    2.022123 S    
O17   C7    1.305195 A    
O6    V2    2.028076 S    
N1    H29   1.040111 S    
O10   C6    1.298649 A    
O18   C8    1.307964 A    
C7    C17   1.534277 S    
O2    V4    2.022095 S    
O15   C5    1.300140 A    
C11   H3    1.099550 S    
N5    H37   1.045112 S    
C12   H4    1.107550 S    
O15   V3    2.027536 S    
C21   N11   1.456722 S    
O9    C5    1.304408 A    
C9    H1    1.112031 S    
C10   H2    1.115753 S    
C11   N9    1.472901 S    
O14   V2    2.139932 S    
O2    C4    1.303749 A    
C23   H11   1.110876 S    
N12   H47   1.046086 S    
O4    V2    2.026494 S    
C14   C18   1.555986 S    
C10   C18   1.556178 S    
C10   N6    1.462548 S    
V3    O19   2.141357 S    
C20   C24   1.587799 S    
C26   C28   1.383165 A    
C28   C30   1.376737 A    
C1    C20   1.561363 S    
C5    C37   1.504764 S    
O12   V4    2.012829 S    
C47   H27   1.080717 S    
C28   H22   1.081126 S    
C27   H21   1.081992 S    
N9    H42   1.040258 S    
C32   N4    1.419314 S    
