data_mof_unit_7519.cif
_audit_creation_date              2012-12-10T20:31:02-0500
_audit_creation_method            fapswitch 2.2
_symmetry_space_group_name_H-M    P1
_symmetry_Int_Tables_number       1
_space_group_crystal_system       triclinic
_cell_length_a                    14.896182
_cell_length_b                    10.688878
_cell_length_c                    9.931258
_cell_angle_alpha                 88.497579
_cell_angle_beta                  90.440947
_cell_angle_gamma                 91.961992
_cell_volume                      1579.78248768

loop_
_atom_site_label
_atom_site_type_symbol
_atom_type_description
_atom_site_fract_x
_atom_site_fract_y
_atom_site_fract_z
_atom_type_partial_charge
C1    C     C_R   0.505968 0.260925 0.501924 0.908898
C2    C     C_R   0.184354 0.414247 0.581235 -0.276569
C3    C     C_R   0.231609 0.498525 0.497477 -0.054126
C4    C     C_R   0.327118 0.499187 0.499462 0.898431
C5    C     C_R   0.188591 0.581425 0.410189 -0.276478
C6    C     C_R   0.512842 0.060858 0.623849 -0.000575
C7    C     C_R   0.527766 0.132078 0.507101 -0.251864
C8    C     C_R   0.563456 0.075289 0.393909 0.433464
C9    C     C_R   0.551484 0.945373 0.382599 -0.164586
C10   C     C_R   0.517842 0.874394 0.496151 -0.236227
C11   C     C_R   0.509215 0.933828 0.618651 0.099496
C12   C     C_R   0.907542 0.581369 0.409377 0.060134
C13   C     C_3   0.438654 0.921228 0.725466 0.343653
C14   C     C_3   0.442039 0.063620 0.729311 -0.530234
C15   C     C_R   0.422998 0.475297 0.069604 0.116271
C16   C     C_R   0.502927 0.740714 0.497954 0.933586
C17   C     C_R   0.570595 0.552488 0.071256 -0.177025
C18   C     C_R   0.574222 0.540085 0.927482 0.513438
C19   C     C_R   0.422459 0.478408 0.928769 0.051342
C20   C     C_3   0.357300 0.369910 0.922764 -0.565285
C21   C     C_3   0.356231 0.368125 0.077226 0.325001
C22   C     C_R   0.672844 0.498777 0.499879 0.856234
C23   C     C_R   0.950288 0.318038 0.652794 -0.227536
C24   C     C_R   0.814756 0.582132 0.413791 -0.239485
C25   C     C_R   0.768186 0.495819 0.496858 -0.048592
C26   C     C_R   0.812029 0.404130 0.571390 -0.300269
C27   C     C_R   0.904991 0.404187 0.571332 0.132948
C28   C     C_R   0.953186 0.493914 0.490451 0.059124
C29   C     C_2   0.564476 0.892669 0.247957 0.450793
C30   C     C_3   0.297468 0.843310 0.781147 0.100874
C31   C     C_3   0.207093 0.798319 0.725065 -0.784311
C32   C     C_2   0.636942 0.636370 0.139720 0.444632
C33   C     C_3   0.719859 0.494691 0.883750 0.173265
C34   C     C_R   0.043464 0.321963 0.656565 -0.217958
C35   C     C_3   0.810166 0.558145 0.848569 -0.717169
C36   C     C_3   0.322614 0.165306 0.144168 0.122038
C37   C     C_3   0.360555 0.042615 0.194614 -0.798238
C38   C     C_2   0.095260 0.771074 0.240592 0.380175
C39   C     C_3   0.686205 0.184137 0.316236 0.194580
C40   C     C_3   0.722774 0.268151 0.202349 -0.772946
C41   C     C_R   0.091641 0.410590 0.577039 0.138466
C42   C     C_R   0.046659 0.496624 0.491705 0.060708
C43   C     C_R   0.095165 0.585111 0.408530 0.015030
C44   C     C_R   0.048688 0.672451 0.325877 -0.017286
C45   C     C_R   0.954732 0.668538 0.327547 -0.185906
H1    H     H_    0.778630 0.651157 0.354838 0.161695
H2    H     H_    0.077902 0.255737 0.721427 0.149833
H3    H     H_    0.220016 0.349467 0.646512 0.138009
H4    H     H_    0.229637 0.642621 0.345947 0.137127
H5    H     H_    0.917853 0.735370 0.266652 0.205763
H6    H     H_    0.514180 0.829537 0.205110 0.055625
H7    H     H_    0.286763 0.927209 0.842641 0.136760
H8    H     H_    0.324378 0.766888 0.846643 0.136650
H9    H     H_    0.215297 0.712265 0.667010 0.260749
H10   H     H_    0.159747 0.776796 0.809009 0.222441
H11   H     H_    0.178664 0.871935 0.657957 0.251296
H12   H     H_    0.464566 0.872963 0.818200 0.076629
H13   H     H_    0.625836 0.664699 0.240414 0.124815
H14   H     H_    0.708851 0.410097 0.822653 0.127543
H15   H     H_    0.724088 0.462451 0.990823 0.118276
H16   H     H_    0.827987 0.631606 0.921885 0.283585
H17   H     H_    0.863452 0.488014 0.851923 0.192466
H18   H     H_    0.807581 0.602972 0.746727 0.259445
H19   H     H_    0.290710 0.148750 0.044002 0.124259
H20   H     H_    0.270458 0.192845 0.216477 0.136923
H21   H     H_    0.385742 0.052629 0.299236 0.259102
H22   H     H_    0.307125 0.967573 0.194092 0.191854
H23   H     H_    0.379704 0.107953 0.692198 0.209654
H24   H     H_    0.415891 0.015941 0.128045 0.252636
H25   H     H_    0.164695 0.799268 0.258242 0.050362
H26   H     H_    0.729245 0.101172 0.326808 0.155036
H27   H     H_    0.690453 0.237816 0.410767 0.091174
H28   H     H_    0.792396 0.301171 0.226566 0.203686
H29   H     H_    0.723002 0.216021 0.107085 0.253956
H30   H     H_    0.679944 0.350393 0.188998 0.258463
H31   H     H_    0.469160 0.099147 0.826153 0.189488
H32   H     H_    0.292084 0.396673 0.877364 0.170133
H33   H     H_    0.387256 0.286729 0.878587 0.221201
H34   H     H_    0.291882 0.397000 0.121958 0.058049
H35   H     H_    0.773823 0.334424 0.630358 0.131277
H36   H     H_    0.913665 0.249313 0.715163 0.154812
N1    N     N_R   0.499390 0.499140 0.142800 -0.149199
N2    N     N_R   0.499390 0.499180 0.857150 -0.149553
O1    O     O_R   0.500010 0.316790 0.614690 -0.632318
O2    O     O_3   0.356426 0.872601 0.673458 -0.592158
O3    O     O_2   0.701973 0.684096 0.082044 -0.545923
O4    O     O_3   0.650321 0.579664 0.857564 -0.548394
O5    O     O_3   0.392266 0.258347 0.134632 -0.535172
O6    O     O_2   0.055378 0.824568 0.149160 -0.575937
O7    O     O_3   0.596591 0.146858 0.286034 -0.537294
O8    O     O_R   0.500000 0.316760 0.385350 -0.520163
O9    O     O_R   0.367850 0.499990 0.614680 -0.610589
O10   O     O_R   0.367840 0.499950 0.385340 -0.625919
O11   O     O_R   0.500000 0.683240 0.614650 -0.579083
O12   O     O_R   0.499990 0.683210 0.385310 -0.689034
O13   O     O_R   0.632160 0.500050 0.614660 -0.579400
O14   O     O_R   0.632150 0.500010 0.385320 -0.670192
O15   O     O_2   0.630065 0.923749 0.180417 -0.526648
Zn1   Zn    Zn3+2 0.500010 0.500020 0.653130 0.985242
Zn2   Zn    Zn3+2 0.499990 0.499980 0.346870 0.961047

loop_
_geom_bond_atom_site_label_1
_geom_bond_atom_site_label_2
_ccdc_geom_bond_type
C38   H25   S    
C37   H24   S    
C41   C42   A    
C19   C20   S    
C32   H13   S    
C7    C8    A    
C36   O5    S    
C1    O1    A    
C15   C19   A    
C38   O6    D    
C26   C27   A    
C29   O15   D    
C12   C28   A    
C45   H5    S    
C36   C37   S    
C30   C31   S    
C13   H12   S    
C2    C41   A    
O13   Zn1   S    
C40   H28   S    
C17   N1    A    
C8    C9    A    
C22   C25   S    
C39   H27   S    
C23   C27   A    
O8    Zn2   S    
C9    C10   A    
C39   O7    S    
C9    C29   S    
C5    C43   A    
C21   O5    S    
C33   H14   S    
C22   O14   A    
N2    Zn1   S    
C13   C14   S    
C5    H4    S    
C34   C41   A    
C22   O13   A    
C19   N2    A    
C17   C18   A    
C15   N1    A    
C30   H8    S    
C24   C25   A    
C39   C40   S    
O12   Zn2   S    
C2    H3    S    
C25   C26   A    
C26   H35   S    
C14   H31   S    
C43   C44   A    
C38   C44   S    
C6    C14   S    
C23   C34   A    
C32   O3    D    
C37   H21   S    
C21   H34   S    
C18   N2    A    
C35   H16   S    
C30   O2    S    
O10   Zn2   S    
C20   H32   S    
C33   H15   S    
C31   H11   S    
C8    O7    S    
C42   C43   A    
C3    C4    S    
C6    C11   A    
O14   Zn2   S    
C44   C45   A    
C29   H6    S    
C30   H7    S    
C16   O12   A    
C14   H23   S    
C23   H36   S    
C1    C7    S    
O1    Zn1   S    
N1    Zn2   S    
C12   C45   A    
C3    C5    A    
C6    C7    A    
C12   C24   A    
C16   O11   A    
C18   O4    S    
C40   H30   S    
C20   H33   S    
C24   H1    S    
C36   H20   S    
C2    C3    A    
C33   O4    S    
C10   C16   S    
C11   C13   S    
O11   Zn1   S    
C37   H22   S    
C28   C42   A    
C33   C35   S    
C40   H29   S    
C35   H17   S    
C31   H9    S    
C10   C11   A    
C4    O10   A    
C15   C21   S    
C20   C21   S    
C1    O8    A    
C13   O2    S    
C27   C28   A    
C17   C32   S    
C39   H26   S    
C35   H18   S    
C34   H2    S    
C31   H10   S    
C36   H19   S    
O9    Zn1   S    
C4    O9    A    
