data_mof_unit_48361.cif
_audit_creation_date              2012-12-11T14:29:25-0500
_audit_creation_method            fapswitch 2.2
_symmetry_space_group_name_H-M    P1
_symmetry_Int_Tables_number       1
_space_group_crystal_system       triclinic
_cell_length_a                    6.938847
_cell_length_b                    14.735224
_cell_length_c                    16.236683
_cell_angle_alpha                 90.459713
_cell_angle_beta                  89.850145
_cell_angle_gamma                 89.883536
_cell_volume                      1660.06458555

loop_
_atom_site_label
_atom_site_type_symbol
_atom_type_description
_atom_site_fract_x
_atom_site_fract_y
_atom_site_fract_z
_atom_type_partial_charge
O1    O     O_R   0.494400 0.416610 0.413880 -0.544574
O2    O     O_R   0.823920 0.406790 0.585520 -0.543589
O3    O     O_R   0.994250 0.583390 0.586120 -0.539150
C1    C     C_R   0.654626 0.384993 0.613477 0.735610
O4    O     O_R   0.824110 0.405730 0.414490 -0.503098
O5    O     O_R   0.994440 0.582310 0.413870 -0.540590
C2    C     C_R   0.655724 0.383653 0.386139 0.778241
O6    O     O_R   0.494210 0.417690 0.586130 -0.548295
O7    O     O_3   0.660810 0.557940 0.500000 -0.376557
V1    V     V_3+5 0.935650 0.489250 0.500000 1.451838
O8    O     O_R   0.324160 0.593210 0.414480 -0.545902
C3    C     C_R   0.155475 0.615008 0.386359 0.743139
O9    O     O_R   0.323970 0.594270 0.585510 -0.540224
C4    C     C_R   0.154880 0.616189 0.613862 0.687882
V2    V     V_3+5 0.435660 0.510750 0.500000 1.415170
O10   O     O_3   0.160630 0.442060 0.500000 -0.366218
H1    H     H_    0.842633 0.895732 0.518812 0.110299
C5    C     C_R   0.307030 0.577420 0.775926 -0.142081
C6    C     C_R   0.380729 0.556279 0.853157 -0.123187
C7    C     C_R   0.368657 0.618921 0.917349 -0.118185
C8    C     C_R   0.282934 0.703233 0.904808 -0.131348
C9    C     C_R   0.209008 0.727293 0.826745 0.069072
C10   C     C_R   0.221187 0.662962 0.760856 0.069995
C11   C     C_R   0.120317 0.812953 0.814256 -0.185713
C12   C     C_R   0.043984 0.834164 0.735661 0.069085
C13   C     C_R   0.056100 0.769817 0.669773 0.069261
C14   C     C_R   0.144458 0.684075 0.682310 -0.183902
C15   C     C_R   0.958871 0.919858 0.720519 -0.140918
C16   C     C_R   0.886078 0.941196 0.643171 -0.126785
C17   C     C_R   0.897998 0.878522 0.578988 -0.124439
C18   C     C_R   0.982727 0.793994 0.591644 -0.131468
H2    H     H_    0.317019 0.525509 0.728659 0.109649
H3    H     H_    0.446203 0.490583 0.863386 0.116642
H4    H     H_    0.424691 0.601855 0.977444 0.114593
H5    H     H_    0.273995 0.748706 0.957288 0.107258
H6    H     H_    0.948969 0.971761 0.767805 0.109667
H7    H     H_    0.821425 0.007059 0.632853 0.117485
H8    H     H_    0.991553 0.748474 0.539189 0.105506
C19   C     C_2   0.985364 0.709917 0.283209 -0.132436
C20   C     C_2   0.150357 0.682788 0.319524 -0.313716
H9    H     H_    0.849391 0.681943 0.304311 0.135812
H10   H     H_    0.287961 0.710196 0.300553 0.127194
C21   C     C_2   0.972977 0.777397 0.215229 -0.136266
C22   C     C_2   0.126178 0.814564 0.177167 -0.313035
H11   H     H_    0.828974 0.796454 0.195710 0.134012
H12   H     H_    0.271299 0.796158 0.194875 0.129107
C23   C     C_2   0.779339 0.207063 0.780517 -0.138345
C24   C     C_2   0.614252 0.179413 0.816444 -0.311538
H13   H     H_    0.915356 0.178537 0.800953 0.135077
H14   H     H_    0.476285 0.206255 0.797367 0.127248
C25   C     C_2   0.791294 0.275449 0.713443 -0.135798
C26   C     C_2   0.638142 0.317462 0.679873 -0.310915
H15   H     H_    0.934827 0.291375 0.691036 0.132801
H16   H     H_    0.493335 0.302804 0.700713 0.126513
C27   C     C_2   0.778343 0.204937 0.216155 -0.241190
C28   C     C_2   0.612279 0.176274 0.181916 -0.373251
H17   H     H_    0.913670 0.181439 0.189791 0.155105
H18   H     H_    0.474333 0.196323 0.207750 0.139333
C29   C     C_2   0.792548 0.265033 0.290915 0.448580
C30   C     C_2   0.644050 0.318333 0.316353 -0.391160
H19   H     H_    0.506675 0.315611 0.284917 0.112427
O11   O     O_R   0.770210 0.079270 0.910680 -0.541265
O12   O     O_R   0.440150 0.091160 0.082270 -0.545892
O13   O     O_R   0.269970 0.914530 0.082860 -0.545296
C31   C     C_R   0.608257 0.112291 0.111285 0.773545
O14   O     O_R   0.440480 0.090100 0.911240 -0.544885
O15   O     O_R   0.270310 0.913460 0.910610 -0.536770
C32   C     C_R   0.609198 0.111658 0.883039 0.746804
O16   O     O_R   0.769870 0.080340 0.082930 -0.539077
O17   O     O_3   0.603660 0.938980 0.996790 -0.370950
V3    V     V_3+5 0.328750 0.007610 0.996740 1.401694
O18   O     O_R   0.940600 0.902510 0.911180 -0.538519
C33   C     C_R   0.109717 0.880749 0.882758 0.695559
O19   O     O_R   0.940270 0.903570 0.082200 -0.540668
C34   C     C_R   0.109494 0.881913 0.110387 0.733273
V4    V     V_3+5 0.828770 0.986010 0.996670 1.412821
O20   O     O_3   0.103730 0.054750 0.996710 -0.373419
O21   O     O_3   0.968862 0.272445 0.330761 -0.538527
C35   C     C_3   0.027919 0.186642 0.359805 0.092183
H20   H     H_    0.093388 0.146081 0.308873 0.109944
H21   H     H_    0.905837 0.148007 0.387396 0.102474
C36   C     C_3   0.179361 0.200014 0.426358 -0.681821
H22   H     H_    0.117793 0.239917 0.478502 0.221736
H23   H     H_    0.227908 0.133042 0.449446 0.160498
H24   H     H_    0.305472 0.236677 0.400970 0.216828

loop_
_geom_bond_atom_site_label_1
_geom_bond_atom_site_label_2
_ccdc_geom_bond_type
O14   C32   A    
C27   C28   D    
O12   C31   A    
C27   C29   S    
C6    C7    A    
O18   V4    S    
C19   H9    S    
C12   C15   A    
C13   C14   A    
O19   V4    S    
C1    C26   S    
C15   C16   A    
O5    C3    A    
C17   C18   A    
C11   C33   S    
C28   C31   S    
O16   V4    S    
C5    C6    A    
O13   V3    S    
O8    V2    S    
C23   C24   D    
C22   H12   S    
C11   C12   A    
O17   V3    S    
O15   C33   A    
C10   C14   A    
C4    C14   S    
O7    V1    S    
C1    O6    A    
C7    H4    S    
C20   H10   S    
C29   C30   D    
O9    C4    A    
H1    C17   S    
O11   V4    S    
C29   O21   S    
C26   H16   S    
O19   C34   A    
C5    C10   A    
V4    O20   S    
C23   H13   S    
C6    H3    S    
C19   C20   D    
C35   H21   S    
O21   C35   S    
C19   C21   S    
C12   C13   A    
C25   C26   D    
C30   H19   S    
C25   H15   S    
C3    C20   S    
C22   C34   S    
O2    C1    A    
C21   C22   D    
C16   C17   A    
O14   V3    S    
C24   C32   S    
C21   H11   S    
O3    C4    A    
O1    V2    S    
O12   V3    S    
O6    V2    S    
C36   H23   S    
C27   H17   S    
O17   V4    S    
C9    C11   A    
C5    H2    S    
O2    V1    S    
C2    C30   S    
V3    O20   S    
O4    C2    A    
O1    C2    A    
O18   C33   A    
O5    V1    S    
C35   C36   S    
C23   C25   S    
O8    C3    A    
C8    H5    S    
C36   H24   S    
C18   H8    S    
O11   C32   A    
O9    V2    S    
O7    V2    S    
O4    V1    S    
O3    V1    S    
V1    O10   S    
C31   O16   A    
C24   H14   S    
O13   C34   A    
C28   H18   S    
O15   V3    S    
C35   H20   S    
C13   C18   A    
C7    C8    A    
C15   H6    S    
C36   H22   S    
C16   H7    S    
C9    C10   A    
C8    C9    A    
V2    O10   S    
