data_mof_unit_12788.cif
_audit_creation_date              2012-12-10T18:03:35-0500
_audit_creation_method            fapswitch 2.2
_symmetry_space_group_name_H-M    P1
_symmetry_Int_Tables_number       1
_space_group_crystal_system       triclinic
_cell_length_a                    10.982441
_cell_length_b                    9.653829
_cell_length_c                    19.348988
_cell_angle_alpha                 90.289202
_cell_angle_beta                  96.740391
_cell_angle_gamma                 90.147993
_cell_volume                      2037.21462486

loop_
_atom_site_label
_atom_site_type_symbol
_atom_type_description
_atom_site_fract_x
_atom_site_fract_y
_atom_site_fract_z
_atom_type_partial_charge
C1    C     C_R   0.872439 0.501114 0.501828 -0.319495
C2    C     C_R   0.127590 0.500559 0.499367 -0.319105
C3    C     C_R   0.618389 0.529573 0.966072 -0.172625
C4    C     C_R   0.429780 0.431224 0.038231 -0.184711
C5    C     C_R   0.632312 0.532141 0.038540 -0.146828
C6    C     C_R   0.414641 0.431702 0.965675 -0.111828
C7    C     C_R   0.538090 0.482832 0.074791 0.223493
C8    C     C_R   0.508812 0.481256 0.929123 0.225786
C9    C     C_R   0.262118 0.499918 0.499728 0.863758
C10   C     C_R   0.737882 0.500209 0.500620 0.859172
C11   C     C_R   0.516899 0.499716 0.369428 0.872838
C12   C     C_R   0.486745 0.500261 0.631227 0.872095
C13   C     C_R   0.059599 0.376194 0.492357 0.363360
C14   C     C_R   0.935721 0.626882 0.494357 0.329457
C15   C     C_R   0.939679 0.377013 0.510320 0.359705
C16   C     C_R   0.065028 0.626884 0.506187 0.331748
C17   C     C_R   0.438694 0.375950 0.739811 0.295448
C18   C     C_R   0.558850 0.621515 0.258173 0.277330
C19   C     C_R   0.574595 0.372201 0.262778 0.295713
C20   C     C_R   0.473428 0.622485 0.746271 0.268125
C21   C     C_R   0.456807 0.368017 0.812668 0.354538
C22   C     C_R   0.551232 0.616810 0.185313 0.362376
C23   C     C_R   0.571624 0.366391 0.190104 0.368082
C24   C     C_R   0.498974 0.615658 0.819039 0.391834
C25   C     C_R   0.491388 0.487341 0.852402 -0.241763
C26   C     C_R   0.551345 0.488295 0.151105 -0.254532
C27   C     C_R   0.459825 0.072378 0.440827 0.433567
C28   C     C_R   0.544693 0.926500 0.558230 0.430967
C29   C     C_R   0.539296 0.073613 0.559358 0.436379
C30   C     C_R   0.455256 0.925254 0.441725 0.431709
C31   C     C_R   0.466208 0.499747 0.706195 -0.366070
C32   C     C_R   0.548779 0.497979 0.296181 -0.372854
Cu1   Cu    Cu3+1 0.500000 0.640660 0.500000 1.035170
Cu2   Cu    Cu3+1 0.500000 0.359340 0.500000 1.043988
H1    H     H_    0.692813 0.565881 0.938837 0.133397
H2    H     H_    0.356210 0.393703 0.065933 0.139649
H3    H     H_    0.716653 0.571550 0.066477 0.147413
H4    H     H_    0.328819 0.395671 0.938081 0.169857
N1    N     N_R   0.500000 0.852070 0.500000 -0.309997
N2    N     N_R   0.500000 0.147930 0.500000 -0.297463
O1    O     O_R   0.319640 0.618740 0.500000 -0.571515
O2    O     O_R   0.680360 0.381260 0.500000 -0.542793
O3    O     O_R   0.680360 0.618740 0.500000 -0.573048
O4    O     O_R   0.319640 0.381260 0.500000 -0.544517
O5    O     O_R   0.500020 0.618830 0.400190 -0.504365
O6    O     O_R   0.499980 0.381170 0.599810 -0.522285
O7    O     O_R   0.499980 0.618830 0.599810 -0.502771
O8    O     O_R   0.500020 0.381170 0.400190 -0.521366
O9    O     O_3   0.444368 0.134677 0.376346 -0.451972
C33   C     C_3   0.323121 0.180160 0.358979 -0.203418
H5    H     H_    0.280012 0.211805 0.405033 0.191160
H6    H     H_    0.268212 0.101641 0.327291 0.135765
H7    H     H_    0.323881 0.272127 0.324927 0.158305
O10   O     O_3   0.575215 0.860124 0.620667 -0.464148
C34   C     C_3   0.702225 0.835881 0.632996 -0.251526
H8    H     H_    0.725123 0.734299 0.611489 0.173665
H9    H     H_    0.728544 0.831051 0.690040 0.159053
H10   H     H_    0.758151 0.918590 0.612898 0.075340
O11   O     O_3   0.550227 0.136283 0.624111 -0.461271
C35   C     C_3   0.671115 0.181506 0.644483 -0.238770
H11   H     H_    0.715789 0.219848 0.600190 0.199795
H12   H     H_    0.725302 0.100776 0.674184 0.133871
H13   H     H_    0.668624 0.269343 0.681435 0.148640
O12   O     O_3   0.425108 0.857959 0.379040 -0.460151
C36   C     C_3   0.298125 0.832912 0.366298 -0.237013
H14   H     H_    0.274920 0.731628 0.387748 0.168876
H15   H     H_    0.272416 0.827026 0.309183 0.164623
H16   H     H_    0.242024 0.915590 0.386300 0.069905
O13   O     O_3   0.112631 0.252292 0.475586 -0.570248
C37   C     C_3   0.047239 0.197604 0.413905 -0.337491
H17   H     H_    0.053420 0.268521 0.369267 0.149599
H18   H     H_    0.949702 0.174801 0.419046 0.239166
H19   H     H_    0.088584 0.097277 0.401613 0.149136
O14   O     O_3   0.876184 0.732164 0.455284 -0.542124
C38   C     C_3   0.860554 0.850921 0.495860 -0.177454
H20   H     H_    0.905043 0.845129 0.550520 0.129828
H21   H     H_    0.761238 0.870321 0.495309 0.185290
H22   H     H_    0.897541 0.942114 0.470601 0.176708
O15   O     O_3   0.885354 0.254290 0.527762 -0.572533
C39   C     C_3   0.949836 0.201885 0.589804 -0.319823
H23   H     H_    0.944322 0.274977 0.633987 0.155020
H24   H     H_    0.047111 0.177689 0.584831 0.239973
H25   H     H_    0.907200 0.102655 0.602613 0.148643
O16   O     O_3   0.125267 0.733510 0.544778 -0.539701
C40   C     C_3   0.140265 0.851265 0.503905 -0.181308
H26   H     H_    0.095681 0.843409 0.449294 0.129270
H27   H     H_    0.239481 0.871537 0.504232 0.182135
H28   H     H_    0.103157 0.942869 0.529037 0.179372
Cl1   Cl    Cl    0.354976 0.241151 0.694024 -0.461796
Cl2   Cl    Cl    0.611261 0.777450 0.299142 -0.422522
Cl3   Cl    Cl    0.641232 0.230609 0.310331 -0.480930
Cl4   Cl    Cl    0.408701 0.777238 0.711089 -0.433257
O17   O     O_3   0.432326 0.245642 0.845225 -0.528070
C41   C     C_3   0.539336 0.164317 0.851657 -0.212053
H29   H     H_    0.617680 0.219124 0.881906 0.111992
H30   H     H_    0.564020 0.132468 0.799743 0.192529
H31   H     H_    0.521191 0.069097 0.880538 0.212274
O18   O     O_3   0.553924 0.738022 0.147653 -0.529291
C42   C     C_3   0.434093 0.792096 0.137069 -0.185131
H32   H     H_    0.400386 0.820909 0.187236 0.178787
H33   H     H_    0.369482 0.717890 0.107612 0.122362
H34   H     H_    0.435580 0.887656 0.105577 0.202672
O19   O     O_3   0.582345 0.239765 0.157413 -0.527528
C43   C     C_3   0.704743 0.222142 0.143581 -0.184193
H35   H     H_    0.771505 0.237215 0.190952 0.171939
H36   H     H_    0.727453 0.292674 0.101817 0.122142
H37   H     H_    0.715539 0.114495 0.124968 0.196816
O20   O     O_3   0.516459 0.735362 0.858860 -0.520678
C44   C     C_3   0.628163 0.798550 0.846614 -0.292259
H38   H     H_    0.615040 0.863963 0.799355 0.210362
H39   H     H_    0.702993 0.722408 0.841974 0.115015
H40   H     H_    0.659306 0.867011 0.891445 0.169609

loop_
_geom_bond_atom_site_label_1
_geom_bond_atom_site_label_2
_ccdc_geom_bond_type
C34   H8    S    
C4    H2    S    
O17   C41   S    
C22   O18   S    
C5    H3    S    
C10   O2    A    
Cu1   O5    S    
Cu2   O2    S    
C43   H36   S    
C40   H26   S    
C20   Cl4   S    
Cu1   N1    S    
C7    C26   S    
C13   O13   S    
C35   H13   S    
Cu2   N2    S    
C14   O14   S    
C28   C29   A    
C30   O12   S    
C44   H39   S    
C16   O16   S    
O20   C44   S    
C35   H12   S    
C23   C26   A    
C2    C13   A    
C23   O19   S    
C20   C24   A    
C36   H15   S    
C33   H6    S    
C6    H4    S    
C37   H17   S    
Cu2   O6    S    
C2    C16   A    
O11   C35   S    
C27   C30   A    
C8    C25   S    
C11   O8    A    
C41   H29   S    
C12   O7    A    
C19   C32   A    
C43   H35   S    
C33   H5    S    
C40   H27   S    
C15   O15   S    
C33   H7    S    
O14   C38   S    
C18   Cl2   S    
C29   O11   S    
Cu2   O4    S    
C24   C25   A    
C12   O6    A    
C3    C8    A    
C44   H40   S    
C5    C7    A    
C28   O10   S    
C6    C8    A    
C41   H31   S    
C4    C7    A    
C17   C21   A    
C35   H11   S    
Cu1   O3    S    
C19   C23   A    
C38   H20   S    
C42   H32   S    
C3    H1    S    
C27   N2    A    
C36   H16   S    
C37   H19   S    
Cu1   Cu2   S    
C17   Cl1   S    
O16   C40   S    
C41   H30   S    
C38   H21   S    
C1    C15   A    
C4    C6    A    
C42   H33   S    
C11   C32   S    
O18   C42   S    
C13   C15   A    
C12   C31   S    
C17   C31   A    
C14   C16   A    
C11   O5    A    
Cu2   O8    S    
C39   H25   S    
C40   H28   S    
C21   C25   A    
O10   C34   S    
C9    O4    A    
C10   O3    A    
C18   C22   A    
C1    C10   S    
C39   H23   S    
C3    C5    A    
C9    O1    A    
C28   N1    A    
Cu1   O1    S    
O12   C36   S    
C34   H9    S    
C44   H38   S    
C21   O17   S    
Cu1   O7    S    
C29   N2    A    
C39   H24   S    
C30   N1    A    
C36   H14   S    
O13   C37   S    
C38   H22   S    
C19   Cl3   S    
O15   C39   S    
C42   H34   S    
C18   C32   A    
O9    C33   S    
C22   C26   A    
C34   H10   S    
O19   C43   S    
C37   H18   S    
C1    C14   A    
C2    C9    S    
C43   H37   S    
C24   O20   S    
C27   O9    S    
C20   C31   A    
