data_mof_unit_63505.cif
_audit_creation_date              2012-12-10T21:32:46-0500
_audit_creation_method            fapswitch 2.2
_symmetry_space_group_name_H-M    P1
_symmetry_Int_Tables_number       1
_space_group_crystal_system       triclinic
_cell_length_a                    11.549618
_cell_length_b                    16.195455
_cell_length_c                    16.653663
_cell_angle_alpha                 86.940753
_cell_angle_beta                  91.248932
_cell_angle_gamma                 92.257861
_cell_volume                      3107.62980006

loop_
_atom_site_label
_atom_site_type_symbol
_atom_type_description
_atom_site_fract_x
_atom_site_fract_y
_atom_site_fract_z
_atom_type_partial_charge
C1    C     C_R   0.495136 0.488351 0.652999 0.929373
C2    C     C_R   0.504218 0.511597 0.346889 0.995986
C3    C     C_R   0.538714 0.416662 0.782319 -0.357803
C4    C     C_R   0.471365 0.586943 0.216847 -0.394165
C5    C     C_R   0.443299 0.764604 0.460809 0.448820
C6    C     C_R   0.556679 0.235384 0.539195 0.448454
C7    C     C_R   0.447256 0.851234 0.463523 -0.375590
C8    C     C_R   0.552724 0.148756 0.536466 -0.376663
C9    C     C_R   0.524256 0.891082 0.516960 0.203913
C10   C     C_R   0.475754 0.108919 0.483002 0.203433
C11   C     C_R   0.596283 0.842019 0.566951 0.316761
C12   C     C_R   0.403761 0.157991 0.432996 0.313065
C13   C     C_R   0.590075 0.754182 0.562353 0.325859
C14   C     C_R   0.409958 0.245826 0.437617 0.326740
C15   C     C_R   0.718128 0.499813 0.500137 0.926103
C16   C     C_R   0.281873 0.500186 0.499880 0.887847
C17   C     C_1   0.838531 0.499548 0.500133 -0.094909
C18   C     C_1   0.161477 0.500446 0.499971 -0.097624
C19   C     C_1   0.940681 0.499765 0.500109 0.054210
C20   C     C_1   0.059330 0.500229 0.500045 0.055942
C21   C     C_R   0.479359 0.478835 0.739202 -0.288982
C22   C     C_R   0.519893 0.520312 0.260563 -0.164028
C23   C     C_R   0.405302 0.530213 0.778986 0.431968
C24   C     C_R   0.588028 0.464427 0.222602 0.307685
C25   C     C_R   0.400432 0.523443 0.862539 0.375240
C26   C     C_R   0.594068 0.469766 0.138005 0.284143
C27   C     C_R   0.468759 0.464851 0.905834 0.060381
C28   C     C_R   0.537683 0.533965 0.094350 0.219012
C29   C     C_R   0.533423 0.409089 0.866006 0.466928
C30   C     C_R   0.481290 0.594751 0.133366 0.385890
H1    H     H_    0.592875 0.376246 0.751052 0.231038
H2    H     H_    0.422818 0.631306 0.247431 0.233370
H3    H     H_    0.609800 0.113237 0.576131 0.244119
H4    H     H_    0.390159 0.886746 0.423866 0.243574
N1    N     N_2   0.481243 0.465879 0.989609 -0.080769
N2    N     N_2   0.525855 0.532897 0.010345 -0.064365
N3    N     N_R   0.513820 0.716920 0.509720 -0.164722
N4    N     N_R   0.486180 0.283080 0.490280 -0.162174
N5    N     N_2   0.532972 0.979546 0.523004 -0.076401
N6    N     N_2   0.467035 0.020454 0.476951 -0.076873
O1    O     O_R   0.495050 0.422540 0.612660 -0.585996
O2    O     O_R   0.504950 0.577460 0.387340 -0.603966
O3    O     O_R   0.503930 0.561840 0.618900 -0.559934
O4    O     O_R   0.496070 0.438160 0.381100 -0.521836
O5    O     O_R   0.661110 0.430350 0.496870 -0.564678
O6    O     O_R   0.338890 0.569650 0.503130 -0.581258
O7    O     O_R   0.669990 0.569650 0.503110 -0.576576
O8    O     O_R   0.330010 0.430350 0.496890 -0.576851
Zn1   Zn    Zn3+2 0.494070 0.406980 0.495830 1.086457
Zn2   Zn    Zn3+2 0.505930 0.593020 0.504170 1.069443
O9    O     O_3   0.648995 0.407332 0.269506 -0.731243
H5    H     H_    0.719627 0.394064 0.240891 0.352971
O10   O     O_3   0.334973 0.586525 0.738749 -0.652997
H6    H     H_    0.317609 0.568216 0.683888 0.323584
O11   O     O_3   0.650304 0.412567 0.095844 -0.678347
H7    H     H_    0.648722 0.358955 0.127376 0.365677
O12   O     O_3   0.327711 0.574662 0.899808 -0.636872
H8    H     H_    0.316743 0.554096 0.956287 0.361092
O13   O     O_3   0.595662 0.351080 0.910669 -0.664820
H9    H     H_    0.637164 0.317094 0.873602 0.354435
O14   O     O_3   0.430103 0.657728 0.087951 -0.690721
H10   H     H_    0.393025 0.694781 0.124462 0.364270
Cl1   Cl    Cl    0.654555 0.280647 0.607410 -0.558026
Cl2   Cl    Cl    0.345400 0.719318 0.392615 -0.557036
O15   O     O_3   0.671137 0.882685 0.618959 -0.694658
H11   H     H_    0.716102 0.842674 0.652298 0.393535
O16   O     O_3   0.328947 0.117336 0.380955 -0.698351
H12   H     H_    0.284052 0.157357 0.347575 0.390888
Cl3   Cl    Cl    0.681517 0.692277 0.624150 -0.527637
Cl4   Cl    Cl    0.318532 0.307737 0.375813 -0.545333

loop_
_geom_bond_atom_site_label_1
_geom_bond_atom_site_label_2
_ccdc_geom_bond_type
C6    Cl1   S    
C2    C22   S    
O11   H7    S    
C6    N4    A    
O3    Zn2   S    
C1    C21   S    
C5    N3    A    
C14   N4    A    
C14   Cl4   S    
O6    Zn2   S    
C26   C28   A    
C19   C20   S    
O5    Zn1   S    
C9    C11   A    
C27   N1    S    
C26   O11   S    
C16   O8    A    
C24   O9    S    
C21   C23   A    
C12   C14   A    
C5    C7    A    
O13   H9    S    
N4    Zn1   S    
O10   H6    S    
C3    H1    S    
N3    Zn2   S    
C11   C13   A    
C24   C26   A    
O12   H8    S    
C4    H2    S    
C10   C12   A    
O2    Zn2   S    
C1    O1    A    
O8    Zn1   S    
C12   O16   S    
C2    O2    A    
C23   O10   S    
O7    Zn2   S    
C18   C20   T    
C8    H3    S    
C23   C25   A    
O14   H10   S    
C8    C10   A    
C7    H4    S    
C22   C24   A    
C3    C21   A    
C25   C27   A    
C15   O5    A    
C16   O6    A    
O16   H12   S    
C25   O12   S    
C11   O15   S    
C9    N5    S    
C4    C22   A    
C27   C29   A    
C28   N2    S    
C3    C29   A    
O15   H11   S    
C30   O14   S    
O1    Zn1   S    
N5    N6    D    
C7    C9    A    
C13   Cl3   S    
C29   O13   S    
C15   O7    A    
C10   N6    S    
C6    C8    A    
C17   C19   T    
C15   C17   S    
C13   N3    A    
C1    O3    A    
O4    Zn1   S    
C4    C30   A    
O9    H5    S    
C5    Cl2   S    
C2    O4    A    
C28   C30   A    
N1    N2    D    
C16   C18   S    
