data_mof_unit_61672.cif
_audit_creation_date              2012-10-26T17:38:06-0400
_audit_creation_method            fapswitch 2.2
_symmetry_space_group_name_H-M    P1
_symmetry_Int_Tables_number       1
_space_group_crystal_system       triclinic
_cell_length_a                    29.411747
_cell_length_b                    29.411755
_cell_length_c                    38.950716
_cell_angle_alpha                 89.999948
_cell_angle_beta                  89.999935
_cell_angle_gamma                 90.0
_cell_volume                      33694.3596003

loop_
_atom_site_label
_atom_site_type_symbol
_atom_type_description
_atom_site_fract_x
_atom_site_fract_y
_atom_site_fract_z
_atom_type_partial_charge
C1    C     C_R   0.500000 0.914398 0.000001 0.531339
C2    C     C_1   0.229259 0.500000 0.999999 0.037504
C3    C     C_R   1.000000 0.500000 0.895284 -0.162550
C4    C     C_R   1.000000 0.500000 0.604713 -0.162578
C5    C     C_R   0.500000 1.000000 0.604713 -0.162578
C6    C     C_R   1.000000 0.500000 0.395284 -0.162550
C7    C     C_R   0.500000 0.000000 0.395284 -0.162550
C8    C     C_R   0.500000 0.000000 0.284623 0.375256
C9    C     C_R   1.000000 0.500000 0.284623 0.375256
C10   C     C_R   0.500000 1.000000 0.714874 0.384838
C11   C     C_R   1.000000 0.500000 0.714874 0.384838
C12   C     C_R   1.000000 0.500000 0.784623 0.375257
C13   C     C_1   0.500000 0.229259 0.999999 0.037504
C14   C     C_R   0.500000 1.000000 0.784623 0.375255
C15   C     C_R   0.000000 0.500000 0.214874 0.384837
C16   C     C_R   0.500000 0.000000 0.214874 0.384838
C17   C     C_1   0.500000 0.863309 0.000000 -0.021805
C18   C     C_1   0.136690 0.500000 0.000000 -0.021805
C19   C     C_1   0.500000 0.136690 0.000000 -0.021805
C20   C     C_1   0.863309 0.500000 0.000000 -0.021805
C21   C     C_1   1.000000 0.363310 0.500000 -0.021805
C22   C     C_1   0.636690 1.000000 0.500000 -0.021805
C23   C     C_1   0.000000 0.636690 0.500000 -0.021806
C24   C     C_1   0.770741 0.500000 0.999999 0.037504
C25   C     C_1   0.363310 0.000000 0.500000 -0.021805
C26   C     C_1   0.500000 0.820955 1.000000 -0.000271
C27   C     C_1   0.179045 0.500000 1.000000 -0.000271
C28   C     C_1   0.500000 0.179045 1.000000 -0.000271
C29   C     C_1   0.820955 0.500000 1.000000 -0.000271
C30   C     C_1   0.000000 0.320955 0.500000 -0.000272
C31   C     C_1   0.679045 1.000000 0.500000 -0.000271
C32   C     C_1   1.000000 0.679045 0.500000 -0.000272
C33   C     C_1   0.320955 0.000000 0.500000 -0.000271
C34   C     C_2   0.451061 0.929087 0.104323 0.323905
C35   C     C_1   0.000000 0.270741 0.499999 0.037503
C36   C     C_2   0.070913 0.451061 0.104323 0.323905
C37   C     C_2   0.548938 0.070913 0.104323 0.323904
C38   C     C_2   0.929087 0.548939 0.104323 0.323905
C39   C     C_2   0.548291 0.928739 0.895798 0.324178
C40   C     C_2   0.928739 0.451708 0.895798 0.324179
C41   C     C_2   0.451709 0.071261 0.895798 0.324178
C42   C     C_2   0.071260 0.548292 0.895797 0.324179
C43   C     C_2   0.951060 0.429088 0.604324 0.323907
C44   C     C_2   0.570913 0.951061 0.604323 0.323904
C45   C     C_2   0.048940 0.570913 0.604323 0.323905
C46   C     C_1   0.729259 0.000000 0.499999 0.037504
C47   C     C_2   0.429087 0.048939 0.604324 0.323905
C48   C     C_2   0.048292 0.428740 0.395798 0.324179
C49   C     C_2   0.428739 0.951708 0.395798 0.324179
C50   C     C_2   0.951708 0.571260 0.395797 0.324178
C51   C     C_2   0.571260 0.048292 0.395797 0.324178
C52   C     C_1   1.000000 0.729259 0.499999 0.037504
C53   C     C_1   0.270741 1.000000 0.499999 0.037504
C54   C     C_1   0.500000 0.728384 0.999999 0.034294
C55   C     C_1   0.271616 0.500000 0.999999 0.034294
C56   C     C_1   0.500000 0.271616 0.999999 0.034294
C57   C     C_R   0.085602 0.500000 0.000001 0.531340
C58   C     C_1   0.728383 0.500000 0.999999 0.034294
C59   C     C_1   0.000000 0.228384 0.499999 0.034294
C60   C     C_1   0.771616 0.000000 0.499999 0.034294
C61   C     C_1   1.000000 0.771616 0.499999 0.034294
C62   C     C_1   0.228383 1.000000 0.499999 0.034294
C63   C     C_1   0.500000 0.678168 1.000000 -0.004396
C64   C     C_1   0.321832 0.500000 1.000000 -0.004396
C65   C     C_1   0.500000 0.321832 1.000000 -0.004396
C66   C     C_1   0.678167 0.500000 1.000000 -0.004396
C67   C     C_1   1.000000 0.178168 0.500000 -0.004396
C68   C     C_R   0.500000 0.085602 0.000001 0.531339
C69   C     C_1   0.821832 0.000000 0.500000 -0.004396
C70   C     C_1   1.000000 0.821832 0.500000 -0.004396
C71   C     C_1   0.178168 1.000000 0.500000 -0.004396
C72   C     C_1   0.500000 0.635809 1.000000 -0.011492
C73   C     C_1   0.364191 0.500000 1.000000 -0.011492
C74   C     C_1   0.500000 0.364191 1.000000 -0.011492
C75   C     C_1   0.635809 0.500000 1.000000 -0.011492
C76   C     C_1   0.000000 0.135809 0.500000 -0.011492
C77   C     C_1   0.864191 0.000000 0.500000 -0.011492
C78   C     C_1   1.000000 0.864191 0.500000 -0.011492
C79   C     C_R   0.914398 0.500000 0.000001 0.531340
C80   C     C_1   0.135809 1.000000 0.500000 -0.011492
C81   C     C_R   0.415291 0.500000 0.000000 0.538547
C82   C     C_R   0.500000 0.415291 0.000000 0.538547
C83   C     C_R   0.584709 0.500000 1.000000 0.538547
C84   C     C_R   0.500000 0.584709 1.000000 0.538546
C85   C     C_R   0.915291 0.000000 0.500000 0.538547
C86   C     C_R   1.000000 0.915291 0.500000 0.538547
C87   C     C_R   0.084709 0.000000 0.500000 0.538547
C88   C     C_R   1.000000 0.084709 0.500000 0.538546
C89   C     C_R   0.500000 0.000000 0.066881 0.514583
C90   C     C_R   1.000000 0.414398 0.500001 0.531339
C91   C     C_R   1.000000 0.500000 0.066881 0.514583
C92   C     C_R   0.500000 0.000000 0.933121 0.513986
C93   C     C_R   1.000000 0.500000 0.933121 0.513987
C94   C     C_R   1.000000 0.500000 0.566881 0.514582
C95   C     C_R   0.500000 1.000000 0.566881 0.514583
C96   C     C_R   1.000000 0.500000 0.433121 0.513987
C97   C     C_R   0.500000 0.000000 0.433121 0.513987
C98   C     C_R   0.475222 0.966304 0.122877 -0.015522
C99   C     C_R   0.033696 0.475222 0.122877 -0.015522
C100  C     C_R   0.524777 0.033697 0.122877 -0.015521
C101  C     C_R   0.585602 1.000000 0.500001 0.531340
C102  C     C_R   0.966304 0.524778 0.122877 -0.015521
C103  C     C_R   0.524392 0.966078 0.877143 -0.014884
C104  C     C_R   0.966078 0.475608 0.877143 -0.014884
C105  C     C_R   0.475608 0.033922 0.877143 -0.014883
C106  C     C_R   0.033921 0.524392 0.877143 -0.014884
C107  C     C_R   0.975222 0.466304 0.622877 -0.015523
C108  C     C_R   0.533696 0.975222 0.622877 -0.015522
C109  C     C_R   0.024778 0.533696 0.622877 -0.015522
C110  C     C_R   0.466304 0.024778 0.622877 -0.015522
C111  C     C_R   0.024392 0.466079 0.377143 -0.014883
C112  C     C_R   1.000000 0.585602 0.500001 0.531339
C113  C     C_R   0.466079 0.975608 0.377143 -0.014883
C114  C     C_R   0.975608 0.533921 0.377143 -0.014883
C115  C     C_R   0.533921 0.024392 0.377143 -0.014883
C116  C     C_R   0.475192 0.967018 0.158980 0.374586
C117  C     C_R   0.032981 0.475192 0.158980 0.374586
C118  C     C_R   0.524807 0.032982 0.158980 0.374585
C119  C     C_R   0.967018 0.524808 0.158980 0.374586
C120  C     C_R   0.524531 0.966784 0.841030 0.374665
C121  C     C_R   0.966784 0.475468 0.841030 0.374664
C122  C     C_R   0.475469 0.033216 0.841030 0.374664
C123  C     C_R   0.414398 0.000000 0.500001 0.531340
C124  C     C_R   0.033216 0.524532 0.841030 0.374664
C125  C     C_R   0.975191 0.467019 0.658980 0.374585
C126  C     C_R   0.532981 0.975192 0.658980 0.374586
C127  C     C_R   0.024808 0.532981 0.658980 0.374584
C128  C     C_R   0.467018 0.024808 0.658980 0.374586
C129  C     C_R   0.024532 0.466784 0.341030 0.374664
C130  C     C_R   0.466784 0.975468 0.341030 0.374663
C131  C     C_R   0.975468 0.533216 0.341030 0.374664
C132  C     C_R   0.533215 0.024532 0.341030 0.374664
C133  C     C_R   0.500000 0.000000 0.177014 0.003404
C134  C     C_1   0.500000 0.770741 0.999999 0.037504
C135  C     C_R   0.000000 0.500000 0.177014 0.003404
C136  C     C_R   0.500000 0.000000 0.822769 0.000050
C137  C     C_R   1.000000 0.500000 0.822769 0.000050
C138  C     C_R   1.000000 0.500000 0.677014 0.003405
C139  C     C_R   0.500000 1.000000 0.677014 0.003404
C140  C     C_R   0.000000 0.500000 0.322769 0.000050
C141  C     C_R   0.500000 0.000000 0.322769 0.000050
C142  C     C_R   0.500000 0.000000 0.104713 -0.162578
C143  C     C_R   1.000000 0.500000 0.104713 -0.162578
C144  C     C_R   0.500000 0.000000 0.895284 -0.162550
Cu1   Cu    Cu3+1 0.542440 0.000000 0.000000 1.016581
Cu2   Cu    Cu3+1 0.500000 0.500000 0.965730 1.024844
Cu3   Cu    Cu3+1 0.000000 0.000000 0.534270 1.024390
Cu4   Cu    Cu3+1 0.000000 0.000000 0.465730 1.024844
Cu5   Cu    Cu3+1 0.000000 0.542440 0.000000 1.016581
Cu6   Cu    Cu3+1 0.457560 0.000000 0.000000 1.016581
Cu7   Cu    Cu3+1 0.000000 0.457560 0.000000 1.016581
Cu8   Cu    Cu3+1 0.042440 0.500000 0.500000 1.016581
Cu9   Cu    Cu3+1 0.500000 0.042440 0.500000 1.016581
Cu10  Cu    Cu3+1 0.957560 0.500000 0.500000 1.016582
Cu11  Cu    Cu3+1 0.500000 0.957560 0.500000 1.016581
Cu12  Cu    Cu3+1 0.500000 0.500000 0.034270 1.024391
F1    F     F_    0.452807 0.934148 0.176781 -0.526382
F2    F     F_    0.565852 0.952806 0.676780 -0.526382
F3    F     F_    0.047195 0.565851 0.676780 -0.526381
F4    F     F_    0.434148 0.047194 0.676781 -0.526382
F5    F     F_    0.048550 0.434755 0.323600 -0.523790
F6    F     F_    0.434755 0.951450 0.323600 -0.523790
F7    F     F_    0.951450 0.565245 0.323599 -0.523790
F8    F     F_    0.565245 0.048550 0.323599 -0.523790
F9    F     F_    0.065852 0.452806 0.176780 -0.526382
F10   F     F_    0.547193 0.065852 0.176780 -0.526382
F11   F     F_    0.934148 0.547194 0.176780 -0.526382
F12   F     F_    0.548549 0.934754 0.823600 -0.523790
F13   F     F_    0.934755 0.451450 0.823600 -0.523790
F14   F     F_    0.451451 0.065246 0.823599 -0.523790
F15   F     F_    0.065245 0.548550 0.823599 -0.523790
F16   F     F_    0.952805 0.434149 0.676781 -0.526382
H1    H     H_    0.458583 0.921917 0.077625 0.099903
H2    H     H_    0.578083 0.958583 0.577625 0.099903
H3    H     H_    0.041418 0.578083 0.577625 0.099903
H4    H     H_    0.421917 0.041417 0.577625 0.099903
H5    H     H_    0.040697 0.421739 0.422510 0.099429
H6    H     H_    0.421739 0.959303 0.422510 0.099429
H7    H     H_    0.959303 0.578261 0.422510 0.099429
H8    H     H_    0.578261 0.040697 0.422510 0.099428
H9    H     H_    0.078083 0.458583 0.077625 0.099903
H10   H     H_    0.541416 0.078083 0.077625 0.099903
H11   H     H_    0.921917 0.541417 0.077625 0.099903
H12   H     H_    0.540697 0.921739 0.922510 0.099429
H13   H     H_    0.921739 0.459303 0.922510 0.099429
H14   H     H_    0.459303 0.078261 0.922510 0.099429
H15   H     H_    0.078261 0.540697 0.922510 0.099429
H16   H     H_    0.958582 0.421917 0.577625 0.099902
N1    N     N_R   0.538057 0.011264 0.232606 -0.114546
N2    N     N_R   0.488736 0.038057 0.732607 -0.114545
N3    N     N_R   0.961942 0.488737 0.732607 -0.114545
N4    N     N_R   0.511264 0.961942 0.732607 -0.114545
N5    N     N_R   0.988830 0.538052 0.266764 -0.103198
N6    N     N_R   0.538052 0.011170 0.266764 -0.103197
N7    N     N_R   0.011170 0.461948 0.266764 -0.103198
N8    N     N_R   0.461948 0.988830 0.266764 -0.103198
N9    N     N_R   0.988736 0.538057 0.232606 -0.114545
N10   N     N_R   0.461942 0.988736 0.232606 -0.114545
N11   N     N_R   0.011264 0.461942 0.232606 -0.114545
N12   N     N_R   0.488830 0.038052 0.766764 -0.103197
N13   N     N_R   0.038053 0.511170 0.766764 -0.103198
N14   N     N_R   0.511170 0.961947 0.766764 -0.103197
N15   N     N_R   0.961947 0.488831 0.766764 -0.103198
N16   N     N_R   0.038058 0.511263 0.732607 -0.114545
O1    O     O_R   0.535830 0.937970 0.000040 -0.483774
O2    O     O_R   0.562030 0.035830 0.500040 -0.483775
O3    O     O_R   0.964170 0.562030 0.500040 -0.483774
O4    O     O_R   0.437970 0.964170 0.500040 -0.483775
O5    O     O_R   0.964170 0.437970 0.499960 -0.483982
O6    O     O_R   0.437970 0.035830 0.499960 -0.483982
O7    O     O_R   0.035830 0.562030 0.499960 -0.483982
O8    O     O_R   0.562030 0.964170 0.499960 -0.483982
O9    O     O_R   0.535830 0.999940 0.049970 -0.494644
O10   O     O_R   0.000060 0.535830 0.049970 -0.494644
O11   O     O_R   0.464170 0.000060 0.049970 -0.494644
O12   O     O_R   0.062030 0.535830 0.000040 -0.483775
O13   O     O_R   0.999940 0.464170 0.049970 -0.494644
O14   O     O_R   0.464170 0.999940 0.950030 -0.494512
O15   O     O_R   0.999940 0.535830 0.950030 -0.494513
O16   O     O_R   0.535830 0.000060 0.950030 -0.494513
O17   O     O_R   0.000060 0.464170 0.950030 -0.494513
O18   O     O_R   0.035830 0.499940 0.549970 -0.494644
O19   O     O_R   0.500060 0.035830 0.549970 -0.494644
O20   O     O_R   0.964170 0.500060 0.549970 -0.494643
O21   O     O_R   0.499940 0.964170 0.549970 -0.494644
O22   O     O_R   0.964170 0.499940 0.450030 -0.494512
O23   O     O_R   0.464170 0.062030 0.000040 -0.483775
O24   O     O_R   0.499940 0.035830 0.450030 -0.494513
O25   O     O_R   0.035830 0.500060 0.450030 -0.494513
O26   O     O_R   0.500060 0.964170 0.450030 -0.494512
O27   O     O_R   0.437960 0.499970 0.028950 -0.479160
O28   O     O_R   0.500030 0.437960 0.028950 -0.479160
O29   O     O_R   0.562040 0.500030 0.028950 -0.479160
O30   O     O_R   0.499970 0.562040 0.028950 -0.479160
O31   O     O_R   0.562040 0.499970 0.971050 -0.479070
O32   O     O_R   0.499970 0.437960 0.971050 -0.479069
O33   O     O_R   0.437960 0.500030 0.971050 -0.479069
O34   O     O_R   0.937970 0.464170 0.000040 -0.483775
O35   O     O_R   0.500030 0.562040 0.971050 -0.479070
O36   O     O_R   0.937960 0.999970 0.528950 -0.479160
O37   O     O_R   0.000030 0.937960 0.528950 -0.479160
O38   O     O_R   0.062040 0.000030 0.528950 -0.479160
O39   O     O_R   0.999970 0.062040 0.528950 -0.479160
O40   O     O_R   0.062040 0.999970 0.471050 -0.479070
O41   O     O_R   0.999970 0.937960 0.471050 -0.479069
O42   O     O_R   0.937960 0.000030 0.471050 -0.479069
O43   O     O_R   0.000030 0.062040 0.471050 -0.479070
O44   O     O_2   0.422369 0.905768 0.118579 -0.375037
O45   O     O_R   0.464170 0.937970 0.999960 -0.483982
O46   O     O_2   0.094231 0.422367 0.118579 -0.375036
O47   O     O_2   0.577631 0.094232 0.118579 -0.375036
O48   O     O_2   0.905769 0.577632 0.118579 -0.375036
O49   O     O_2   0.576804 0.905106 0.881635 -0.374269
O50   O     O_2   0.905106 0.423195 0.881635 -0.374269
O51   O     O_2   0.423196 0.094895 0.881635 -0.374269
O52   O     O_2   0.094893 0.576805 0.881635 -0.374269
O53   O     O_2   0.922366 0.405771 0.618579 -0.375036
O54   O     O_2   0.594231 0.922368 0.618579 -0.375036
O55   O     O_2   0.077633 0.594230 0.618579 -0.375036
O56   O     O_R   0.937970 0.535830 0.999960 -0.483982
O57   O     O_2   0.405769 0.077632 0.618579 -0.375037
O58   O     O_2   0.076805 0.405107 0.381635 -0.374269
O59   O     O_2   0.405107 0.923195 0.381635 -0.374269
O60   O     O_2   0.923195 0.594893 0.381635 -0.374269
O61   O     O_2   0.594893 0.076806 0.381635 -0.374269
O62   O     O_R   0.535830 0.062030 0.999960 -0.483982
O63   O     O_R   0.062030 0.464170 0.999960 -0.483982
O64   O     O_R   0.035830 0.437970 0.500040 -0.483774

loop_
_geom_bond_atom_site_label_1
_geom_bond_atom_site_label_2
_ccdc_geom_bond_type
C61   C70   S    
C42   H15   S    
C49   C113  S    
C4    C109  A    
C54   C63   S    
Cu8   O18   S    
C70   C78   T    
C114  C131  A    
Cu9   O24   S    
C84   O30   A    
C103  C120  A    
C75   C83   S    
C103  C144  A    
C88   O39   A    
Cu1   O1    S    
C49   O59   D    
C68   O23   A    
N2    N12   A    
C50   O60   D    
Cu3   O36   S    
Cu8   O64   S    
C23   C112  S    
C129  C140  A    
C12   N13   A    
C10   N2    A    
C22   C101  S    
C41   C105  S    
C30   C35   S    
Cu10  O22   S    
N7    N11   A    
C79   O56   A    
C43   H16   S    
C99   C143  A    
Cu11  O8    S    
C11   C138  S    
C44   H2    S    
Cu9   O19   S    
Cu10  O5    S    
C82   O32   A    
C52   C61   T    
Cu5   Cu7   S    
Cu5   O15   S    
Cu9   O6    S    
C15   N9    A    
C9    C140  S    
C45   C109  S    
C15   C135  S    
C5    C110  A    
Cu3   O37   S    
C121  C137  A    
C89   C142  S    
C54   C134  T    
C123  O6    A    
C51   O61   D    
C119  C135  A    
C11   N3    A    
C35   C59   T    
C6    C111  A    
C12   N15   A    
C7    C115  A    
C123  O4    A    
C92   O16   A    
C130  C141  A    
C24   C29   S    
C6    C114  A    
C131  C140  A    
Cu3   Cu4   S    
C59   C67   S    
Cu5   O10   S    
C69   C77   T    
N1    N6    A    
C111  C129  A    
C38   O48   D    
C83   O29   A    
C117  F9    S    
C122  F14   S    
C31   C46   S    
C105  C122  A    
C36   O46   D    
C64   C73   T    
Cu7   O13   S    
C13   C28   S    
C8    N6    A    
C2    C27   S    
C127  C138  A    
C131  F7    S    
Cu9   Cu11  S    
C1    O1    A    
C76   C88   S    
C68   O62   A    
Cu1   Cu6   S    
C47   O57   D    
C89   O11   A    
C13   C56   T    
C40   O50   D    
C130  F6    S    
C126  F2    S    
C39   O49   D    
C77   C85   S    
C3    C106  A    
C98   C142  A    
C94   O20   A    
C67   C76   T    
N3    N15   A    
C74   C82   S    
C3    C104  A    
C16   C133  S    
C73   C81   S    
C48   H5    S    
C5    C95   S    
C58   C66   S    
C45   O55   D    
C91   C143  S    
C20   C29   T    
C44   C108  S    
C101  O8    A    
C33   C53   S    
C4    C107  A    
Cu2   O32   S    
C126  C139  A    
C91   O10   A    
C113  C130  A    
C115  C132  A    
C112  O7    A    
C32   C52   S    
C124  C137  A    
C107  C125  A    
N8    N10   A    
Cu11  O4    S    
C22   C31   T    
C1    O45   A    
Cu12  O30   S    
C128  F4    S    
C87   O38   A    
C36   C99   S    
C40   H13   S    
Cu3   O38   S    
C37   O47   D    
C14   N12   A    
C118  F10   S    
Cu4   O43   S    
C95   O19   A    
C65   C74   T    
Cu7   O17   S    
Cu1   O62   S    
C120  C136  A    
Cu11  O21   S    
C96   O22   A    
C91   O13   A    
C90   O64   A    
C37   H10   S    
C95   O21   A    
Cu5   O56   S    
C26   C134  S    
C99   C117  A    
C15   N11   A    
C53   C62   T    
Cu12  O28   S    
C18   C57   S    
C98   C116  A    
C97   O26   A    
Cu2   O33   S    
C42   O52   D    
Cu12  O29   S    
C55   C64   S    
C48   C111  S    
C25   C33   T    
Cu4   O42   S    
C121  F13   S    
Cu6   O14   S    
C129  F5    S    
C19   C68   S    
C3    C93   S    
C43   C107  S    
Cu6   O11   S    
C132  F8    S    
C92   O14   A    
C19   C28   T    
C25   C123  S    
C122  C136  A    
C72   C84   S    
C118  C133  A    
Cu1   O9    S    
Cu7   O63   S    
Cu2   O35   S    
Cu8   O7    S    
C83   O31   A    
Cu3   O39   S    
C86   O41   A    
C6    C96   S    
C34   O44   D    
C85   O42   A    
N13   N16   A    
C4    C94   S    
C84   O35   A    
C100  C118  A    
C102  C143  A    
C17   C26   T    
C51   H8    S    
C117  C135  A    
C127  F3    S    
C43   O53   D    
C16   N10   A    
C120  F12   S    
Cu6   O45   S    
C89   O9    A    
Cu8   O25   S    
C132  C141  A    
Cu7   O34   S    
C82   O28   A    
Cu2   O31   S    
C109  C127  A    
C105  C144  A    
C94   O18   A    
Cu6   O23   S    
C7    C97   S    
C20   C79   S    
C46   C60   T    
C49   H6    S    
C128  C139  A    
C18   C27   T    
C47   H4    S    
C112  O3    A    
Cu8   Cu10  S    
C39   H12   S    
C7    C113  A    
C90   O5    A    
C71   C80   T    
C9    N7    A    
C39   C103  S    
C104  C121  A    
C125  C138  A    
C80   C87   S    
C47   C110  S    
C8    N8    A    
C21   C30   T    
C41   O51   D    
Cu11  O26   S    
C1    C17   S    
C93   O15   A    
C85   O36   A    
C108  C126  A    
C23   C32   T    
C8    C141  S    
C45   H3    S    
C40   C104  S    
Cu5   O12   S    
C116  F1    S    
C38   C102  S    
C34   H1    S    
C100  C142  A    
C88   O43   A    
Cu12  O27   S    
C78   C86   S    
C87   O40   A    
Cu1   O16   S    
C14   C136  S    
C60   C69   S    
C116  C133  A    
C86   O37   A    
N5    N9    A    
C66   C75   T    
C14   N14   A    
C48   O58   D    
Cu4   O41   S    
C34   C98   S    
C81   O33   A    
C62   C71   S    
C50   H7    S    
C119  F11   S    
C9    N5    A    
C10   C139  S    
C10   N4    A    
Cu10  O20   S    
C92   C144  S    
C51   C115  S    
C11   N16   A    
C21   C90   S    
C2    C55   T    
C101  O2    A    
C38   H11   S    
C44   O54   D    
Cu9   O2    S    
C42   C106  S    
C96   O25   A    
C97   O24   A    
Cu2   Cu12  S    
C63   C72   T    
C57   O63   A    
C24   C58   T    
C81   O27   A    
C106  C124  A    
C41   H14   S    
Cu4   O40   S    
N4    N14   A    
C12   C137  S    
C57   O12   A    
C93   O17   A    
C36   H9    S    
C125  F16   S    
C79   O34   A    
C50   C114  S    
Cu10  O3    S    
C16   N1    A    
C37   C100  S    
C102  C119  A    
C56   C65   S    
C110  C128  A    
C124  F15   S    
C5    C108  A    
