data_mof_unit_43998.cif
_audit_creation_date              2012-12-11T15:08:34-0500
_audit_creation_method            fapswitch 2.2
_symmetry_space_group_name_H-M    P1
_symmetry_Int_Tables_number       1
_space_group_crystal_system       triclinic
_cell_length_a                    26.871812
_cell_length_b                    7.081401
_cell_length_c                    11.959673
_cell_angle_alpha                 90.185508
_cell_angle_beta                  103.492782
_cell_angle_gamma                 90.641484
_cell_volume                      2212.81452105

loop_
_atom_site_label
_atom_site_type_symbol
_atom_type_description
_atom_site_fract_x
_atom_site_fract_y
_atom_site_fract_z
_atom_type_partial_charge
O1    O     O_R   0.437360 0.505910 0.042120 -0.528322
O2    O     O_R   0.562640 0.005910 0.957880 -0.546074
O3    O     O_R   0.542480 0.176660 0.157100 -0.542882
O4    O     O_R   0.457520 0.676660 0.842900 -0.527782
C1    C     C_R   0.556219 0.345394 0.198449 0.722301
C2    C     C_R   0.443681 0.843731 0.801563 0.723685
O5    O     O_R   0.436520 0.176250 0.054800 -0.543648
O6    O     O_R   0.563480 0.676250 0.945200 -0.526393
O7    O     O_R   0.455920 0.005040 0.854840 -0.544069
O8    O     O_R   0.544080 0.505040 0.145160 -0.528474
C3    C     C_R   0.417586 0.343577 0.063637 0.707583
C4    C     C_R   0.582330 0.845971 0.936085 0.710272
O9    O     O_3   0.506490 0.338900 0.934520 -0.369093
O10   O     O_3   0.493510 0.838900 0.065480 -0.365769
V1    V     V_3+5 0.498800 0.064400 0.012150 1.509313
V2    V     V_3+5 0.501200 0.564400 0.987850 1.562541
C5    C     C_R   0.681635 0.952928 0.770603 -0.146931
C6    C     C_R   0.317602 0.278974 0.232479 -0.148505
H1    H     H_    0.599917 0.962549 0.735915 0.153511
H2    H     H_    0.399166 0.260996 0.268324 0.153642
H3    H     H_    0.774382 0.977019 0.732213 0.151134
H4    H     H_    0.224877 0.272742 0.271079 0.155148
H5    H     H_    0.682248 0.998374 0.684446 0.141564
H6    H     H_    0.316667 0.244977 0.320305 0.142350
C7    C     C_R   0.632408 0.860560 0.906825 -0.070133
C8    C     C_R   0.367467 0.344691 0.093144 -0.070408
C9    C     C_R   0.869471 0.833091 0.212585 -0.220575
C10   C     C_R   0.130496 0.376954 0.786142 -0.220758
C11   C     C_R   0.824345 0.837123 0.250188 0.311658
C12   C     C_R   0.175450 0.361348 0.748631 0.313028
C13   C     C_R   0.777587 0.858650 0.171346 -0.197393
C14   C     C_R   0.222032 0.339101 0.827983 -0.197755
C15   C     C_R   0.774308 0.863080 0.051376 0.024039
C16   C     C_R   0.225497 0.347036 0.948003 0.022967
C17   C     C_R   0.821080 0.875758 0.014786 0.065310
C18   C     C_R   0.178716 0.345999 0.984997 0.066134
C19   C     C_R   0.726483 0.868414 0.967027 0.041698
C20   C     C_R   0.273354 0.344367 0.032525 0.042213
C21   C     C_R   0.727317 0.921302 0.852590 0.116840
C22   C     C_R   0.272188 0.306490 0.148932 0.117455
C23   C     C_R   0.773709 0.941245 0.819959 -0.191616
C24   C     C_R   0.225734 0.297374 0.182083 -0.193813
C25   C     C_R   0.819764 0.912016 0.898578 -0.186847
C26   C     C_R   0.179878 0.323563 0.102349 -0.188497
C27   C     C_R   0.677852 0.820678 0.989359 -0.117460
C28   C     C_R   0.322355 0.380759 0.008577 -0.115757
C29   C     C_R   0.634720 0.930382 0.799167 -0.116696
C30   C     C_R   0.364633 0.290407 0.203541 -0.115341
C31   C     C_R   0.868430 0.857368 0.096202 -0.124450
C32   C     C_R   0.131467 0.363509 0.903130 -0.125061
H7    H     H_    0.905643 0.818180 0.274799 0.134452
H8    H     H_    0.094465 0.393085 0.723616 0.134748
H9    H     H_    0.744946 0.882030 0.207073 0.160635
H10   H     H_    0.254268 0.306118 0.792818 0.161517
H11   H     H_    0.854538 0.924887 0.868060 0.130812
H12   H     H_    0.145097 0.319922 0.133287 0.132304
C33   C     C_R   0.092249 0.864007 0.310877 -0.032052
C34   C     C_R   0.907594 0.355265 0.689589 -0.031816
C35   C     C_R   0.409715 0.847927 0.686252 -0.089284
C36   C     C_R   0.590251 0.357074 0.313495 -0.087897
C37   C     C_R   0.107339 0.882938 0.517521 -0.094801
C38   C     C_R   0.892276 0.307632 0.484571 -0.094053
C39   C     C_R   0.073530 0.879102 0.409882 -0.155660
C40   C     C_R   0.926196 0.324571 0.591615 -0.157603
C41   C     C_R   0.145001 0.852853 0.319391 -0.198728
C42   C     C_R   0.854867 0.368775 0.680729 -0.197919
C43   C     C_R   0.180374 0.856925 0.427872 0.109942
C44   C     C_R   0.819400 0.352718 0.572792 0.108762
C45   C     C_R   0.160352 0.873389 0.527319 0.189331
C46   C     C_R   0.839300 0.320644 0.474392 0.187594
C47   C     C_R   0.234670 0.846661 0.440976 0.069904
C48   C     C_R   0.765154 0.367373 0.559155 0.069070
C49   C     C_R   0.268005 0.862045 0.553068 0.093450
C50   C     C_R   0.731752 0.341509 0.447894 0.092089
C51   C     C_R   0.245848 0.877528 0.648970 -0.132781
C52   C     C_R   0.753795 0.310513 0.353019 -0.131620
C53   C     C_R   0.193239 0.881422 0.636055 -0.126450
C54   C     C_R   0.806353 0.302036 0.366232 -0.125108
C55   C     C_R   0.256658 0.817886 0.346091 -0.206834
C56   C     C_R   0.743291 0.410998 0.652454 -0.205707
C57   C     C_R   0.309142 0.802590 0.359671 -0.163456
C58   C     C_R   0.690881 0.431283 0.637941 -0.162891
C59   C     C_R   0.342547 0.818603 0.468123 0.063329
C60   C     C_R   0.657423 0.405701 0.530241 0.063074
C61   C     C_R   0.322352 0.854521 0.566041 0.052973
C62   C     C_R   0.677479 0.354591 0.434319 0.051826
C63   C     C_R   0.395914 0.796485 0.481100 0.264692
C64   C     C_R   0.604142 0.432571 0.515938 0.267128
C65   C     C_R   0.428719 0.806582 0.590192 -0.164501
C66   C     C_R   0.571338 0.412863 0.407290 -0.164510
C67   C     C_R   0.357455 0.878092 0.673862 -0.162223
C68   C     C_R   0.642320 0.321448 0.327655 -0.161648
H13   H     H_    0.178126 0.892564 0.712326 0.125263
H14   H     H_    0.821380 0.279427 0.290663 0.126646
H15   H     H_    0.345516 0.915107 0.750950 0.116602
H16   H     H_    0.654062 0.271585 0.252712 0.117430
H17   H     H_    0.469280 0.782716 0.600141 0.175649
H18   H     H_    0.530842 0.439556 0.396078 0.173021
H19   H     H_    0.323132 0.776716 0.283298 0.183584
H20   H     H_    0.676993 0.468723 0.712900 0.183610
H21   H     H_    0.092046 0.895476 0.593422 0.112113
H22   H     H_    0.907464 0.283226 0.409453 0.113003
H23   H     H_    0.032770 0.889115 0.403673 0.103386
H24   H     H_    0.966946 0.312807 0.598209 0.103678
H25   H     H_    0.156936 0.845964 0.239532 0.096964
H26   H     H_    0.843052 0.388477 0.760028 0.096766
H27   H     H_    0.268002 0.882582 0.736386 0.127583
H28   H     H_    0.731618 0.296627 0.265958 0.129317
H29   H     H_    0.234256 0.801158 0.259376 0.135848
H30   H     H_    0.765751 0.435613 0.738401 0.136136
O11   O     O_R   0.955980 0.206520 0.854760 -0.539464
O12   O     O_R   0.044020 0.706520 0.145240 -0.536241
O13   O     O_R   0.063490 0.536770 0.945200 -0.541074
O14   O     O_R   0.936510 0.036770 0.054800 -0.541948
C69   C     C_R   0.082583 0.369289 0.937413 0.697603
C70   C     C_R   0.917412 0.867616 0.062469 0.697880
O15   O     O_R   0.957530 0.536190 0.842880 -0.537665
O16   O     O_R   0.042470 0.036190 0.157120 -0.540777
O17   O     O_R   0.937350 0.707210 0.042130 -0.537840
O18   O     O_R   0.062650 0.207210 0.957870 -0.539256
C71   C     C_R   0.942940 0.366852 0.802767 0.690750
C72   C     C_R   0.057043 0.868747 0.197355 0.690380
O19   O     O_3   0.993540 0.373870 0.065440 -0.373603
O20   O     O_3   0.006460 0.873870 0.934560 -0.373989
V3    V     V_3+5 0.001200 0.648440 0.987860 1.439377
V4    V     V_3+5 0.998800 0.148440 0.012140 1.432298
Br1   Br    Br    0.426591 0.745322 0.354123 -0.605556
Br2   Br    Br    0.573532 0.501108 0.640359 -0.610501
C73   C     C_1   0.672969 0.713966 0.089279 0.277490
N1    N     N_1   0.668752 0.628894 0.168979 -0.365314
C74   C     C_1   0.328205 0.470724 0.903818 0.271583
N2    N     N_1   0.333269 0.542156 0.820274 -0.361529
Br3   Br    Br    0.826569 0.817590 0.410716 -0.610961
Br4   Br    Br    0.173289 0.368758 0.587736 -0.612220

loop_
_geom_bond_atom_site_label_1
_geom_bond_atom_site_label_2
_ccdc_geom_bond_type
C59   C63   A    
C27   C73   S    
C9    C11   A    
C23   C25   A    
C45   C53   A    
C42   C44   A    
O1    C3    A    
O2    C4    A    
C2    O7    A    
C63   Br1   S    
C61   C67   A    
O3    V1    S    
C21   C23   A    
O5    C3    A    
C5    H5    S    
C50   C52   A    
C6    H6    S    
C20   C22   A    
C52   C54   A    
C5    C21   A    
O14   V4    S    
H1    C29   S    
O19   V3    S    
C46   C54   A    
C68   H16   S    
C38   C46   A    
C32   C69   S    
O16   C72   A    
C41   H25   S    
C37   C39   A    
O15   C71   A    
C38   C40   A    
C33   C72   S    
C10   C32   A    
C34   C42   A    
C35   C65   A    
O11   C71   A    
C41   C43   A    
C17   C31   A    
C13   C15   A    
O6    C4    A    
C17   C25   A    
C7    C29   A    
C16   C18   A    
C8    C30   A    
O6    V2    S    
C22   C24   A    
C52   H28   S    
C11   C13   A    
C49   C51   A    
C24   C26   A    
C42   H26   S    
C14   H10   S    
C57   C59   A    
C9    H7    S    
C33   C39   A    
C36   C68   A    
C34   C40   A    
C55   H29   S    
C60   C64   A    
C51   H27   S    
C48   C50   A    
C28   C74   S    
C47   C49   A    
O19   V4    S    
C57   H19   S    
C3    C8    S    
C12   Br4   S    
C15   C19   A    
C47   C55   A    
C65   H17   S    
C43   C45   A    
C14   C16   A    
O4    V2    S    
C37   H21   S    
O12   C72   A    
C26   H12   S    
C44   C48   A    
O11   V4    S    
C11   Br3   S    
O1    V2    S    
C35   C67   A    
C13   H9    S    
O2    V1    S    
C51   C53   A    
C49   C61   A    
O12   V3    S    
H2    C30   S    
O18   V4    S    
H3    C23   S    
O17   V3    S    
C39   H23   S    
C59   C61   A    
C64   C66   A    
C58   C60   A    
C63   C65   A    
C18   C26   A    
O4    C2    A    
C19   C27   A    
C74   N2    T    
C7    C27   A    
C18   C32   A    
C53   H13   S    
O20   V4    S    
C73   N1    T    
C37   C45   A    
C40   H24   S    
C6    C22   A    
C34   C71   S    
C1    C36   S    
C16   C20   A    
C58   H20   S    
C2    C35   S    
C5    C29   A    
C33   C41   A    
O3    C1    A    
C6    C30   A    
O14   C70   A    
C25   H11   S    
C36   C66   A    
C50   C62   A    
C55   C57   A    
C70   O17   A    
C4    C7    S    
C10   C12   A    
O7    V1    S    
C1    O8    A    
C19   C21   A    
O8    V2    S    
C12   C14   A    
C10   H8    S    
H4    C24   S    
C54   H14   S    
O5    V1    S    
C15   C17   A    
C56   C58   A    
C43   C47   A    
C20   C28   A    
C8    C28   A    
C67   H15   S    
C31   C70   S    
O13   V3    S    
C48   C56   A    
C69   O18   A    
O9    V2    S    
C56   H30   S    
C44   C46   A    
O10   V1    S    
C60   C62   A    
C62   C68   A    
O16   V4    S    
O13   C69   A    
C64   Br2   S    
O15   V3    S    
C66   H18   S    
C9    C31   A    
O20   V3    S    
C38   H22   S    
