data_mof_unit_36553.cif
_audit_creation_date              2012-12-11T14:40:09-0500
_audit_creation_method            fapswitch 2.2
_symmetry_space_group_name_H-M    P1
_symmetry_Int_Tables_number       1
_space_group_crystal_system       triclinic
_cell_length_a                    19.464328
_cell_length_b                    11.030083
_cell_length_c                    19.392414
_cell_angle_alpha                 90.358394
_cell_angle_beta                  97.741867
_cell_angle_gamma                 90.011964
_cell_volume                      4125.38604413

loop_
_atom_site_label
_atom_site_type_symbol
_atom_type_description
_atom_site_fract_x
_atom_site_fract_y
_atom_site_fract_z
_atom_type_partial_charge
C1    C     C_R   0.730028 0.942382 0.355335 0.545111
C2    C     C_3   0.269989 0.339387 0.558954 0.023796
C3    C     C_2   0.863141 0.039560 0.552964 0.566647
C4    C     C_3   0.230918 0.858001 0.437965 0.024799
C5    C     C_3   0.778868 0.835343 0.556302 0.013548
C6    C     C_3   0.694817 0.452228 0.476284 0.078297
C7    C     C_3   0.291525 0.461115 0.531926 0.066245
C8    C     C_3   0.175399 0.897545 0.482289 0.045935
C9    C     C_3   0.808114 0.949634 0.524731 0.073843
C10   C     C_3   0.766951 0.466512 0.518935 -0.129504
C11   C     C_3   0.219779 0.470793 0.487901 -0.129945
C12   C     C_3   0.224364 0.998752 0.513595 -0.134703
C13   C     C_R   0.273340 0.948955 0.640463 0.554454
C14   C     C_3   0.736298 0.970897 0.483195 -0.139681
C15   C     C_3   0.792415 0.348750 0.488267 -0.093747
C16   C     C_3   0.198572 0.347274 0.514388 -0.106598
C17   C     C_3   0.279890 0.958891 0.468131 -0.137175
C18   C     C_3   0.707350 0.855814 0.512703 -0.090319
C19   C     C_3   0.766349 0.274113 0.546571 -0.096164
C20   C     C_3   0.228677 0.281190 0.454889 -0.132784
C21   C     C_3   0.310698 0.870818 0.525070 -0.085680
C22   C     C_3   0.730229 0.779296 0.452938 -0.086568
C23   C     C_3   0.743259 0.391454 0.576995 0.021660
C24   C     C_R   0.227635 0.447862 0.358877 0.542057
C25   C     C_3   0.249643 0.404160 0.428703 0.027409
C26   C     C_3   0.254650 0.909476 0.569607 0.039306
C27   C     C_3   0.756702 0.894211 0.423796 0.015100
C28   C     C_3   0.500005 0.271955 0.979333 0.439368
C29   C     C_3   0.450427 0.269631 0.033668 0.422892
C30   C     C_3   0.951639 0.782541 0.986092 0.414592
C31   C     C_3   0.923151 0.699345 0.038243 0.398801
C32   C     C_3   0.544449 0.171801 0.016916 -0.141228
C33   C     C_3   0.405057 0.172522 0.991880 -0.180770
C34   C     C_3   0.026415 0.754496 0.017503 -0.129794
C35   C     C_R   0.769601 0.440689 0.645598 0.538311
C36   C     C_3   0.924127 0.590127 0.987908 -0.154656
C37   C     C_3   0.494222 0.169845 0.071834 0.005245
C38   C     C_3   0.455865 0.175262 0.937515 -0.011943
C39   C     C_3   0.997226 0.670145 0.069738 0.010182
C40   C     C_3   0.953834 0.675052 0.936537 -0.004524
C41   C     C_R   0.535124 0.180379 0.337680 0.529138
C42   C     C_R   0.464594 0.179976 0.662088 0.539371
C43   C     C_R   0.034796 0.680064 0.337452 0.536589
C44   C     C_R   0.964337 0.679823 0.661873 0.537442
C45   C     C_3   0.449890 0.070935 0.031257 -0.182730
C46   C     C_3   0.693949 0.261411 0.502365 -0.188292
C47   C     C_3   0.499770 0.073476 0.975206 -0.165503
C48   C     C_3   0.999653 0.560787 0.020600 -0.176970
C49   C     C_3   0.028501 0.645328 0.967898 -0.177781
C50   C     C_1   0.756367 0.408606 0.899030 0.015131
C51   C     C_1   0.237731 0.424347 0.096195 0.034362
C52   C     C_1   0.262513 0.926234 0.904100 0.009257
C53   C     C_1   0.737253 0.925551 0.095834 0.060518
C54   C     C_1   0.732736 0.357514 0.024939 0.006002
C55   C     C_1   0.252672 0.408077 0.965459 -0.010245
C56   C     C_1   0.248008 0.908987 0.034984 -0.038810
C57   C     C_3   0.300599 0.272619 0.500317 -0.182397
C58   C     C_1   0.752057 0.909593 0.965052 0.031291
C59   C     C_1   0.743387 0.382111 0.955984 0.002945
C60   C     C_1   0.246231 0.414604 0.036387 0.010637
C61   C     C_1   0.254289 0.916437 0.963984 -0.034169
C62   C     C_1   0.745553 0.916284 0.035952 0.042755
C63   C     C_1   0.726596 0.337507 0.084749 0.018728
C64   C     C_1   0.257257 0.395343 0.904877 0.009283
C65   C     C_1   0.243289 0.895408 0.095459 0.001302
C66   C     C_1   0.756869 0.896350 0.904558 0.049271
C67   C     C_R   0.722430 0.307770 0.367831 0.562994
C68   C     C_3   0.261344 0.770007 0.494074 -0.130100
C69   C     C_R   0.276099 0.307910 0.632508 0.561504
C70   C     C_R   0.224691 0.814118 0.367595 0.547273
C71   C     C_R   0.777464 0.807375 0.631974 0.559875
C72   C     C_R   0.722278 0.952224 0.163963 0.547633
C73   C     C_R   0.277717 0.952713 0.836072 0.543142
C74   C     C_R   0.222393 0.451934 0.164103 0.546937
C75   C     C_R   0.777059 0.450852 0.835305 0.531843
C76   C     C_R   0.527051 0.178467 0.143050 0.551567
C77   C     C_R   0.436248 0.182959 0.862662 0.562035
C78   C     C_R   0.029319 0.678599 0.141372 0.581950
C79   C     C_3   0.802407 0.758929 0.495929 -0.179225
C80   C     C_R   0.934963 0.683075 0.862003 0.571239
C81   C     C_R   0.721708 0.310029 0.155983 0.549306
C82   C     C_R   0.263819 0.360999 0.835382 0.551401
C83   C     C_R   0.236243 0.860608 0.164666 0.551799
C84   C     C_R   0.763731 0.861249 0.835259 0.549413
C85   C     C_1   0.485450 0.171929 0.594665 -0.001026
C86   C     C_1   0.513072 0.173059 0.404552 0.000814
C87   C     C_1   0.984439 0.670606 0.594118 0.018064
C88   C     C_1   0.011820 0.670966 0.403885 0.010495
C89   C     C_1   0.502811 0.169483 0.464093 -0.050326
C90   C     C_3   0.720801 0.335674 0.443620 0.009800
C91   C     C_1   0.494968 0.168906 0.534871 -0.051050
C92   C     C_1   0.001100 0.665480 0.463270 -0.014188
C93   C     C_1   0.993407 0.665571 0.534168 -0.009854
C94   C     C_3   0.671135 0.378983 0.535996 -0.112727
C95   C     C_3   0.321736 0.396599 0.472004 -0.121370
C96   C     C_3   0.205203 0.809024 0.539725 -0.133220
C97   C     C_3   0.828716 0.874780 0.463674 -0.114202
C98   C     C_2   0.640677 0.543349 0.448830 0.551009
C99   C     C_2   0.329608 0.556753 0.577651 0.582077
C100  C     C_2   0.101200 0.931005 0.460605 0.578006
Cr1   Cr    Cr6+3 0.765830 0.160660 0.268180 1.052646
Cr2   Cr    Cr6+3 0.384070 0.324050 0.751550 1.098780
Cr3   Cr    Cr6+3 0.115930 0.824050 0.248450 1.077747
Cr4   Cr    Cr6+3 0.884070 0.824050 0.751550 1.103422
Cr5   Cr    Cr6+3 0.234170 0.160660 0.731820 1.037081
Cr6   Cr    Cr6+3 0.265830 0.660660 0.268180 1.050425
Cr7   Cr    Cr6+3 0.734170 0.660660 0.731820 1.060026
Cr8   Cr    Cr6+3 0.612110 0.009150 0.248770 1.034256
Cr9   Cr    Cr6+3 0.387890 0.009150 0.751230 1.036168
Cr10  Cr    Cr6+3 0.112110 0.509150 0.248770 1.045549
Cr11  Cr    Cr6+3 0.887890 0.509150 0.751230 1.034269
Cr12  Cr    Cr6+3 0.615930 0.324050 0.248450 1.108735
F1    F     F_    0.526388 0.376410 0.953709 -0.572444
F2    F     F_    0.425435 0.370576 0.064811 -0.590237
F3    F     F_    0.926355 0.896532 0.967434 -0.598613
F4    F     F_    0.870014 0.727336 0.076209 -0.614412
H1    H     H_    0.652637 0.191984 0.499124 0.112075
H2    H     H_    0.707792 0.052074 0.467770 0.113974
H3    H     H_    0.800061 0.543003 0.535722 0.110114
H4    H     H_    0.184641 0.550393 0.481709 0.103441
H5    H     H_    0.843926 0.338865 0.470284 0.184503
H6    H     H_    0.147617 0.326802 0.531431 0.156698
H7    H     H_    0.309261 0.018136 0.436433 0.131707
H8    H     H_    0.655902 0.850565 0.531248 0.184552
H9    H     H_    0.791044 0.207570 0.583924 0.165149
H10   H     H_    0.202850 0.208778 0.420729 0.160034
H11   H     H_    0.366674 0.858215 0.543884 0.171763
H12   H     H_    0.334927 0.192413 0.508488 0.112700
H13   H     H_    0.702477 0.718416 0.413672 0.173818
H14   H     H_    0.601952 0.171658 0.027966 0.109456
H15   H     H_    0.347648 0.173552 0.980008 0.119911
H16   H     H_    0.068483 0.822425 0.029950 0.149470
H17   H     H_    0.881689 0.523603 0.974213 0.136928
H18   H     H_    0.429632 0.988718 0.054408 0.156913
H19   H     H_    0.520177 0.992939 0.950017 0.164419
H20   H     H_    0.019863 0.469547 0.036347 0.161439
H21   H     H_    0.071455 0.623331 0.937624 0.151461
H22   H     H_    0.576790 0.610796 0.367674 0.336256
H23   H     H_    0.278499 0.681619 0.476335 0.136339
H24   H     H_    0.328323 0.673838 0.657617 0.350085
H25   H     H_    0.031821 0.019884 0.392608 0.346165
H26   H     H_    0.926991 0.106708 0.634760 0.337660
H27   H     H_    0.841671 0.687153 0.495033 0.107810
H28   H     H_    0.621915 0.389420 0.558587 0.153031
H29   H     H_    0.371592 0.417291 0.452711 0.154185
H30   H     H_    0.175492 0.747854 0.570063 0.156568
H31   H     H_    0.877913 0.881490 0.440736 0.156440
H32   H     H_    0.206586 0.090043 0.526764 0.134951
O1    O     O_R   0.783230 0.287800 0.346510 -0.496811
O2    O     O_R   0.454570 0.285140 0.836900 -0.433956
O3    O     O_R   0.045430 0.785140 0.163100 -0.494774
O4    O     O_R   0.954570 0.785140 0.836900 -0.459906
O5    O     O_R   0.677850 0.374730 0.185500 -0.460681
O6    O     O_R   0.322150 0.374730 0.814500 -0.490722
O7    O     O_R   0.177850 0.874730 0.185500 -0.492930
O8    O     O_R   0.822150 0.874730 0.814500 -0.473056
O9    O     O_3   0.664630 0.164620 0.255130 -0.326301
O10   O     O_3   0.335370 0.164620 0.744870 -0.324466
O11   O     O_3   0.164630 0.664620 0.255130 -0.295563
O12   O     O_R   0.216770 0.287800 0.653490 -0.509185
O13   O     O_3   0.835370 0.664620 0.744870 -0.325952
O14   O     O_R   0.760130 0.037060 0.338610 -0.506280
O15   O     O_R   0.239870 0.037060 0.661390 -0.516321
O16   O     O_R   0.260130 0.537060 0.338610 -0.522987
O17   O     O_R   0.739870 0.537060 0.661390 -0.502229
O18   O     O_R   0.666620 0.921370 0.332440 -0.505392
O19   O     O_R   0.333380 0.921370 0.667560 -0.520155
O20   O     O_R   0.166620 0.421370 0.332440 -0.501637
O21   O     O_R   0.833380 0.421370 0.667560 -0.507369
O22   O     O_R   0.557170 0.082420 0.312350 -0.497912
O23   O     O_R   0.283230 0.787800 0.346510 -0.509462
O24   O     O_R   0.442830 0.082420 0.687650 -0.494013
O25   O     O_R   0.057170 0.582420 0.312350 -0.497549
O26   O     O_R   0.942830 0.582420 0.687650 -0.498181
O27   O     O_R   0.548310 0.285980 0.316250 -0.486332
O28   O     O_R   0.451690 0.285980 0.683750 -0.495766
O29   O     O_R   0.048310 0.785980 0.316250 -0.484410
O30   O     O_R   0.951690 0.785980 0.683750 -0.475913
O31   O     O_R   0.680520 0.375500 0.327470 -0.432134
O32   O     O_R   0.319480 0.375500 0.672530 -0.454506
O33   O     O_R   0.180520 0.875500 0.327470 -0.459403
O34   O     O_R   0.716770 0.787800 0.653490 -0.497734
O35   O     O_R   0.819480 0.875500 0.672530 -0.445590
O36   O     O_R   0.780350 0.286970 0.193350 -0.487554
O37   O     O_R   0.219650 0.286970 0.806650 -0.503973
O38   O     O_R   0.280350 0.786970 0.193350 -0.495862
O39   O     O_R   0.719650 0.786970 0.806650 -0.506917
O40   O     O_R   0.757460 0.036290 0.196640 -0.513164
O41   O     O_R   0.242540 0.036290 0.803360 -0.497416
O42   O     O_R   0.257460 0.536290 0.196640 -0.482279
O43   O     O_R   0.742540 0.536290 0.803360 -0.490920
O44   O     O_R   0.663740 0.920540 0.179290 -0.498486
O45   O     O_R   0.554500 0.081650 0.170370 -0.509768
O46   O     O_R   0.336260 0.920540 0.820710 -0.502454
O47   O     O_R   0.163740 0.420540 0.179290 -0.511379
O48   O     O_R   0.836260 0.420540 0.820710 -0.511996
O49   O     O_2   0.618338 0.613347 0.489627 -0.524460
O50   O     O_R   0.613454 0.545868 0.378507 -0.661199
O51   O     O_2   0.388731 0.584821 0.569548 -0.513238
O52   O     O_R   0.297171 0.612693 0.629466 -0.685873
O53   O     O_2   0.057837 0.906734 0.498383 -0.519451
O54   O     O_R   0.083084 0.999729 0.400676 -0.666186
O55   O     O_2   0.885835 0.109359 0.512773 -0.528378
O56   O     O_R   0.445500 0.081650 0.829630 -0.499768
O57   O     O_R   0.890018 0.042198 0.623381 -0.655932
O58   O     O_R   0.054500 0.581650 0.170370 -0.500407
O59   O     O_R   0.945500 0.581650 0.829630 -0.499667
O60   O     O_R   0.545430 0.285140 0.163100 -0.462937

loop_
_geom_bond_atom_site_label_1
_geom_bond_atom_site_label_2
_ccdc_geom_bond_type
C58   C62   S    
Cr12  O27   S    
C21   C26   S    
Cr7   O17   S    
C56   C61   S    
C49   H21   S    
C67   O1    A    
Cr11  O26   S    
C33   C45   S    
Cr6   O23   S    
C14   C18   S    
C19   C23   S    
C2    C7    S    
C95   H29   S    
C51   C74   S    
C4    C8    S    
C36   H17   S    
Cr2   O10   S    
C57   H12   S    
C4    C70   S    
C85   C91   T    
C19   C46   S    
C81   O5    A    
Cr8   O45   S    
C15   C19   S    
C41   C86   S    
C45   H18   S    
C68   C96   S    
C7    C99   S    
C63   C81   S    
C50   C59   T    
C6    C98   S    
C28   C29   S    
C24   O20   A    
C44   O26   A    
C22   C79   S    
Cr8   O22   S    
C52   C61   T    
C69   O32   A    
C30   C31   S    
C68   H23   S    
H24   O52   S    
C65   C83   S    
Cr5   O12   S    
C83   O7    A    
C54   C63   T    
C11   C25   S    
Cr2   O28   S    
C40   C49   S    
C29   C33   S    
C69   O12   A    
C3    O55   D    
C53   C62   T    
H26   O57   S    
Cr5   O37   S    
C16   H6    S    
C72   O40   A    
C10   H3    S    
Cr9   O19   S    
C29   F2    S    
C74   O42   A    
Cr10  O20   S    
C17   H7    S    
Cr4   O30   S    
C88   C92   T    
C6    C94   S    
Cr11  O13   S    
C99   O52   S    
Cr5   O15   S    
C83   O38   A    
Cr6   O16   S    
C14   C27   S    
C89   C91   S    
C2    C69   S    
C2    C16   S    
Cr2   O6    S    
Cr9   O24   S    
Cr3   O3    S    
Cr11  O48   S    
C54   C59   S    
C75   O48   A    
C33   H15   S    
C41   O27   A    
Cr1   O9    S    
C44   C87   S    
Cr3   O33   S    
C55   C60   S    
C97   H31   S    
C71   O34   A    
C24   O16   A    
C20   H10   S    
C100  O54   S    
C11   H4    S    
C32   H14   S    
C58   C66   T    
C78   O3    A    
C13   O15   A    
C30   F3    S    
C45   C47   S    
C26   C96   S    
C79   H27   S    
C2    C57   S    
Cr12  O9    S    
C98   O50   S    
C82   O37   A    
C34   C39   S    
C3    O57   S    
C39   C78   S    
Cr7   O13   S    
C36   C40   S    
H25   O54   S    
Cr6   O38   S    
C43   O29   A    
C52   C73   S    
C76   O45   A    
C44   O30   A    
Cr4   O13   S    
C4    C68   S    
C30   C34   S    
Cr8   O9    S    
Cr7   O34   S    
C14   H2    S    
C6    C90   S    
C66   C84   S    
C19   H9    S    
C67   C90   S    
C17   C21   S    
C46   H1    S    
C12   C26   S    
Cr11  O21   S    
C12   C17   S    
C75   O43   A    
C9    C14   S    
C78   O58   A    
C5    C9    S    
C3    C9    S    
Cr5   O41   S    
C8    C96   S    
C100  O53   D    
C70   O33   A    
C7    C11   S    
Cr5   O10   S    
C46   C94   S    
C28   C32   S    
C8    C12   S    
C55   C64   T    
C80   O59   A    
C40   C80   S    
C30   C40   S    
Cr9   O46   S    
Cr10  O58   S    
C42   C85   S    
C16   C20   S    
C32   C37   S    
C24   C25   S    
C64   C82   S    
C38   C47   S    
Cr1   O36   S    
C42   O24   A    
Cr2   O2    S    
Cr12  O31   S    
C4    C17   S    
H22   O50   S    
Cr3   O7    S    
C48   C49   S    
C37   C76   S    
C1    O14   A    
C25   C95   S    
C23   C35   S    
C22   C27   S    
C21   C68   S    
C57   C95   S    
C35   O21   A    
C32   C47   S    
Cr9   O10   S    
C13   C26   S    
Cr4   O8    S    
C5    C79   S    
C43   C88   S    
C37   C45   S    
Cr1   O40   S    
C77   O56   A    
Cr11  O59   S    
C31   F4    S    
C7    C95   S    
Cr10  O25   S    
C56   C65   T    
C80   O4    A    
Cr8   O18   S    
C74   O47   A    
Cr1   O14   S    
C34   C49   S    
C9    C97   S    
C15   H5    S    
C98   O49   D    
C47   H19   S    
C10   C15   S    
C18   C22   S    
C48   H20   S    
Cr9   O56   S    
Cr4   O4    S    
C84   O39   A    
C86   C89   T    
C77   O2    A    
C6    C10   S    
C79   C97   S    
C46   C90   S    
C38   C77   S    
C10   C23   S    
C96   H30   S    
C41   O22   A    
C33   C38   S    
C23   C94   S    
Cr2   O32   S    
Cr12  O5    S    
C94   H28   S    
C12   H32   S    
C20   C57   S    
C22   H13   S    
C42   O28   A    
C50   C75   S    
C15   C90   S    
C27   C97   S    
C84   O8    A    
Cr3   O11   S    
C43   O25   A    
C1    O18   A    
C5    C18   S    
C99   O51   D    
C87   C93   T    
Cr1   O1    S    
C92   C93   S    
C35   O17   A    
C31   C39   S    
C21   H11   S    
C36   C48   S    
C70   O23   A    
C8    C100  S    
C11   C16   S    
C13   O19   A    
C28   F1    S    
C34   H16   S    
Cr7   O43   S    
C82   O6    A    
C76   O60   A    
Cr4   O35   S    
C5    C71   S    
C20   C25   S    
Cr12  O60   S    
C29   C37   S    
Cr10  O47   S    
C1    C27   S    
Cr6   O42   S    
C31   C36   S    
Cr8   O44   S    
Cr7   O39   S    
C67   O31   A    
C51   C60   T    
C81   O36   A    
Cr3   O29   S    
C28   C38   S    
C73   O46   A    
C53   C72   S    
C72   O44   A    
C73   O41   A    
Cr10  O11   S    
Cr6   O11   S    
C18   H8    S    
C39   C48   S    
C71   O35   A    
