data_mof_unit_14767.cif
_audit_creation_date              2013-03-05T16:35:37-0500
_audit_creation_method            fapswitch 2.2
_symmetry_space_group_name_H-M    P1
_symmetry_Int_Tables_number       1
_space_group_crystal_system       triclinic
_cell_length_a                    7.773144
_cell_length_b                    9.09704
_cell_length_c                    17.28753
_cell_angle_alpha                 89.979277
_cell_angle_beta                  85.198025
_cell_angle_gamma                 90.00888
_cell_volume                      1218.15530817

loop_
_atom_site_label
_atom_site_type_symbol
_atom_site_description
_atom_site_fract_x
_atom_site_fract_y
_atom_site_fract_z
_atom_type_partial_charge
O1    O     O_R   0.357240 0.711600 0.500000 -0.578330
O2    O     O_R   0.642760 0.288400 0.500000 -0.578310
O3    O     O_R   0.642760 0.711600 0.500000 -0.575158
O4    O     O_R   0.357240 0.288400 0.500000 -0.575060
H1    H     H_    0.196647 0.543182 0.901086 0.133622
H2    H     H_    0.805140 0.463691 0.098774 0.133876
C1    C     C_R   0.500003 0.780020 0.500015 0.848097
C2    C     C_R   0.499996 0.219980 0.499990 0.848386
O5    O     O_R   0.340660 0.500000 0.613590 -0.581659
O6    O     O_R   0.659340 0.500000 0.386410 -0.581791
O7    O     O_R   0.626230 0.500000 0.613600 -0.588331
O8    O     O_R   0.373770 0.500000 0.386400 -0.588407
C3    C     C_R   0.476268 0.498693 0.650763 0.791988
C4    C     C_R   0.523740 0.501541 0.349214 0.792123
Cu1   Cu    Cu3+1 0.330920 0.500000 0.500000 0.993272
Cu2   Cu    Cu3+1 0.669080 0.500000 0.500000 0.993151
H3    H     H_    0.285698 0.627808 0.123754 0.141011
H4    H     H_    0.710374 0.366487 0.876247 0.141607
N1    N     N_1   0.923170 0.500000 0.500010 -0.053829
N2    N     N_1   0.076830 0.500000 0.499990 -0.053794
C5    C     C_R   0.461682 0.485424 0.735828 -0.039570
C6    C     C_R   0.538170 0.515044 0.264103 -0.040352
C7    C     C_R   0.603832 0.426879 0.770612 -0.238229
C8    C     C_R   0.394158 0.570062 0.229309 -0.237893
C9    C     C_R   0.598893 0.410376 0.850431 -0.178339
C10   C     C_R   0.398567 0.586514 0.149511 -0.178649
C11   C     C_R   0.452656 0.453796 0.896916 0.144042
C12   C     C_R   0.546101 0.546406 0.102979 0.144316
C13   C     C_R   0.308770 0.509803 0.863682 -0.169071
C14   C     C_R   0.691897 0.494259 0.136202 -0.169423
C15   C     C_R   0.310789 0.526532 0.783086 0.152725
C16   C     C_R   0.690508 0.477755 0.216801 0.153347
C17   C     C_2   0.453870 0.449139 0.981415 0.122792
C18   C     C_2   0.544761 0.550922 0.018453 0.123374
C19   C     C_1   0.500007 0.934644 0.500008 -0.180500
C20   C     C_1   0.499990 0.065355 0.499999 -0.180513
H5    H     H_    0.719632 0.393016 0.735955 0.166374
H6    H     H_    0.277196 0.601173 0.263927 0.166930
C21   C     C_3   0.849873 0.416971 0.249489 -0.831755
H7    H     H_    0.908666 0.501834 0.285136 0.248397
H8    H     H_    0.816082 0.318068 0.285247 0.237914
H9    H     H_    0.949536 0.383915 0.202904 0.214715
C22   C     C_3   0.153961 0.591862 0.750285 -0.831554
H10   H     H_    0.191855 0.689218 0.714004 0.236737
H11   H     H_    0.091314 0.508491 0.715097 0.249083
H12   H     H_    0.056148 0.628589 0.796825 0.215402
C23   C     C_3   0.647694 0.671079 0.975487 -0.890976
H13   H     H_    0.704975 0.746871 0.016698 0.235741
H14   H     H_    0.754806 0.622769 0.937252 0.230271
H15   H     H_    0.562630 0.736520 0.940113 0.243457
C24   C     C_3   0.351596 0.328434 0.024209 -0.890242
H16   H     H_    0.295448 0.252208 0.982871 0.235927
H17   H     H_    0.436813 0.263591 0.059798 0.243464
H18   H     H_    0.243642 0.376074 0.062198 0.229591

loop_
_geom_bond_atom_site_label_1
_geom_bond_atom_site_label_2
_geom_bond_distance
_ccdc_geom_bond_type
C23   H13   1.111115 S    
C8    H6    1.083487 S    
C22   H10   1.110457 S    
O1    Cu1   1.935744 S    
C9    C11   1.393334 A    
C5    C15   1.422298 A    
O7    Cu2   1.964225 S    
C6    C16   1.422734 A    
C10   C12   1.393295 A    
C19   C20   1.189085 T    
O8    Cu1   1.964226 S    
O4    C2    1.272376 A    
C24   H18   1.109654 S    
C4    C6    1.471318 S    
O4    Cu1   1.935808 S    
C12   C14   1.395781 A    
C17   C18   1.357365 D    
O5    Cu1   1.971473 S    
C12   C18   1.462724 S    
C24   H16   1.111078 S    
C13   C15   1.400325 A    
O6    Cu2   1.971473 S    
C11   C17   1.462191 S    
C14   C16   1.400498 A    
C22   H11   1.110056 S    
O7    C3    1.283084 A    
H4    C9    1.083625 S    
C15   C22   1.508823 S    
Cu2   N1    1.975092 S    
H3    C10   1.083746 S    
H2    C14   1.084289 S    
C8    C10   1.385122 A    
C23   H15   1.110472 S    
O3    C1    1.272377 A    
C7    C9    1.385290 A    
C5    C7    1.406185 A    
O6    C4    1.279903 A    
Cu1   N2    1.975093 S    
C22   H12   1.111255 S    
C6    C8    1.406457 A    
C17   C24   1.511868 S    
C3    C5    1.470349 S    
Cu1   Cu2   2.628566 S    
H1    C13   1.084344 S    
O2    Cu2   1.935745 S    
C11   C13   1.395760 A    
C21   H8    1.110394 S    
C23   H14   1.109709 S    
C2    C20   1.406624 S    
C16   C21   1.508920 S    
C21   H7    1.109951 S    
O5    C3    1.279710 A    
C21   H9    1.111282 S    
C18   C23   1.512055 S    
O1    C1    1.272287 A    
C7    H5    1.083523 S    
C1    C19   1.406622 S    
O2    C2    1.272288 A    
O3    Cu2   1.935807 S    
N1    N2    1.194393 T    
O8    C4    1.283326 A    
C24   H17   1.110562 S    
