data_mof_unit_42716.cif
_audit_creation_date              2012-12-10T18:04:01-0500
_audit_creation_method            fapswitch 2.2
_symmetry_space_group_name_H-M    P1
_symmetry_Int_Tables_number       1
_space_group_crystal_system       triclinic
_cell_length_a                    11.374108
_cell_length_b                    9.992229
_cell_length_c                    11.62157
_cell_angle_alpha                 89.997773
_cell_angle_beta                  88.239368
_cell_angle_gamma                 89.99921
_cell_volume                      1320.19916099

loop_
_atom_site_label
_atom_site_type_symbol
_atom_type_description
_atom_site_fract_x
_atom_site_fract_y
_atom_site_fract_z
_atom_type_partial_charge
C1    C     C_R   0.262916 0.500175 0.503259 0.825864
C2    C     C_R   0.737085 0.500176 0.496740 0.825870
C3    C     C_R   0.439307 0.072216 0.421726 0.262979
C4    C     C_R   0.560689 0.072208 0.578275 0.262904
C5    C     C_R   0.435188 0.926838 0.427427 0.254030
C6    C     C_R   0.564809 0.926830 0.572573 0.254080
C7    C     C_R   0.499373 0.499090 0.263234 0.765771
C8    C     C_R   0.500625 0.499089 0.736767 0.765808
C9    C     C_R   0.499131 0.608656 0.059530 -0.004000
C10   C     C_R   0.500851 0.608661 0.940469 -0.003976
C11   C     C_R   0.499605 0.494352 0.129649 -0.116512
C12   C     C_R   0.500391 0.494356 0.870352 -0.116495
C13   C     C_R   0.500525 0.373701 0.062636 -0.190775
C14   C     C_R   0.499476 0.373702 0.937371 -0.190786
C15   C     C_3   0.512422 0.757866 0.932183 -0.082445
C16   C     C_3   0.487562 0.757854 0.067834 -0.082469
C17   C     C_R   0.062019 0.379835 0.506763 -0.074649
C18   C     C_R   0.937988 0.379849 0.493242 -0.074683
C19   C     C_R   0.872446 0.499346 0.493786 -0.170773
C20   C     C_R   0.127559 0.499337 0.506214 -0.170766
C21   C     C_R   0.939495 0.616617 0.489685 0.264061
C22   C     C_R   0.060511 0.616614 0.510314 0.264001
Cu1   Cu    Cu3+1 0.500000 0.640660 0.500000 1.072334
Cu2   Cu    Cu3+1 0.500000 0.359340 0.500000 1.036150
H1    H     H_    0.501348 0.278312 0.106465 0.176446
H2    H     H_    0.498657 0.278314 0.893548 0.176453
N1    N     N_R   0.500000 0.852070 0.500000 -0.236126
N2    N     N_R   0.500000 0.147940 0.500000 -0.234305
O1    O     O_R   0.319640 0.618740 0.499990 -0.505249
O2    O     O_R   0.680360 0.618740 0.500010 -0.505222
O3    O     O_R   0.319620 0.381170 0.499990 -0.550407
O4    O     O_R   0.680380 0.381170 0.500010 -0.550381
O5    O     O_R   0.499990 0.618810 0.319660 -0.545757
O6    O     O_R   0.500010 0.618810 0.680340 -0.545746
O7    O     O_R   0.499960 0.381240 0.319650 -0.553575
O8    O     O_R   0.500040 0.381240 0.680350 -0.553566
C23   C     C_R   0.643993 0.790271 0.896387 0.175467
C24   C     C_R   0.687377 0.923012 0.888043 -0.033755
C25   C     C_R   0.804948 0.950630 0.857838 -0.088240
C26   C     C_R   0.882526 0.846882 0.833560 -0.101888
C27   C     C_R   0.846876 0.715164 0.848704 -0.108238
C28   C     C_R   0.730430 0.686690 0.881078 -0.104748
H3    H     H_    0.634657 0.008440 0.906793 0.128926
H4    H     H_    0.834934 0.053153 0.850150 0.146764
H5    H     H_    0.968617 0.868998 0.799110 0.166036
H6    H     H_    0.908712 0.634474 0.832467 0.138547
H7    H     H_    0.710952 0.582023 0.892523 0.129799
C29   C     C_R   0.355994 0.790259 0.103641 0.175437
C30   C     C_R   0.312607 0.922998 0.111969 -0.033755
C31   C     C_R   0.195030 0.950614 0.142163 -0.088179
C32   C     C_R   0.117455 0.846867 0.166458 -0.101945
C33   C     C_R   0.153115 0.715153 0.151342 -0.108285
C34   C     C_R   0.269565 0.686678 0.118973 -0.104728
H8    H     H_    0.365327 0.008423 0.093212 0.128921
H9    H     H_    0.165039 0.053132 0.149821 0.146746
H10   H     H_    0.031353 0.868980 0.200909 0.166012
H11   H     H_    0.091287 0.634467 0.167602 0.138529
H12   H     H_    0.289049 0.582012 0.107552 0.129804
C35   C     C_R   0.410053 0.823291 0.866651 0.172015
C36   C     C_R   0.307781 0.745998 0.846682 -0.072829
C37   C     C_R   0.196034 0.802292 0.859127 -0.092617
C38   C     C_R   0.182832 0.939092 0.876297 -0.076605
C39   C     C_R   0.281640 0.019052 0.881642 -0.200834
C40   C     C_R   0.394114 0.963468 0.871334 -0.204241
H13   H     H_    0.310267 0.638488 0.839850 0.110412
H14   H     H_    0.119974 0.737454 0.860874 0.139391
H15   H     H_    0.097446 0.983704 0.892151 0.111291
H16   H     H_    0.271271 0.124317 0.902020 0.132523
H17   H     H_    0.462966 0.031791 0.887957 0.130476
C41   C     C_R   0.589933 0.823256 0.133375 0.172059
C42   C     C_R   0.692205 0.745950 0.153345 -0.072823
C43   C     C_R   0.803953 0.802241 0.140914 -0.092643
C44   C     C_R   0.817157 0.939038 0.123728 -0.076605
C45   C     C_R   0.718352 0.018999 0.118364 -0.200823
C46   C     C_R   0.605875 0.963432 0.128692 -0.204249
H18   H     H_    0.689721 0.638440 0.160173 0.110367
H19   H     H_    0.880012 0.737401 0.139188 0.139366
H20   H     H_    0.902539 0.983653 0.107894 0.111307
H21   H     H_    0.728723 0.124258 0.097971 0.132502
H22   H     H_    0.537018 0.031759 0.112071 0.130473
C47   C     C_R   0.119750 0.256977 0.540788 0.146721
C48   C     C_R   0.120236 0.145906 0.468732 -0.103999
C49   C     C_R   0.166395 0.028291 0.507996 -0.051790
C50   C     C_R   0.241500 0.029727 0.601173 -0.067703
C51   C     C_R   0.257002 0.148650 0.660936 -0.107639
C52   C     C_R   0.180829 0.253802 0.643819 -0.136538
H23   H     H_    0.077397 0.147180 0.386748 0.151309
H24   H     H_    0.146349 0.939914 0.460701 0.238874
H25   H     H_    0.291664 0.942048 0.623246 0.190092
H26   H     H_    0.329242 0.162196 0.717335 0.156740
H27   H     H_    0.185382 0.341626 0.698254 0.110782
C53   C     C_R   0.880251 0.257033 0.459183 0.146702
C54   C     C_R   0.879693 0.145958 0.531240 -0.103916
C55   C     C_R   0.833485 0.028383 0.491963 -0.051900
C56   C     C_R   0.758443 0.029863 0.398735 -0.067738
C57   C     C_R   0.743011 0.148809 0.338970 -0.107552
C58   C     C_R   0.819213 0.253916 0.356128 -0.136683
H28   H     H_    0.922511 0.147196 0.613238 0.151304
H29   H     H_    0.853452 0.939999 0.539286 0.238899
H30   H     H_    0.708275 0.942203 0.376626 0.190041
H31   H     H_    0.670803 0.162417 0.282538 0.156677
H32   H     H_    0.814715 0.341754 0.301698 0.110763
Br1   Br    Br    0.894725 0.748081 0.385824 -0.636305
Br2   Br    Br    0.105239 0.747988 0.614266 -0.636333
Br3   Br    Br    0.350897 0.159874 0.306673 -0.571269
Br4   Br    Br    0.649076 0.159852 0.693340 -0.571340
Br5   Br    Br    0.321264 0.831275 0.355144 -0.490738
Br6   Br    Br    0.678702 0.831244 0.644892 -0.490689

loop_
_geom_bond_atom_site_label_1
_geom_bond_atom_site_label_2
_ccdc_geom_bond_type
C27   C28   A    
C54   C55   A    
C44   C45   A    
C56   C57   A    
C16   C29   S    
C47   C48   A    
C51   C52   A    
C3    Br3   S    
C7    C11   S    
C35   C40   A    
Cu2   O8    S    
C38   H15   S    
Cu1   O1    S    
C21   C22   A    
C3    N2    A    
C19   C21   A    
C23   C24   A    
C18   C19   A    
C10   C15   S    
C5    Br5   S    
C42   H18   S    
C30   H8    S    
C1    O3    A    
C17   C20   A    
C22   Br2   S    
C2    O4    A    
C32   H10   S    
C8    O8    A    
C23   C28   A    
C15   C23   S    
C43   H19   S    
C5    N1    A    
C37   H14   S    
C6    N1    A    
Cu1   O5    S    
C27   H6    S    
C41   C42   A    
Cu1   N1    S    
C46   H22   S    
C58   H32   S    
C49   H24   S    
C35   C36   A    
C57   H31   S    
C7    O5    A    
C13   H1    S    
C26   H5    S    
C7    O7    A    
C4    N2    A    
C53   C58   A    
C31   C32   A    
C29   C34   A    
C51   H26   S    
Cu2   O7    S    
C45   C46   A    
C32   C33   A    
Cu1   O2    S    
C16   C41   S    
C50   C51   A    
C4    C6    A    
C25   C26   A    
C56   H30   S    
C44   H20   S    
C4    Br4   S    
C36   C37   A    
Cu2   O4    S    
C38   C39   A    
C49   C50   A    
C8    C12   S    
Cu1   O6    S    
C57   C58   A    
C1    O1    A    
C17   C18   A    
C47   C52   A    
C55   C56   A    
C8    O6    A    
C40   H17   S    
C14   H2    S    
C9    C11   A    
C10   C12   A    
C29   C30   A    
C12   C14   A    
C36   H13   S    
C48   C49   A    
C45   H21   S    
C48   H23   S    
C50   H25   S    
C33   C34   A    
C9    C10   A    
C39   H16   S    
C26   C27   A    
C1    C20   S    
C2    C19   S    
C15   C35   S    
C9    C16   S    
Cu2   N2    S    
C20   C22   A    
C43   C44   A    
C3    C5    A    
C34   H12   S    
C25   H4    S    
C31   H9    S    
C2    O2    A    
C18   C53   S    
Cu2   O3    S    
C24   H3    S    
C11   C13   A    
C24   C25   A    
C55   H29   S    
C53   C54   A    
C17   C47   S    
C28   H7    S    
C37   C38   A    
C33   H11   S    
Cu1   Cu2   S    
C39   C40   A    
C21   Br1   S    
C42   C43   A    
C30   C31   A    
C41   C46   A    
C6    Br6   S    
C13   C14   A    
C54   H28   S    
C15   C16   S    
C52   H27   S    
