data_mof_unit_34822.cif
_audit_creation_date              2012-12-10T17:02:58-0500
_audit_creation_method            fapswitch 2.2
_symmetry_space_group_name_H-M    P1
_symmetry_Int_Tables_number       1
_space_group_crystal_system       triclinic
_cell_length_a                    9.883651
_cell_length_b                    11.006262
_cell_length_c                    13.478767
_cell_angle_alpha                 95.055404
_cell_angle_beta                  81.716105
_cell_angle_gamma                 111.16539
_cell_volume                      1352.03592507

loop_
_atom_site_label
_atom_site_type_symbol
_atom_type_description
_atom_site_fract_x
_atom_site_fract_y
_atom_site_fract_z
_atom_type_partial_charge
C1    C     C_R   0.555997 0.745713 0.508064 0.763030
C2    C     C_R   0.426361 0.478350 0.972858 -0.019714
C3    C     C_R   0.457353 0.453777 0.867997 -0.010408
C4    C     C_R   0.529330 0.476043 0.037100 0.090426
C5    C     C_R   0.645791 0.431766 0.997880 0.139420
C6    C     C_R   0.660180 0.391090 0.897885 -0.201042
C7    C     C_R   0.567480 0.401409 0.834362 -0.105927
C8    C     C_R   0.524222 0.519540 0.138304 -0.204791
C9    C     C_R   0.731684 0.461849 0.160709 -0.209055
C10   C     C_R   0.374523 0.478019 0.799369 -0.095536
C11   C     C_2   0.584545 0.885631 0.517442 0.253743
C12   C     C_R   0.421966 0.484700 0.690203 0.790816
C13   C     C_2   0.471014 0.927871 0.528864 -0.300792
C14   C     C_2   0.412734 0.114378 0.495353 -0.441067
C15   C     C_2   0.488498 0.065175 0.545279 0.466115
C16   C     C_2   0.926458 0.497839 0.484086 0.665495
C17   C     C_2   0.078048 0.512904 0.505833 0.083118
C18   C     C_R   0.442374 0.254333 0.496431 0.859256
C19   C     C_R   0.577064 0.511569 0.309909 0.770882
C20   C     C_R   0.746945 0.427386 0.059275 -0.205927
C21   C     C_R   0.616792 0.503359 0.201255 -0.067012
C22   C     C_R   0.248601 0.505418 0.835838 -0.247713
C23   C     C_R   0.205684 0.511481 0.937840 -0.215955
C24   C     C_R   0.293200 0.501039 0.007864 0.503373
Cu1   Cu    Cu3+1 0.362000 0.479240 0.482530 0.983772
Cu2   Cu    Cu3+1 0.638000 0.520760 0.517470 1.026951
H1    H     H_    0.806683 0.451824 0.207461 0.190179
H2    H     H_    0.360142 0.859382 0.525560 0.125705
H3    H     H_    0.334287 0.051055 0.447258 0.130000
H4    H     H_    0.131725 0.592403 0.556504 0.079641
H5    H     H_    0.745021 0.352438 0.868026 0.178391
H6    H     H_    0.835541 0.393597 0.029317 0.143348
H7    H     H_    0.450794 0.568038 0.170951 0.199109
H8    H     H_    0.181370 0.521190 0.785115 0.188375
H9    H     H_    0.102180 0.523886 0.962210 0.148928
H10   H     H_    0.581516 0.363816 0.758890 0.234779
N1    N     N_2   0.845330 0.551960 0.543750 -0.040033
N2    N     N_2   0.154690 0.448120 0.456210 -0.008971
O1    O     O_R   0.426290 0.668220 0.490680 -0.624651
O2    O     O_R   0.659360 0.703290 0.520190 -0.552790
O3    O     O_R   0.326580 0.473880 0.629020 -0.571814
O4    O     O_R   0.559660 0.508940 0.658530 -0.567431
O5    O     O_R   0.340640 0.296710 0.479810 -0.551343
O6    O     O_R   0.573710 0.331780 0.509320 -0.554281
O7    O     O_R   0.440340 0.491060 0.341470 -0.608535
O8    O     O_R   0.673420 0.526120 0.370980 -0.543925
Cl1   Cl    Cl    0.768816 0.992578 0.509752 -0.570817
O9    O     O_3   0.894579 0.460978 0.386442 -0.628400
C25   C     C_3   0.814634 0.325697 0.376112 -0.138683
H11   H     H_    0.799450 0.269320 0.444210 0.231270
H12   H     H_    0.869322 0.283542 0.312566 0.153326
H13   H     H_    0.707149 0.309866 0.351882 0.145802
O10   O     O_3   0.076726 0.326885 0.423732 -0.480454
C26   C     C_3   0.142559 0.304189 0.327497 -0.028987
H14   H     H_    0.240480 0.279464 0.330267 0.170199
H15   H     H_    0.168284 0.387764 0.278870 0.182307
H16   H     H_    0.065079 0.217611 0.291477 0.116045
O11   O     O_3   0.877432 0.575522 0.639065 -0.545380
C27   C     C_3   0.884684 0.703761 0.666352 -0.123282
H17   H     H_    0.774282 0.710333 0.680182 0.202329
H18   H     H_    0.955129 0.773732 0.608841 0.144709
H19   H     H_    0.934293 0.733242 0.737473 0.139227
O12   O     O_3   0.236412 0.489661 0.108312 -0.620874
C28   C     C_3   0.193392 0.596638 0.144174 -0.385993
H20   H     H_    0.080201 0.578644 0.128953 0.189958
H21   H     H_    0.270100 0.690707 0.112865 0.163166
H22   H     H_    0.193137 0.606683 0.226818 0.203781
Cl2   Cl    Cl    0.594808 0.155167 0.640281 -0.585387

loop_
_geom_bond_atom_site_label_1
_geom_bond_atom_site_label_2
_ccdc_geom_bond_type
C2    C4    A    
C23   C24   A    
C19   O7    A    
C13   H2    S    
C6    C7    A    
C18   O6    A    
Cu1   N2    S    
C7    H10   S    
C14   C18   S    
C9    C20   A    
C11   Cl1   S    
N1    O11   S    
C1    C11   S    
C16   N1    D    
C4    C8    A    
C25   H13   S    
C9    C21   A    
C28   H20   S    
Cu1   O5    S    
C8    C21   A    
Cu1   Cu2   S    
C19   O8    A    
Cu2   O6    S    
C27   H17   S    
Cu2   N1    S    
C3    C10   A    
O10   C26   S    
Cu1   O1    S    
C17   H4    S    
C11   C13   D    
Cu2   O2    S    
C12   O3    A    
N2    O10   S    
C10   C12   S    
C15   Cl2   S    
O9    C25   S    
C19   C21   S    
C2    C3    A    
C24   O12   S    
C3    C7    A    
C17   N2    D    
C13   C15   S    
Cu2   O4    S    
C2    C24   A    
C5    C6    A    
C22   H8    S    
C23   H9    S    
C26   H15   S    
C27   H18   S    
C16   C17   S    
Cu2   O8    S    
C14   H3    S    
C12   O4    A    
O12   C28   S    
C28   H22   S    
Cu1   O7    S    
C16   O9    S    
C9    H1    S    
C25   H11   S    
C20   H6    S    
Cu1   O3    S    
C26   H14   S    
C5    C20   A    
C1    O1    A    
C14   C15   D    
C4    C5    A    
C27   H19   S    
C6    H5    S    
C1    O2    A    
O11   C27   S    
C18   O5    A    
C22   C23   A    
C10   C22   A    
C8    H7    S    
C25   H12   S    
C26   H16   S    
C28   H21   S    
