data_mof_unit_20699.cif
_audit_creation_date              2012-10-26T17:12:48-0400
_audit_creation_method            fapswitch 2.2
_symmetry_space_group_name_H-M    P1
_symmetry_Int_Tables_number       1
_space_group_crystal_system       triclinic
_cell_length_a                    27.965668
_cell_length_b                    18.722683
_cell_length_c                    16.795368
_cell_angle_alpha                 90.000013
_cell_angle_beta                  62.670968
_cell_angle_gamma                 90.000019
_cell_volume                      7812.38946032

loop_
_atom_site_label
_atom_site_type_symbol
_atom_type_description
_atom_site_fract_x
_atom_site_fract_y
_atom_site_fract_z
_atom_type_partial_charge
C1    C     C_R   0.296034 0.731042 0.328389 0.830400
C2    C     C_R   0.703820 0.268740 0.671644 0.815568
C3    C     C_R   0.703911 0.731102 0.671605 0.808394
C4    C     C_R   0.296256 0.268628 0.328364 0.805439
C5    C     C_R   0.796089 0.231102 0.328395 0.808392
C6    C     C_R   0.203744 0.768628 0.671636 0.805438
C7    C     C_R   0.203966 0.231042 0.671611 0.830401
C8    C     C_R   0.796180 0.768740 0.328356 0.815569
C9    C     C_R   0.398297 0.000154 0.503333 0.076224
C10   C     C_R   0.585950 0.000500 0.550867 0.076747
C11   C     C_R   0.914050 0.500500 0.449133 0.076747
C12   C     C_R   0.101702 0.500154 0.496668 0.076224
C13   C     C_R   0.576075 0.873364 0.579639 -0.193401
C14   C     C_R   0.415329 0.124554 0.458926 -0.192721
C15   C     C_R   0.380658 0.878090 0.557599 -0.190374
C16   C     C_R   0.582466 0.129490 0.554490 -0.197634
C17   C     C_R   0.119342 0.378090 0.442400 -0.190367
C18   C     C_R   0.917533 0.629490 0.445512 -0.197635
C19   C     C_R   0.923925 0.373365 0.420359 -0.193403
C20   C     C_R   0.084671 0.624554 0.541075 -0.192722
C21   C     C_R   0.215858 0.758425 0.957761 0.018357
C22   C     C_R   0.781935 0.238135 0.043745 0.022509
C23   C     C_R   0.782634 0.760793 0.043187 0.021885
C24   C     C_R   0.219707 0.235539 0.955136 0.022733
C25   C     C_R   0.717365 0.260793 0.956813 0.021886
C26   C     C_R   0.280293 0.735539 0.044864 0.022733
C27   C     C_R   0.284141 0.258425 0.042239 0.018356
C28   C     C_R   0.718064 0.738136 0.956255 0.022509
C29   C     C_R   0.263586 0.717845 0.915255 0.041251
C30   C     C_R   0.733935 0.278222 0.086506 0.049544
C31   C     C_R   0.734676 0.720624 0.085895 0.045221
C32   C     C_R   0.267722 0.275608 0.912363 0.048701
C33   C     C_R   0.765324 0.220624 0.914105 0.045222
C34   C     C_R   0.232278 0.775607 0.087637 0.048701
C35   C     C_R   0.236414 0.217845 0.084745 0.041252
C36   C     C_R   0.766065 0.778223 0.913494 0.049544
C37   C     C_R   0.297191 0.709565 0.957005 0.047854
C38   C     C_R   0.700188 0.286234 0.044920 0.044457
C39   C     C_R   0.700927 0.712619 0.044316 0.045374
C40   C     C_R   0.301410 0.283700 0.954038 0.046268
C41   C     C_R   0.799073 0.212619 0.955684 0.045375
C42   C     C_R   0.198590 0.783700 0.045962 0.046268
C43   C     C_R   0.202809 0.209565 0.042995 0.047853
C44   C     C_R   0.799811 0.786235 0.955080 0.044457
C45   C     C_R   0.137787 0.815168 0.953643 0.061405
C46   C     C_R   0.860844 0.183003 0.046995 0.061855
C47   C     C_R   0.861307 0.816385 0.046710 0.060621
C48   C     C_R   0.140397 0.181194 0.952352 0.066777
C49   C     C_R   0.638693 0.316385 0.953290 0.060621
C50   C     C_R   0.359603 0.681194 0.047648 0.066778
C51   C     C_R   0.362213 0.315168 0.046356 0.061405
C52   C     C_R   0.639156 0.683003 0.953005 0.061855
C53   C     C_R   0.113821 0.843487 0.901296 -0.124467
C54   C     C_R   0.885462 0.155689 0.098928 -0.121845
C55   C     C_R   0.885796 0.843879 0.098747 -0.124024
C56   C     C_R   0.115008 0.155154 0.900937 -0.123570
C57   C     C_R   0.614204 0.343879 0.901253 -0.124025
C58   C     C_R   0.384991 0.655154 0.099063 -0.123570
C59   C     C_R   0.386179 0.343487 0.098703 -0.124467
C60   C     C_R   0.614538 0.655689 0.901072 -0.121846
C61   C     C_R   0.135020 0.824180 0.810925 -0.274767
C62   C     C_R   0.864385 0.175194 0.189146 -0.285150
C63   C     C_R   0.864858 0.824132 0.188919 -0.274248
C64   C     C_R   0.135492 0.175633 0.811122 -0.278646
C65   C     C_R   0.635142 0.324132 0.811080 -0.274248
C66   C     C_R   0.364508 0.675632 0.188878 -0.278647
C67   C     C_R   0.364980 0.324180 0.189075 -0.274767
C68   C     C_R   0.635615 0.675193 0.810853 -0.285149
C69   C     C_R   0.179117 0.778057 0.770491 -0.120109
C70   C     C_R   0.820207 0.221121 0.229678 -0.123167
C71   C     C_R   0.820522 0.778426 0.229525 -0.125672
C72   C     C_R   0.180142 0.220765 0.770281 -0.127690
C73   C     C_R   0.679478 0.278426 0.770475 -0.125672
C74   C     C_R   0.319858 0.720765 0.229719 -0.127690
C75   C     C_R   0.320883 0.278057 0.229509 -0.120108
C76   C     C_R   0.679793 0.721121 0.770322 -0.123165
C77   C     C_R   0.202900 0.749663 0.822975 0.058052
C78   C     C_R   0.795739 0.248514 0.177636 0.065529
C79   C     C_R   0.796192 0.750858 0.177364 0.060843
C80   C     C_R   0.205287 0.247092 0.821863 0.063035
C81   C     C_R   0.703808 0.250858 0.822636 0.060843
C82   C     C_R   0.294712 0.747092 0.178137 0.063035
C83   C     C_R   0.297099 0.249663 0.177024 0.058052
C84   C     C_R   0.704261 0.748515 0.822364 0.065527
C85   C     C_R   0.197023 0.631410 0.525440 0.809981
C86   C     C_R   0.803756 0.368214 0.471278 0.803867
C87   C     C_R   0.803241 0.631699 0.472958 0.807994
C88   C     C_R   0.200702 0.368923 0.513474 0.819366
C89   C     C_R   0.696759 0.131699 0.527042 0.807993
C90   C     C_R   0.299298 0.868923 0.486526 0.819366
C91   C     C_R   0.302977 0.131410 0.474560 0.809983
C92   C     C_R   0.696244 0.868214 0.528722 0.803867
C93   C     C_R   0.185480 0.774540 0.911316 0.074054
C94   C     C_R   0.812835 0.223019 0.089643 0.075550
C95   C     C_R   0.813395 0.776174 0.089252 0.075785
C96   C     C_R   0.188489 0.221032 0.909561 0.075660
C97   C     C_R   0.686605 0.276174 0.910748 0.075785
C98   C     C_R   0.311511 0.721032 0.090439 0.075660
C99   C     C_R   0.314520 0.274540 0.088684 0.074054
C100  C     C_R   0.687164 0.723020 0.910357 0.075550
C101  C     C_R   0.115891 0.824616 0.047229 -0.175682
C102  C     C_R   0.882328 0.173090 0.953542 -0.179287
C103  C     C_R   0.882894 0.826209 0.953211 -0.174914
C104  C     C_R   0.119558 0.170204 0.045510 -0.194752
C105  C     C_R   0.617106 0.326209 0.046789 -0.174915
C106  C     C_R   0.380442 0.670204 0.954490 -0.194750
C107  C     C_R   0.384109 0.324616 0.952770 -0.175682
C108  C     C_R   0.617672 0.673090 0.046458 -0.179286
C109  C     C_R   0.146378 0.811858 0.091708 -0.214253
C110  C     C_R   0.851386 0.184856 0.909645 -0.214181
C111  C     C_R   0.852095 0.814115 0.909118 -0.214925
C112  C     C_R   0.150761 0.181233 0.088928 -0.223622
C113  C     C_R   0.647905 0.314115 0.090882 -0.214924
C114  C     C_R   0.349239 0.681233 0.911072 -0.223620
C115  C     C_R   0.353621 0.311858 0.908292 -0.214253
C116  C     C_R   0.648614 0.684856 0.090355 -0.214181
C117  C     C_R   0.243064 0.696393 0.791718 -0.174346
C118  C     C_R   0.755140 0.301261 0.208986 -0.188809
C119  C     C_R   0.755666 0.698018 0.208706 -0.177224
C120  C     C_R   0.246233 0.299414 0.790366 -0.186584
C121  C     C_R   0.744334 0.198018 0.791294 -0.177225
C122  C     C_R   0.253767 0.799414 0.209634 -0.186585
C123  C     C_R   0.256937 0.196393 0.208282 -0.174346
C124  C     C_R   0.744860 0.801261 0.791014 -0.188809
C125  C     C_R   0.274100 0.682800 0.834951 -0.180151
C126  C     C_R   0.723535 0.313689 0.166431 -0.227152
C127  C     C_R   0.724225 0.685283 0.165932 -0.212678
C128  C     C_R   0.278129 0.311185 0.832504 -0.226265
C129  C     C_R   0.775775 0.185283 0.834068 -0.212679
C130  C     C_R   0.221871 0.811184 0.167496 -0.226265
C131  C     C_R   0.225900 0.182800 0.165049 -0.180144
C132  C     C_R   0.776465 0.813689 0.833569 -0.227152
C133  C     C_R   0.927865 0.900474 0.064866 0.812029
C134  C     C_R   0.072383 0.099254 0.934983 0.810907
C135  C     C_R   0.072029 0.900382 0.935175 0.812195
C136  C     C_R   0.927759 0.099399 0.064939 0.810854
C137  C     C_R   0.427971 0.400382 0.064825 0.812194
C138  C     C_R   0.572241 0.599399 0.935060 0.810853
C139  C     C_R   0.572135 0.400474 0.935134 0.812030
C140  C     C_R   0.427616 0.599254 0.065017 0.810906
C141  C     C_R   0.043683 0.627387 0.515588 -0.079720
C142  C     C_R   0.974333 0.374081 0.420559 -0.074016
C143  C     C_R   0.959258 0.629891 0.468972 -0.079773
C144  C     C_R   0.071876 0.376144 0.433293 -0.074859
C145  C     C_R   0.540741 0.129891 0.531030 -0.079772
C146  C     C_R   0.428125 0.876144 0.566705 -0.074859
C147  C     C_R   0.456316 0.127387 0.484413 -0.079719
C148  C     C_R   0.525668 0.874080 0.579438 -0.074012
C149  C     C_R   0.019680 0.692997 0.512856 0.334106
C150  C     C_R   0.007823 0.313087 0.396486 0.339162
C151  C     C_R   0.977511 0.694284 0.489352 0.332389
C152  C     C_R   0.056189 0.313873 0.403556 0.339309
C153  C     C_R   0.522488 0.194284 0.510651 0.332390
C154  C     C_R   0.443812 0.813871 0.596437 0.339309
C155  C     C_R   0.480319 0.192997 0.487146 0.334105
C156  C     C_R   0.492180 0.813084 0.603505 0.339157
C157  C     C_R   0.982961 0.564834 0.472188 -0.030643
C158  C     C_R   0.039623 0.437564 0.453896 -0.034065
C159  C     C_R   0.027430 0.564127 0.489999 -0.033658
C160  C     C_R   0.991912 0.437106 0.444470 -0.037086
C161  C     C_R   0.472569 0.064127 0.510002 -0.033658
C162  C     C_R   0.508088 0.937106 0.555529 -0.037084
C163  C     C_R   0.517038 0.064834 0.527814 -0.030643
C164  C     C_R   0.460377 0.937563 0.546103 -0.034063
C165  C     C_R   0.444125 0.000351 0.518644 0.045914
C166  C     C_R   0.536965 0.000681 0.544959 0.045856
C167  C     C_R   0.963034 0.500681 0.455041 0.045856
C168  C     C_R   0.055874 0.500351 0.481356 0.045914
C169  C     C_R   0.367972 0.937000 0.517413 0.024056
C170  C     C_R   0.611224 0.066015 0.549988 0.026430
C171  C     C_R   0.608996 0.935100 0.558187 0.030162
C172  C     C_R   0.382340 0.063593 0.475873 0.031188
C173  C     C_R   0.891004 0.435100 0.441812 0.030162
C174  C     C_R   0.117660 0.563593 0.524127 0.031189
C175  C     C_R   0.132028 0.436999 0.482587 0.024055
C176  C     C_R   0.888776 0.566016 0.450013 0.026430
C177  C     C_R   0.325575 0.935740 0.492242 -0.109452
C178  C     C_R   0.664047 0.065608 0.543291 -0.113729
C179  C     C_R   0.663234 0.934684 0.546041 -0.117446
C180  C     C_R   0.332982 0.064414 0.469710 -0.116081
C181  C     C_R   0.836766 0.434684 0.453959 -0.117446
C182  C     C_R   0.167018 0.564414 0.530290 -0.116081
C183  C     C_R   0.174425 0.435740 0.507758 -0.109452
C184  C     C_R   0.835953 0.565608 0.456709 -0.113728
C185  C     C_R   0.307738 0.999702 0.472110 -0.271352
C186  C     C_R   0.688926 0.000068 0.540741 -0.268824
C187  C     C_R   0.811074 0.500068 0.459259 -0.268824
C188  C     C_R   0.192262 0.499701 0.527890 -0.271352
Cu1   Cu    Cu3+1 0.209920 0.785290 0.495070 0.913342
Cu2   Cu    Cu3+1 0.790080 0.214710 0.504930 0.948492
Cu3   Cu    Cu3+1 0.790080 0.785290 0.504930 0.919559
Cu4   Cu    Cu3+1 0.209920 0.214710 0.495070 0.915048
Cu5   Cu    Cu3+1 0.709920 0.285290 0.495070 0.919558
Cu6   Cu    Cu3+1 0.290080 0.714710 0.504930 0.915048
Cu7   Cu    Cu3+1 0.290080 0.285290 0.504930 0.913341
Cu8   Cu    Cu3+1 0.709920 0.714710 0.495070 0.948492
Cu9   Cu    Cu3+1 0.495240 0.500000 0.924150 0.928811
Cu10  Cu    Cu3+1 0.504760 0.500000 0.075850 0.931136
Cu11  Cu    Cu3+1 0.995240 0.000000 0.924150 0.931136
Cu12  Cu    Cu3+1 0.004760 1.000000 0.075850 0.928816
H1    H     H_    0.272574 0.999444 0.460822 0.185371
H2    H     H_    0.730003 0.999929 0.530965 0.188228
H3    H     H_    0.769997 0.499929 0.469035 0.188228
H4    H     H_    0.227426 0.499444 0.539178 0.185371
H5    H     H_    0.587848 0.825088 0.600805 0.203642
H6    H     H_    0.410676 0.170381 0.424343 0.210252
H7    H     H_    0.353340 0.833819 0.584950 0.215338
H8    H     H_    0.590540 0.179448 0.577343 0.216110
H9    H     H_    0.146659 0.333819 0.415049 0.215338
H10   H     H_    0.909460 0.679448 0.422658 0.216110
H11   H     H_    0.912152 0.325089 0.399193 0.203643
H12   H     H_    0.089324 0.670381 0.575659 0.210251
H13   H     H_    0.118075 0.847508 0.770441 0.192746
H14   H     H_    0.881422 0.152000 0.229488 0.190115
H15   H     H_    0.882214 0.846807 0.229150 0.192860
H16   H     H_    0.117481 0.154011 0.771323 0.190176
H17   H     H_    0.617786 0.346807 0.770850 0.192859
H18   H     H_    0.382519 0.654011 0.228677 0.190176
H19   H     H_    0.381925 0.347508 0.229558 0.192746
H20   H     H_    0.618579 0.651998 0.770512 0.190111
H21   H     H_    0.074613 0.839693 0.088869 0.175042
H22   H     H_    0.923661 0.158583 0.911413 0.173212
H23   H     H_    0.924207 0.840911 0.911231 0.175911
H24   H     H_    0.078507 0.155425 0.088137 0.177526
H25   H     H_    0.575793 0.340911 0.088769 0.175911
H26   H     H_    0.421492 0.655425 0.911863 0.177521
H27   H     H_    0.425386 0.339693 0.911131 0.175042
H28   H     H_    0.576339 0.658583 0.088587 0.173212
H29   H     H_    0.127494 0.821906 0.163026 0.137439
H30   H     H_    0.870076 0.174574 0.838396 0.139471
H31   H     H_    0.870837 0.824310 0.837832 0.138646
H32   H     H_    0.132366 0.169951 0.159903 0.155127
H33   H     H_    0.629162 0.324310 0.162168 0.138646
H34   H     H_    0.367634 0.669952 0.840097 0.155121
H35   H     H_    0.372506 0.321906 0.836974 0.137439
H36   H     H_    0.629924 0.674575 0.161604 0.139472
H37   H     H_    0.250425 0.662436 0.735475 0.167852
H38   H     H_    0.747886 0.335815 0.264661 0.172840
H39   H     H_    0.748274 0.663697 0.264653 0.172658
H40   H     H_    0.253553 0.334350 0.734993 0.174181
H41   H     H_    0.751726 0.163697 0.735346 0.172658
H42   H     H_    0.246447 0.834349 0.265007 0.174181
H43   H     H_    0.249575 0.162436 0.264524 0.167852
H44   H     H_    0.752114 0.835815 0.735339 0.172840
H45   H     H_    0.304982 0.642447 0.806008 0.142585
H46   H     H_    0.692391 0.353722 0.195264 0.137988
H47   H     H_    0.693082 0.645248 0.194869 0.139665
H48   H     H_    0.309468 0.350952 0.803396 0.137867
H49   H     H_    0.806918 0.145247 0.805131 0.139665
H50   H     H_    0.190532 0.850951 0.196604 0.137868
H51   H     H_    0.195018 0.142447 0.193991 0.142581
H52   H     H_    0.807609 0.853722 0.804736 0.137988
O1    O     O_R   0.255040 0.869590 0.478480 -0.589441
O2    O     O_R   0.744960 0.130410 0.521520 -0.585329
O3    O     O_R   0.744960 0.869590 0.521520 -0.588053
O4    O     O_R   0.255040 0.130410 0.478480 -0.585657
O5    O     O_R   0.755040 0.369590 0.478480 -0.588054
O6    O     O_R   0.244960 0.630410 0.521520 -0.585655
O7    O     O_R   0.244960 0.369590 0.521520 -0.589441
O8    O     O_R   0.755040 0.630410 0.478480 -0.585331
O9    O     O_R   0.182050 0.796550 0.624440 -0.588840
O10   O     O_R   0.817950 0.203450 0.375560 -0.588025
O11   O     O_R   0.817950 0.796550 0.375560 -0.583896
O12   O     O_R   0.182050 0.203450 0.624440 -0.578507
O13   O     O_R   0.682050 0.296550 0.624440 -0.583896
O14   O     O_R   0.317950 0.703450 0.375560 -0.578508
O15   O     O_R   0.317950 0.296550 0.375560 -0.588842
O16   O     O_R   0.682050 0.703450 0.624440 -0.588027
O17   O     O_R   0.250530 0.763330 0.367210 -0.596723
O18   O     O_R   0.749470 0.236670 0.632790 -0.591700
O19   O     O_R   0.749470 0.763330 0.632790 -0.598816
O20   O     O_R   0.250530 0.236670 0.367210 -0.607209
O21   O     O_R   0.750530 0.263330 0.367210 -0.598817
O22   O     O_R   0.249470 0.736670 0.632790 -0.607205
O23   O     O_R   0.249470 0.263330 0.632790 -0.596723
O24   O     O_R   0.750530 0.736670 0.367210 -0.591699
O25   O     O_R   0.177260 0.690030 0.513710 -0.596360
O26   O     O_R   0.822740 0.309970 0.486290 -0.584052
O27   O     O_R   0.822740 0.690030 0.486290 -0.599924
O28   O     O_R   0.177260 0.309970 0.513710 -0.600030
O29   O     O_R   0.677260 0.190030 0.513710 -0.599924
O30   O     O_R   0.322740 0.809970 0.486290 -0.600032
O31   O     O_R   0.322740 0.190030 0.486290 -0.596360
O32   O     O_R   0.677260 0.809970 0.513710 -0.584050
O33   O     O_R   0.051640 0.926880 0.885090 -0.585523
O34   O     O_R   0.948360 0.073120 0.114910 -0.585856
O35   O     O_R   0.948360 0.926880 0.114910 -0.584411
O36   O     O_R   0.051640 0.073120 0.885090 -0.586709
O37   O     O_R   0.551640 0.426880 0.885090 -0.584410
O38   O     O_R   0.448360 0.573120 0.114910 -0.586708
O39   O     O_R   0.448360 0.426880 0.114910 -0.585523
O40   O     O_R   0.551640 0.573120 0.885090 -0.585862
O41   O     O_R   0.940620 0.926560 0.986760 -0.594292
O42   O     O_R   0.059380 0.073440 0.013240 -0.595484
O43   O     O_R   0.059380 0.926560 0.013240 -0.593558
O44   O     O_R   0.940620 0.073440 0.986760 -0.594510
O45   O     O_R   0.440620 0.426560 0.986760 -0.593558
O46   O     O_R   0.559380 0.573440 0.013240 -0.594508
O47   O     O_R   0.559380 0.426560 0.013240 -0.594292
O48   O     O_R   0.440620 0.573440 0.986760 -0.595485
O49   O     O_3   0.507834 0.750794 0.629212 -0.577645
C189  C     C_3   0.491456 0.753834 0.722173 0.065689
H53   H     H_    0.447083 0.747293 0.760492 0.173201
H54   H     H_    0.503099 0.805154 0.742268 0.129315
C190  C     C_3   0.518738 0.693692 0.746818 -0.782390
H55   H     H_    0.562925 0.696315 0.703650 0.255310
H56   H     H_    0.510414 0.699005 0.817850 0.197206
H57   H     H_    0.503627 0.641206 0.737167 0.243318
O50   O     O_3   0.462551 0.256393 0.467486 -0.581988
C191  C     C_3   0.420936 0.284134 0.547605 0.087884
H58   H     H_    0.436333 0.297632 0.596292 0.161866
H59   H     H_    0.387044 0.245440 0.579208 0.151724
C192  C     C_3   0.399051 0.351972 0.526534 -0.753164
H60   H     H_    0.383573 0.340257 0.477725 0.257210
H61   H     H_    0.365680 0.373560 0.588897 0.178937
H62   H     H_    0.431407 0.392734 0.497585 0.235726
O51   O     O_3   0.410683 0.754486 0.623071 -0.578112
C193  C     C_3   0.426467 0.707708 0.549389 0.090038
H63   H     H_    0.468032 0.687413 0.527849 0.172446
H64   H     H_    0.424601 0.734605 0.491663 0.136656
C194  C     C_3   0.388318 0.644208 0.576931 -0.784737
H65   H     H_    0.346604 0.662719 0.597191 0.256397
H66   H     H_    0.400452 0.606615 0.519771 0.188391
H67   H     H_    0.389461 0.615833 0.634117 0.236788
O52   O     O_3   0.544973 0.259016 0.515220 -0.583632
C195  C     C_3   0.587401 0.274994 0.429750 0.094278
H68   H     H_    0.572358 0.279969 0.378994 0.161651
H69   H     H_    0.619269 0.233145 0.407710 0.154637
C196  C     C_3   0.612547 0.345861 0.434410 -0.752232
H70   H     H_    0.628316 0.342514 0.484104 0.254817
H71   H     H_    0.646193 0.359020 0.367813 0.178461
H72   H     H_    0.581966 0.389035 0.454583 0.236787
O53   O     O_3   0.089320 0.254489 0.376918 -0.578108
C197  C     C_3   0.073533 0.207706 0.450595 0.090040
H73   H     H_    0.031972 0.187405 0.472122 0.172449
H74   H     H_    0.075390 0.234600 0.508331 0.136645
C198  C     C_3   0.111689 0.144212 0.423054 -0.784737
H75   H     H_    0.153400 0.162729 0.402808 0.256404
H76   H     H_    0.099553 0.106614 0.480210 0.188390
H77   H     H_    0.110556 0.115840 0.365858 0.236782
O54   O     O_3   0.955026 0.759016 0.484782 -0.583631
C199  C     C_3   0.912598 0.774993 0.570252 0.094278
H78   H     H_    0.927640 0.779968 0.621009 0.161649
H79   H     H_    0.880730 0.733146 0.592290 0.154639
C200  C     C_3   0.887453 0.845862 0.565593 -0.752232
H80   H     H_    0.871686 0.842518 0.515896 0.254815
H81   H     H_    0.853806 0.859020 0.632189 0.178462
H82   H     H_    0.918035 0.889036 0.545424 0.236786
O55   O     O_3   0.992173 0.250800 0.370765 -0.577644
C201  C     C_3   0.008551 0.253856 0.277805 0.065665
H83   H     H_    0.052923 0.247309 0.239483 0.173211
H84   H     H_    0.996911 0.305180 0.257717 0.129329
C202  C     C_3   0.981265 0.193726 0.253147 -0.782432
H85   H     H_    0.937079 0.196356 0.296314 0.255314
H86   H     H_    0.989593 0.199050 0.182115 0.197209
H87   H     H_    0.996372 0.141236 0.262794 0.243337
O56   O     O_3   0.037449 0.756393 0.532516 -0.581987
C203  C     C_3   0.079064 0.784133 0.452397 0.087884
H88   H     H_    0.063667 0.797630 0.403708 0.161865
H89   H     H_    0.112956 0.745440 0.420796 0.151727
C204  C     C_3   0.100947 0.851973 0.473467 -0.753167
H90   H     H_    0.116424 0.840259 0.522278 0.257210
H91   H     H_    0.134319 0.873560 0.411104 0.178938
H92   H     H_    0.068592 0.892734 0.502414 0.235727

loop_
_geom_bond_atom_site_label_1
_geom_bond_atom_site_label_2
_ccdc_geom_bond_type
C4    O20   A    
C155  O50   S    
O56   C203  S    
C90   O30   A    
C22   C94   A    
C9    C169  A    
C34   C42   A    
C198  H75   S    
C181  C187  A    
C114  H34   S    
Cu9   O45   S    
O49   C189  S    
C27   C99   A    
C85   C182  S    
C170  C178  A    
Cu1   O17   S    
C68   H20   S    
C42   C109  A    
C24   C96   A    
C126  H46   S    
C118  H38   S    
C101  H21   S    
C30   C38   A    
C203  C204  S    
C151  O54   S    
Cu3   Cu8   S    
C110  H30   S    
C103  H23   S    
Cu1   Cu6   S    
Cu4   O4    S    
C134  O36   A    
C195  H68   S    
C135  O33   A    
C124  H44   S    
C147  C155  A    
C143  C151  A    
C90   C177  S    
C117  H37   S    
Cu11  Cu12  S    
C11   C167  A    
C82   C98   A    
C76   C84   A    
C73   C81   A    
C161  C163  A    
C162  C164  A    
Cu11  O33   S    
C204  H92   S    
C129  H49   S    
Cu6   O22   S    
C84   C100  A    
Cu4   Cu7   S    
C140  O48   A    
C57   C65   A    
C199  H78   S    
C37   C114  A    
C108  H28   S    
C27   C35   A    
C10   C171  A    
O53   C197  S    
C21   C29   A    
C81   C121  A    
C23   C31   A    
Cu4   O12   S    
C86   O5    A    
C5    C70   S    
C146  C154  A    
Cu9   O40   S    
Cu10  O39   S    
C195  C196  S    
C200  H82   S    
C8    O24   A    
C63   C71   A    
C14   H6    S    
C85   O25   A    
C36   C44   A    
C5    O21   A    
C139  O37   A    
C198  H77   S    
C102  H22   S    
C175  C183  A    
C58   C140  S    
C176  C184  A    
C8    C71   S    
Cu5   O29   S    
C3    O16   A    
C48   C96   A    
C193  C194  S    
C18   H10   S    
Cu12  O42   S    
Cu7   O7    S    
C191  C192  S    
Cu8   O32   S    
C199  C200  S    
C112  H32   S    
C56   C134  S    
C148  C162  A    
C183  C188  A    
C65   H17   S    
C197  C198  S    
C108  C116  A    
C21   C93   A    
C78   C94   A    
C9    C165  A    
C188  H4    S    
C20   H12   S    
C201  H83   S    
C153  O52   S    
C49   C97   A    
C21   C42   A    
C22   C41   A    
C92   O3    A    
C51   C107  A    
C194  H65   S    
C24   C43   A    
Cu1   O1    S    
C82   C122  A    
C161  C165  A    
C17   C175  A    
C60   C138  S    
C18   C176  A    
C6    C69   S    
O55   C201  S    
C29   C125  A    
C111  H31   S    
C69   C77   A    
Cu6   O14   S    
C31   C127  A    
C45   C93   A    
C174  C182  A    
C71   C79   A    
C179  C186  A    
C4    O15   A    
C121  H41   S    
C186  H2    S    
C11   C176  A    
C17   C144  A    
C1    C74   S    
C105  C113  A    
C18   C143  A    
C78   C118  A    
C36   C132  A    
C192  H61   S    
C1    O17   A    
C66   C74   A    
C152  O53   S    
C49   C57   A    
C124  C132  A    
C135  O43   A    
C193  H64   S    
C136  O44   A    
C88   O7    A    
C59   C67   A    
C53   C61   A    
C141  C159  A    
C20   C174  A    
C23   C95   A    
C190  H56   S    
C55   C63   A    
C86   C181  S    
C56   C64   A    
C91   O31   A    
C105  H25   S    
C138  O46   A    
C35   C43   A    
Cu10  O46   S    
C45   C53   A    
C196  H71   S    
C171  C179  A    
C61   H13   S    
Cu2   O18   S    
C169  C177  A    
C131  H51   S    
C189  H54   S    
C50   C98   A    
C65   C73   A    
C7    C72   S    
C104  C112  A    
C197  H73   S    
C145  C163  A    
C146  C164  A    
C14   C147  A    
C52   C100  A    
C92   O32   A    
C79   C119  A    
C16   C145  A    
C178  C186  A    
C134  O42   A    
C25   C38   A    
C46   C94   A    
C27   C40   A    
C10   C166  A    
C194  H67   S    
C91   C180  S    
C182  C188  A    
C89   C178  S    
C203  H89   S    
C60   C68   A    
C2    C73   S    
C25   C97   A    
Cu9   O37   S    
C190  H55   S    
C89   O2    A    
Cu7   O23   S    
Cu8   O16   S    
C67   C75   A    
C50   C106  A    
C22   C30   A    
C20   C141  A    
C15   C146  A    
C68   C76   A    
C148  C156  A    
C184  C187  A    
Cu11  O44   S    
C83   C123  A    
C32   C128  A    
C67   H19   S    
C72   C80   A    
C119  H39   S    
C196  H72   S    
C86   O26   A    
Cu9   Cu10  S    
C6    O22   A    
C137  O45   A    
C140  O38   A    
C13   C171  A    
Cu11  O41   S    
Cu6   O30   S    
Cu3   O19   S    
C195  H69   S    
C117  C125  A    
C104  H24   S    
C15   H7    S    
C25   C33   A    
C119  C127  A    
C62   H14   S    
C125  H45   S    
C157  C167  A    
C80   C120  A    
C202  H85   S    
C158  C168  A    
C113  H33   S    
Cu11  O36   S    
C204  H91   S    
Cu12  O35   S    
C19   H11   S    
C164  C165  A    
C17   H9    S    
C199  H79   S    
C40   C115  A    
C101  C109  A    
C187  H3    S    
C177  C185  A    
C57   C139  S    
C103  C111  A    
C185  H1    S    
C4    C75   S    
C138  O40   A    
Cu2   Cu5   S    
C202  H86   S    
C162  C166  A    
C109  H29   S    
C1    O14   A    
C53   C135  S    
Cu5   O5    S    
C153  C155  A    
Cu7   O15   S    
C154  C156  A    
Cu8   O24   S    
C172  C180  A    
C173  C181  A    
C157  C159  A    
C83   C99   A    
C158  C160  A    
C74   C82   A    
C123  H43   S    
C198  H76   S    
C154  O51   S    
C191  H59   S    
C2    O18   A    
C47   C103  A    
C141  C149  A    
C50   C58   A    
C163  C166  A    
C147  C161  A    
C38   C113  A    
C49   C105  A    
C54   C62   A    
C201  C202  S    
O50   C191  S    
Cu4   O28   S    
Cu3   O3    S    
C23   C44   A    
C19   C173  A    
C79   C95   A    
C92   C179  S    
C77   C117  A    
C149  O56   S    
C46   C54   A    
Cu1   O9    S    
C87   O27   A    
C8    O11   A    
C201  H84   S    
C88   O28   A    
Cu3   O27   S    
C45   C101  A    
C120  H40   S    
C19   C142  A    
C5    O10   A    
C13   H5    S    
C156  O49   S    
C102  C110  A    
C127  H47   S    
C35   C131  A    
C202  H87   S    
C33   C129  A    
C191  H58   S    
C123  C131  A    
C121  C129  A    
C87   O8    A    
C120  C128  A    
C26   C37   A    
C10   C170  A    
C89   O29   A    
C28   C39   A    
C33   C41   A    
C142  C150  A    
C149  C151  A    
C66   H18   S    
C55   C133  S    
C75   C83   A    
C192  H60   S    
Cu10  O38   S    
C77   C93   A    
O52   C195  S    
C44   C111  A    
C16   C170  A    
C28   C36   A    
C144  C152  A    
C39   C116  A    
C29   C37   A    
Cu2   O2    S    
C9    C172  A    
Cu4   O20   S    
C63   H15   S    
Cu9   O48   S    
Cu10  O47   S    
C30   C126  A    
C115  H35   S    
C70   C78   A    
C196  H70   S    
C136  O34   A    
C24   C32   A    
C3    O19   A    
C122  H42   S    
O54   C199  S    
C139  O47   A    
C46   C102  A    
C189  C190  S    
C106  C114  A    
C7    O23   A    
C197  H74   S    
C91   O4    A    
C59   C137  S    
Cu5   O21   S    
C48   C104  A    
Cu12  O34   S    
C159  C168  A    
C15   C169  A    
Cu7   O31   S    
C160  C167  A    
Cu8   O8    S    
C12   C174  A    
C58   C66   A    
C133  O35   A    
C106  H26   S    
C133  O41   A    
C85   O6    A    
C80   C96   A    
C52   C60   A    
C145  C153  A    
C28   C100  A    
C32   C40   A    
C52   C108  A    
C62   C70   A    
C116  H36   S    
O51   C193  S    
C26   C34   A    
C143  C157  A    
C130  H50   S    
C51   C99   A    
C11   C173  A    
C128  H48   S    
C14   C172  A    
C87   C184  S    
C88   C183  S    
C194  H66   S    
C2    O13   A    
Cu1   O25   S    
C107  H27   S    
Cu6   O6    S    
Cu3   O11   S    
C193  H63   S    
Cu2   O26   S    
C190  H57   S    
C54   C136  S    
C7    O12   A    
C3    C76   S    
C107  C115  A    
C137  O39   A    
C26   C98   A    
C12   C175  A    
C90   O1    A    
C41   C110  A    
Cu12  O43   S    
C150  C152  A    
C51   C59   A    
C43   C112  A    
C144  C158  A    
C132  H52   S    
C47   C55   A    
C61   C69   A    
C48   C56   A    
C189  H53   S    
C64   H16   S    
C142  C160  A    
C16   H8    S    
C12   C168  A    
C84   C124  A    
C204  H90   S    
Cu5   O13   S    
Cu2   O10   S    
C192  H62   S    
C200  H81   S    
C81   C97   A    
C31   C39   A    
C6    O9    A    
C64   C72   A    
C203  H88   S    
C150  O55   S    
C180  C185  A    
C34   C130  A    
C47   C95   A    
C118  C126  A    
C13   C148  A    
C200  H80   S    
C122  C130  A    
