data_mof_unit_28560.cif
_audit_creation_date              2012-12-10T18:57:11-0500
_audit_creation_method            fapswitch 2.2
_symmetry_space_group_name_H-M    P1
_symmetry_Int_Tables_number       1
_space_group_crystal_system       triclinic
_cell_length_a                    10.593649
_cell_length_b                    9.949274
_cell_length_c                    10.704417
_cell_angle_alpha                 89.861838
_cell_angle_beta                  92.233771
_cell_angle_gamma                 90.547296
_cell_volume                      1127.3249874

loop_
_atom_site_label
_atom_site_type_symbol
_atom_type_description
_atom_site_fract_x
_atom_site_fract_y
_atom_site_fract_z
_atom_type_partial_charge
C1    C     C_R   0.260611 0.499196 0.499609 0.873536
C2    C     C_R   0.739648 0.500095 0.500985 0.869722
C3    C     C_R   0.599839 0.074901 0.548436 -0.044800
C4    C     C_R   0.400454 0.073129 0.450483 -0.048261
C5    C     C_R   0.599365 0.933060 0.554330 0.405006
C6    C     C_R   0.400356 0.931062 0.445471 0.395445
C7    C     C_R   0.493241 0.499335 0.259393 0.952440
C8    C     C_R   0.511774 0.499596 0.739592 0.935769
C9    C     C_R   0.527849 0.616109 0.065246 0.053680
C10   C     C_R   0.542783 0.617145 0.939018 0.125590
C11   C     C_R   0.497062 0.496397 0.125473 -0.301726
C12   C     C_R   0.538181 0.497472 0.872035 -0.276943
C13   C     C_R   0.499635 0.372527 0.059228 0.303897
C14   C     C_R   0.543539 0.374524 0.937915 0.274742
C15   C     C_3   0.475262 0.746873 0.919426 -0.380892
C16   C     C_3   0.456361 0.745541 0.058600 -0.372502
C17   C     C_R   0.060462 0.427028 0.407600 -0.132119
C18   C     C_R   0.930732 0.428509 0.407455 -0.176932
C19   C     C_R   0.872344 0.498918 0.501386 0.002395
C20   C     C_R   0.128423 0.497155 0.500950 0.013100
C21   C     C_R   0.940845 0.563336 0.597867 -0.055368
C22   C     C_R   0.070259 0.564396 0.596582 -0.125230
H1    H     H_    0.539098 0.829306 0.889759 0.278530
H2    H     H_    0.355288 0.732800 0.079791 0.241183
H3    H     H_    0.385243 0.736243 0.863146 0.196464
H4    H     H_    0.507012 0.828679 0.109204 0.252047
H5    H     H_    0.107672 0.374195 0.334569 0.184871
H6    H     H_    0.876048 0.376669 0.334306 0.153574
H7    H     H_    0.894824 0.611130 0.674031 0.193733
H8    H     H_    0.124956 0.615657 0.670095 0.143068
H9    H     H_    0.679645 0.132594 0.585298 0.238091
H10   H     H_    0.320888 0.129492 0.413057 0.229365
N1    N     N_R   0.500000 0.857200 0.500000 -0.212202
N2    N     N_R   0.500000 0.142810 0.500000 -0.149418
O1    O     O_R   0.316770 0.614620 0.499990 -0.544507
O2    O     O_R   0.683230 0.614620 0.500010 -0.544697
O3    O     O_R   0.316800 0.385290 0.500000 -0.632424
O4    O     O_R   0.683200 0.385290 0.500000 -0.626591
O5    O     O_R   0.500000 0.614690 0.316780 -0.585566
O6    O     O_R   0.500000 0.614690 0.683220 -0.599896
O7    O     O_R   0.500020 0.385360 0.316780 -0.562129
O8    O     O_R   0.499980 0.385360 0.683220 -0.559035
Zn1   Zn    Zn3+2 0.500000 0.653120 0.500000 1.085593
Zn2   Zn    Zn3+2 0.500000 0.346880 0.500000 1.061363
S1    S     S_3+6 0.421956 0.223764 0.112114 0.085962
O9    O     O_2   0.513523 0.141110 0.189899 -0.283101
O10   O     O_2   0.311996 0.261082 0.189217 -0.304106
O11   O     O_3   0.365915 0.131069 0.990819 -0.482394
H11   H     H_    0.337934 0.045182 0.028263 0.390189
S2    S     S_3+6 0.624154 0.232927 0.879781 0.104436
O12   O     O_2   0.532894 0.142327 0.808766 -0.220127
O13   O     O_2   0.724969 0.279187 0.793999 -0.306051
O14   O     O_3   0.692416 0.145135 0.998124 -0.461750
H12   H     H_    0.750769 0.209794 0.041321 0.346328
S3    S     S_3+6 0.735378 0.867140 0.632578 0.039469
O15   O     O_2   0.705215 0.748134 0.712220 -0.330892
O16   O     O_2   0.828802 0.830611 0.536501 -0.292330
O17   O     O_3   0.802749 0.984895 0.726780 -0.497536
H13   H     H_    0.881634 0.943655 0.760770 0.390534
S4    S     S_3+6 0.262157 0.862729 0.369659 0.042007
O18   O     O_2   0.287595 0.739981 0.294555 -0.318985
O19   O     O_2   0.167662 0.830323 0.466695 -0.278324
O20   O     O_3   0.198085 0.977909 0.271408 -0.548713
H14   H     H_    0.117887 0.936685 0.239033 0.393414

loop_
_geom_bond_atom_site_label_1
_geom_bond_atom_site_label_2
_ccdc_geom_bond_type
C8    O8    A    
S2    O13   D    
S3    O15   D    
O4    Zn2   S    
C13   C14   A    
C13   S1    S    
O1    Zn1   S    
C9    C10   A    
C2    O4    A    
C6    N1    A    
C1    O3    A    
C8    C12   S    
C3    C5    A    
O3    Zn2   S    
S3    O16   D    
C17   C18   A    
O2    Zn1   S    
N2    Zn2   S    
C16   H2    S    
C14   S2    S    
C21   C22   A    
C3    H9    S    
C9    C11   A    
C4    H10   S    
O8    Zn2   S    
S4    O20   S    
C10   C12   A    
C15   H1    S    
O11   H11   S    
C19   C21   A    
C9    C16   S    
C12   C14   A    
C7    C11   S    
C10   C15   S    
C7    O7    A    
C16   H4    S    
O7    Zn2   S    
C4    N2    A    
S3    O17   S    
S2    O14   S    
C15   H3    S    
O14   H12   S    
O20   H14   S    
C17   H5    S    
C6    S4    S    
C11   C13   A    
C17   C20   A    
C18   H6    S    
C1    O1    A    
S4    O19   D    
C4    C6    A    
S1    O10   D    
C2    O2    A    
C8    O6    A    
C7    O5    A    
C18   C19   A    
C1    C20   S    
O5    Zn1   S    
C22   H8    S    
C3    N2    A    
S2    O12   D    
O17   H13   S    
S1    O9    D    
N1    Zn1   S    
C21   H7    S    
C5    S3    S    
O6    Zn1   S    
C15   C16   S    
C2    C19   S    
C20   C22   A    
S4    O18   D    
S1    O11   S    
C5    N1    A    
