data_mof_unit_6220.cif
_audit_creation_date              2012-12-10T17:15:11-0500
_audit_creation_method            fapswitch 2.2
_symmetry_space_group_name_H-M    P1
_symmetry_Int_Tables_number       1
_space_group_crystal_system       triclinic
_cell_length_a                    15.863924
_cell_length_b                    13.053378
_cell_length_c                    11.667902
_cell_angle_alpha                 99.691872
_cell_angle_beta                  93.612583
_cell_angle_gamma                 91.083084
_cell_volume                      2375.87617181

loop_
_atom_site_label
_atom_site_type_symbol
_atom_type_description
_atom_site_fract_x
_atom_site_fract_y
_atom_site_fract_z
_atom_type_partial_charge
C1    C     C_R   0.500163 0.299717 0.479084 0.822650
C2    C     C_R   0.499821 0.700282 0.520915 0.822641
C3    C     C_R   0.420734 0.027439 0.382257 0.414251
C4    C     C_R   0.579218 0.972561 0.617760 0.414254
C5    C     C_R   0.437011 0.133170 0.387368 -0.287074
C6    C     C_R   0.562942 0.866832 0.612644 -0.287075
C7    C     C_R   0.544650 0.136205 0.546081 -0.084477
C8    C     C_R   0.455321 0.863788 0.453914 -0.084463
C9    C     C_R   0.531543 0.027563 0.541565 0.006619
C10   C     C_R   0.468420 0.972433 0.458438 0.006615
C11   C     C_R   0.418209 0.404299 0.021962 -0.426417
C12   C     C_R   0.581791 0.595700 0.978038 -0.426470
C13   C     C_R   0.426028 0.412626 0.144840 0.641181
C14   C     C_R   0.573970 0.587375 0.855160 0.641169
C15   C     C_R   0.535759 0.541057 0.156625 -0.048298
C16   C     C_R   0.464243 0.458941 0.843375 -0.048328
C17   C     C_R   0.529777 0.534602 0.034002 0.013957
C18   C     C_R   0.470227 0.465394 0.965997 0.013989
C19   C     C_R   0.339893 0.499998 0.500374 0.831529
C20   C     C_R   0.660109 0.500020 0.499629 0.831534
C21   C     C_3   0.967576 0.403066 0.457268 -0.334360
C22   C     C_3   0.032437 0.597107 0.542711 -0.334278
C23   C     C_3   0.019646 0.471608 0.388730 -0.064989
C24   C     C_3   0.980367 0.528564 0.611251 -0.064972
C25   C     C_1   0.250516 0.500387 0.500884 -0.173061
C26   C     C_1   0.749491 0.499699 0.499129 -0.172937
C27   C     C_3   0.031785 0.434146 0.563349 0.441888
C28   C     C_3   0.968229 0.566031 0.436640 0.441827
C29   C     C_3   0.083504 0.500823 0.495494 0.047427
C30   C     C_3   0.916509 0.499350 0.504490 0.047384
C31   C     C_1   0.175055 0.500651 0.499139 -0.011548
C32   C     C_1   0.824955 0.499492 0.500869 -0.011384
C33   C     C_R   0.503693 0.812832 0.531260 -0.158795
C34   C     C_R   0.496275 0.187166 0.468740 -0.158780
Cu1   Cu    Cu3+1 0.506200 0.507730 0.615930 0.988951
Cu2   Cu    Cu3+1 0.493800 0.492270 0.384070 0.988936
H1    H     H_    0.941387 0.323230 0.424899 0.161341
H2    H     H_    0.058629 0.676942 0.575073 0.161242
H3    H     H_    0.600247 0.824733 0.669412 0.179075
H4    H     H_    0.399699 0.175275 0.330609 0.179045
H5    H     H_    0.418747 0.405422 0.790245 0.145678
H6    H     H_    0.581253 0.594577 0.209754 0.145667
H7    H     H_    0.371895 0.350502 0.970689 0.138722
H8    H     H_    0.628103 0.649500 0.029311 0.138748
N1    N     N_R   0.515540 0.519350 0.790140 -0.188759
N2    N     N_R   0.484460 0.480650 0.209860 -0.188733
O1    O     O_R   0.504400 0.354460 0.582000 -0.599695
O2    O     O_R   0.495600 0.645540 0.418000 -0.599660
O3    O     O_R   0.493920 0.341410 0.386200 -0.540131
O4    O     O_R   0.506080 0.658590 0.613800 -0.540145
O5    O     O_R   0.384320 0.506520 0.597880 -0.592101
O6    O     O_R   0.615680 0.493480 0.402120 -0.592139
O7    O     O_R   0.373840 0.493460 0.402080 -0.530455
O8    O     O_R   0.626160 0.506540 0.597920 -0.530404
C35   C     C_R   0.032590 0.441526 0.260519 0.127003
C36   C     C_R   0.962120 0.410027 0.182540 -0.122463
C37   C     C_R   0.971943 0.381314 0.063266 -0.138309
C38   C     C_R   0.052101 0.384510 0.020632 -0.085580
C39   C     C_R   0.122458 0.416775 0.097198 -0.153855
C40   C     C_R   0.112910 0.445268 0.216614 -0.160144
H9    H     H_    0.899511 0.407567 0.214232 0.141365
H10   H     H_    0.917326 0.357232 0.003783 0.131360
H11   H     H_    0.059570 0.362928 0.928181 0.145806
H12   H     H_    0.184488 0.420038 0.063984 0.132994
H13   H     H_    0.168319 0.470730 0.273184 0.148031
C41   C     C_R   0.967399 0.558717 0.739445 0.127354
C42   C     C_R   0.037775 0.591068 0.817346 -0.122350
C43   C     C_R   0.027899 0.620003 0.936577 -0.138322
C44   C     C_R   0.947785 0.616183 0.979246 -0.085654
C45   C     C_R   0.877536 0.582979 0.902773 -0.153973
C46   C     C_R   0.887135 0.554252 0.783400 -0.160172
H14   H     H_    0.100348 0.594070 0.785619 0.140968
H15   H     H_    0.082442 0.644784 0.995997 0.131377
H16   H     H_    0.940280 0.637957 0.071662 0.145731
H17   H     H_    0.815556 0.579157 0.936032 0.132933
H18   H     H_    0.831824 0.528011 0.726898 0.147657
O9    O     O_3   0.932865 0.635876 0.369895 -0.725440
H19   H     H_    0.981266 0.666747 0.336513 0.311531
O10   O     O_3   0.067144 0.364311 0.630110 -0.725328
H20   H     H_    0.018743 0.333457 0.663508 0.311462
C47   C     C_R   0.391871 0.800918 0.370012 0.226597
C48   C     C_R   0.410990 0.766610 0.253986 -0.027233
C49   C     C_R   0.353046 0.703124 0.176960 -0.131101
C50   C     C_R   0.275921 0.673453 0.215096 -0.103140
C51   C     C_R   0.256582 0.707114 0.330374 -0.131648
C52   C     C_R   0.314463 0.770293 0.407912 -0.129865
H21   H     H_    0.470979 0.788225 0.223978 0.109006
H22   H     H_    0.368125 0.676474 0.087868 0.130455
H23   H     H_    0.231214 0.624276 0.155350 0.119033
H24   H     H_    0.196927 0.683744 0.359801 0.122759
H25   H     H_    0.299351 0.794861 0.497419 0.114080
C53   C     C_R   0.608127 0.199061 0.629950 0.226506
C54   C     C_R   0.685567 0.229559 0.592026 -0.129792
C55   C     C_R   0.743503 0.292678 0.669547 -0.131727
C56   C     C_R   0.724189 0.326395 0.784834 -0.103128
C57   C     C_R   0.647022 0.296869 0.822986 -0.130927
C58   C     C_R   0.589023 0.233442 0.745975 -0.027144
H26   H     H_    0.700667 0.204926 0.502519 0.114124
H27   H     H_    0.803187 0.315946 0.640103 0.122614
H28   H     H_    0.768947 0.375503 0.844578 0.118679
H29   H     H_    0.631959 0.323572 0.912080 0.130392
H30   H     H_    0.529007 0.211926 0.775996 0.108986
O11   O     O_3   0.356724 0.978516 0.305284 -0.740319
H31   H     H_    0.330698 0.028360 0.259142 0.324732
O12   O     O_3   0.643209 0.021490 0.694770 -0.740282
H32   H     H_    0.669228 0.971643 0.740915 0.324753
O13   O     O_3   0.624655 0.647134 0.798933 -0.717331
H33   H     H_    0.663744 0.691348 0.857383 0.289043
O14   O     O_3   0.375339 0.352873 0.201068 -0.717436
H34   H     H_    0.336239 0.308672 0.142622 0.288941

loop_
_geom_bond_atom_site_label_1
_geom_bond_atom_site_label_2
_ccdc_geom_bond_type
C25   C31   T    
C35   C36   A    
C11   C18   A    
C26   C32   T    
C54   C55   A    
C22   C29   S    
C27   C29   S    
C56   C57   A    
C24   C27   S    
Cu1   O1    S    
C47   C48   A    
C37   H10   S    
O9    H19   S    
C39   H12   S    
C23   C29   S    
C27   O10   S    
C52   H25   S    
C46   H18   S    
C48   H21   S    
C22   H2    S    
C36   C37   A    
C7    C9    A    
C42   H14   S    
C13   O14   S    
Cu2   O7    S    
C2    O4    A    
C49   C50   A    
C43   C44   A    
C12   C17   A    
C53   C58   A    
O13   H33   S    
Cu2   N2    S    
C45   C46   A    
C9    C10   A    
C58   H30   S    
Cu2   O6    S    
C24   C41   S    
C19   O7    A    
C41   C42   A    
C21   C27   S    
C39   C40   A    
C22   C28   S    
C57   H29   S    
C57   C58   A    
Cu1   O8    S    
C55   C56   A    
C1    C34   S    
C14   N1    A    
C42   C43   A    
Cu2   O2    S    
C50   C51   A    
C4    C6    A    
C56   H28   S    
C1    O1    A    
C2    O2    A    
C38   C39   A    
C51   C52   A    
C8    C47   S    
Cu1   Cu2   S    
C41   C46   A    
C29   C31   S    
C5    C34   A    
Cu1   O4    S    
C17   C18   A    
C44   H16   S    
C16   C18   A    
C23   C28   S    
C11   H7    S    
C28   O9    S    
C2    C33   S    
C20   O8    A    
C14   O13   S    
C12   C14   A    
C40   H13   S    
C21   C23   S    
Cu1   O5    S    
C7    C34   A    
C22   C24   S    
C50   H23   S    
Cu1   N1    S    
O11   H31   S    
C21   C30   S    
C4    O12   S    
C3    O11   S    
C38   H11   S    
C15   C17   A    
C6    H3    S    
C47   C52   A    
C15   H6    S    
C3    C5    A    
C16   N1    A    
C51   H24   S    
C23   C35   S    
O12   H32   S    
C6    C33   A    
C28   C30   S    
C43   H15   S    
C20   O6    A    
C3    C10   A    
O14   H34   S    
C30   C32   S    
C11   C13   A    
C37   C38   A    
C13   N2    A    
C20   C26   S    
C55   H27   S    
C7    C53   S    
C54   H26   S    
C53   C54   A    
C49   H22   S    
C8    C33   A    
C44   C45   A    
C19   C25   S    
C24   C30   S    
O10   H20   S    
C19   O5    A    
C21   H1    S    
C8    C10   A    
C48   C49   A    
C5    H4    S    
C45   H17   S    
C36   H9    S    
C12   H8    S    
C15   N2    A    
C4    C9    A    
C35   C40   A    
C1    O3    A    
C16   H5    S    
Cu2   O3    S    
