data_mof_unit_11702.cif
_audit_creation_date              2012-12-11T16:31:31-0500
_audit_creation_method            fapswitch 2.2
_symmetry_space_group_name_H-M    P1
_symmetry_Int_Tables_number       1
_space_group_crystal_system       triclinic
_cell_length_a                    6.955646
_cell_length_b                    18.484219
_cell_length_c                    20.026794
_cell_angle_alpha                 68.41065
_cell_angle_beta                  90.31253
_cell_angle_gamma                 90.653492
_cell_volume                      2394.0425895

loop_
_atom_site_label
_atom_site_type_symbol
_atom_type_description
_atom_site_fract_x
_atom_site_fract_y
_atom_site_fract_z
_atom_type_partial_charge
O1    O     O_R   0.488990 0.443920 0.942160 -0.508477
O2    O     O_R   0.823840 0.406530 0.087600 -0.544505
O3    O     O_R   0.999650 0.556080 0.057840 -0.543934
C1    C     C_R   0.654635 0.383254 0.115020 0.667350
O4    O     O_R   0.818390 0.434590 0.944530 -0.525069
O5    O     O_R   0.994160 0.584350 0.913750 -0.530162
C2    C     C_R   0.648886 0.420144 0.924371 0.758340
O6    O     O_R   0.494480 0.415650 0.086250 -0.539264
O7    O     O_3   0.662600 0.549100 0.990070 -0.377125
V1    V     V_3+5 0.935320 0.490890 0.001840 1.546579
O8    O     O_R   0.324240 0.593470 0.912400 -0.529976
C3    C     C_R   0.155730 0.615718 0.884478 0.791849
O9    O     O_R   0.329690 0.565410 0.055470 -0.537042
C4    C     C_R   0.161774 0.580311 0.075352 0.690582
V2    V     V_3+5 0.435990 0.509110 0.998160 1.546403
O10   O     O_3   0.158840 0.450900 0.009930 -0.353509
C5    C     C_3   0.975681 0.693380 0.253518 -0.230737
C6    C     C_3   0.340618 0.704017 0.250076 0.248280
C7    C     C_3   0.335136 0.758516 0.295277 0.222444
H1    H     H_    0.985442 0.699899 0.360435 0.256180
H2    H     H_    0.976969 0.631111 0.286868 0.280446
H3    H     H_    0.463367 0.724434 0.212043 0.035160
H4    H     H_    0.449233 0.803792 0.273542 0.078364
C8    C     C_1   0.113184 0.883983 0.371199 -0.007281
C9    C     C_3   0.152763 0.715146 0.203034 -0.057081
C10   C     C_3   0.972936 0.740338 0.303539 -0.263067
C11   C     C_3   0.138456 0.801241 0.284962 -0.001102
C12   C     C_3   0.119522 0.853344 0.204364 -0.415942
C13   C     C_3   0.138721 0.803911 0.156063 0.209728
C14   C     C_1   0.124047 0.848344 0.331173 0.098480
C15   C     C_1   0.154791 0.667545 0.156393 0.145591
C16   C     C_1   0.156257 0.628102 0.119171 -0.073850
H5    H     H_    0.272285 0.822395 0.123590 0.123685
H6    H     H_    0.978671 0.883458 0.195253 0.232359
H7    H     H_    0.840534 0.703642 0.221601 0.205891
H8    H     H_    0.831873 0.769857 0.298108 0.181815
H9    H     H_    0.232760 0.899563 0.189379 0.158858
H10   H     H_    0.326712 0.538798 0.675789 0.194466
C17   C     C_R   0.079026 0.769606 0.878993 -0.139817
C18   C     C_R   0.042179 0.843542 0.878926 -0.084144
C19   C     C_R   0.030462 0.906694 0.814482 -0.102452
C20   C     C_R   0.054979 0.896303 0.749637 -0.154061
C21   C     C_R   0.091605 0.821737 0.747863 0.060515
C22   C     C_R   0.104660 0.757043 0.813904 0.055528
C23   C     C_R   0.113828 0.811382 0.681665 -0.134654
C24   C     C_R   0.146781 0.735198 0.681647 -0.044894
C25   C     C_R   0.175630 0.670771 0.748116 -0.042747
C26   C     C_R   0.146502 0.681836 0.814383 -0.150419
C27   C     C_R   0.148686 0.719991 0.616945 0.334200
C28   C     C_R   0.227576 0.652095 0.615337 -0.082135
C29   C     C_R   0.273405 0.592386 0.678457 -0.112856
C30   C     C_R   0.229862 0.597537 0.744308 0.346902
H11   H     H_    0.088318 0.722681 0.930766 0.090001
H12   H     H_    0.023355 0.851891 0.929214 0.183196
H13   H     H_    0.002160 0.964102 0.814674 0.164696
H14   H     H_    0.044102 0.947472 0.701054 0.108881
H15   H     H_    0.237140 0.642480 0.565253 0.227463
C31   C     C_R   0.516122 0.234718 0.117180 -0.204170
C32   C     C_R   0.457903 0.163923 0.114162 0.399864
C33   C     C_R   0.464814 0.096976 0.175351 -0.154752
C34   C     C_R   0.525332 0.099699 0.241024 0.268751
C35   C     C_R   0.573782 0.172738 0.247083 -0.007982
C36   C     C_R   0.576135 0.240836 0.182491 -0.028628
C37   C     C_R   0.622504 0.180547 0.313706 -0.113568
C38   C     C_R   0.686176 0.253488 0.314159 -0.000555
C39   C     C_R   0.701660 0.319041 0.248910 0.013233
C40   C     C_R   0.643260 0.313418 0.183167 -0.079111
C41   C     C_R   0.735852 0.262393 0.379467 -0.278762
C42   C     C_R   0.807335 0.332537 0.380357 0.398944
C43   C     C_R   0.828790 0.395806 0.315952 0.437822
C44   C     C_R   0.773709 0.389780 0.251225 -0.256028
H16   H     H_    0.514680 0.284664 0.067395 0.136880
H17   H     H_    0.426583 0.041672 0.171434 0.181359
H18   H     H_    0.721236 0.215083 0.430784 0.143273
H19   H     H_    0.789397 0.441115 0.202948 0.157554
O11   O     O_R   0.770890 0.084490 0.414040 -0.540762
O12   O     O_R   0.445980 0.065450 0.555510 -0.543342
O13   O     O_R   0.270670 0.915620 0.586180 -0.545056
C45   C     C_R   0.615112 0.079413 0.576209 0.684001
O14   O     O_R   0.441480 0.093500 0.412450 -0.535373
O15   O     O_R   0.266140 0.943870 0.442100 -0.511643
C46   C     C_R   0.610105 0.113897 0.383428 0.790224
O16   O     O_R   0.775410 0.056240 0.558120 -0.544243
O17   O     O_3   0.602660 0.950990 0.510100 -0.342076
V3    V     V_3+5 0.329740 0.009100 0.498130 1.548023
O18   O     O_R   0.936120 0.934420 0.444240 -0.502910
C47   C     C_R   0.103999 0.925687 0.419756 0.821454
O19   O     O_R   0.940610 0.906370 0.587310 -0.523941
C48   C     C_R   0.109032 0.881293 0.613402 0.754024
V4    V     V_3+5 0.829110 0.990690 0.501470 1.591433
O20   O     O_3   0.106080 0.049010 0.489880 -0.386520
C49   C     C_3   0.834390 0.247883 0.705948 0.179323
C50   C     C_3   0.481355 0.273756 0.682499 -0.329838
C51   C     C_3   0.466750 0.316116 0.736616 -0.266948
H20   H     H_    0.875076 0.280585 0.649049 0.199549
H21   H     H_    0.339116 0.249343 0.676542 0.232411
H22   H     H_    0.519531 0.316130 0.628315 0.225443
H23   H     H_    0.468202 0.379982 0.707059 0.225474
H24   H     H_    0.327650 0.300444 0.765860 0.183931
C52   C     C_1   0.638497 0.374420 0.878990 -0.031482
C53   C     C_3   0.633869 0.208499 0.707767 0.098213
C54   C     C_3   0.828411 0.303952 0.748882 0.228978
C55   C     C_3   0.634618 0.292306 0.791371 0.049893
C56   C     C_3   0.608159 0.204050 0.836357 -0.358366
C57   C     C_3   0.585735 0.156556 0.786726 -0.289043
C58   C     C_1   0.633900 0.337136 0.840032 0.059818
C59   C     C_1   0.629688 0.162286 0.660470 0.050224
C60   C     C_1   0.624547 0.124718 0.621852 -0.107310
H25   H     H_    0.679623 0.104630 0.806280 0.203575
H26   H     H_    0.435448 0.134294 0.789860 0.207688
H27   H     H_    0.734329 0.182545 0.872375 0.203134
H28   H     H_    0.947980 0.289485 0.788624 0.109664
H29   H     H_    0.478788 0.194274 0.871145 0.226559
Cl1   Cl    Cl    0.006485 0.769842 0.542202 -0.616080
Cl2   Cl    Cl    0.230620 0.506630 0.815720 -0.654287
Cl3   Cl    Cl    0.927024 0.483370 0.314644 -0.494365
Cl4   Cl    Cl    0.383736 0.158616 0.032151 -0.649477
Cl5   Cl    Cl    0.553465 0.007225 0.309368 -0.689937
Cl6   Cl    Cl    0.870064 0.339163 0.463261 -0.514949
S1    S     S_3+6 0.870485 0.404136 0.689301 0.035990
O21   O     O_2   0.760314 0.423099 0.620302 -0.269198
O22   O     O_2   0.813447 0.460280 0.724000 -0.320602
O23   O     O_3   0.104877 0.416555 0.669524 -0.473357
H30   H     H_    0.162715 0.422262 0.712539 0.342558
Cl7   Cl    Cl    0.016883 0.175770 0.741683 -0.748635
S2    S     S_3+6 0.396467 0.603223 0.303211 0.104428
O24   O     O_2   0.390000 0.553963 0.257982 -0.320369
O25   O     O_2   0.596277 0.600210 0.332936 -0.267420
O26   O     O_3   0.242165 0.566363 0.372132 -0.422110
H31   H     H_    0.293645 0.514498 0.401221 0.423485
Cl8   Cl    Cl    0.395763 0.712808 0.389207 -0.481994
Cl9   Cl    Cl    0.943735 0.824728 0.092735 -0.669919

loop_
_geom_bond_atom_site_label_1
_geom_bond_atom_site_label_2
_ccdc_geom_bond_type
C53   C59   S    
C45   O16   A    
C57   H26   S    
C9    C15   S    
C50   C51   S    
C19   C20   A    
C54   H28   S    
C3    C26   S    
C1    O6    A    
C49   Cl7   S    
V3    O20   S    
O23   H30   S    
C23   C24   A    
C24   C27   A    
C10   C11   S    
O14   V3    S    
C5    C10   S    
C51   H24   S    
C12   C13   S    
C42   C43   A    
O5    C3    A    
C13   Cl9   S    
C51   H23   S    
C41   H18   S    
V2    O10   S    
C13   H5    S    
C33   H17   S    
C9    C13   S    
C6    C7    S    
C19   H13   S    
C35   C37   A    
C20   H14   S    
O8    V2    S    
C15   C16   T    
C41   C42   A    
C59   C60   T    
C43   C44   A    
O1    V2    S    
C23   C48   S    
O7    V1    S    
S1    O23   S    
C49   C54   S    
C27   Cl1   S    
O12   V3    S    
C32   C33   A    
C32   Cl4   S    
C6    H3    S    
O9    C4    A    
C11   C14   S    
C7    Cl8   S    
C34   C35   A    
C6    C9    S    
O17   V4    S    
C56   C57   S    
S1    O22   D    
O12   C45   A    
O13   C48   A    
C53   C57   S    
C36   C40   A    
C2    C52   S    
C29   C30   A    
C25   C26   A    
O17   V3    S    
O14   C46   A    
O18   V4    S    
O11   C46   A    
C17   C18   A    
O4    C2    A    
O18   C47   A    
H10   C29   S    
S2    O26   S    
C43   Cl3   S    
C31   C32   A    
C42   Cl6   S    
C49   H20   S    
C5    H2    S    
C33   C34   A    
C25   C30   A    
C7    H4    S    
C21   C22   A    
C35   C36   A    
C56   H27   S    
C39   C44   A    
C38   C41   A    
C28   C29   A    
C21   C23   A    
C37   C46   S    
O15   C47   A    
O3    C4    A    
C49   C53   S    
O13   V3    S    
C10   H8    S    
C18   C19   A    
O19   V4    S    
C51   C55   S    
C38   C39   A    
O6    V2    S    
C18   H12   S    
O9    V2    S    
C20   C21   A    
C50   C53   S    
O2    V1    S    
C50   H22   S    
C55   C56   S    
C54   S1    S    
S1    O21   D    
O26   H31   S    
C30   Cl2   S    
C31   C36   A    
O16   V4    S    
C57   H25   S    
C24   C25   A    
S2    O25   D    
C34   Cl5   S    
O1    C2    A    
C28   H15   S    
C4    C16   S    
O5    V1    S    
C1    C40   S    
O8    C3    A    
C17   C22   A    
C50   H21   S    
C52   C58   T    
C5    C9    S    
C37   C38   A    
O7    V2    S    
O4    V1    S    
O3    V1    S    
V1    O10   S    
C6    S2    S    
C44   H19   S    
C31   H16   S    
V4    O20   S    
C17   H11   S    
H1    C10   S    
C12   H9    S    
S2    O24   D    
O2    C1    A    
C45   C60   S    
C39   C40   A    
C55   C58   S    
C54   C55   S    
C8    C47   S    
C8    C14   T    
C12   H6    S    
C56   H29   S    
O19   C48   A    
C27   C28   A    
C11   C12   S    
C5    H7    S    
O15   V3    S    
C22   C26   A    
O11   V4    S    
C7    C11   S    
