data_mof_unit_13276.cif
_audit_creation_date              2012-12-10T17:52:04-0500
_audit_creation_method            fapswitch 2.2
_symmetry_space_group_name_H-M    P1
_symmetry_Int_Tables_number       1
_space_group_crystal_system       triclinic
_cell_length_a                    14.683266
_cell_length_b                    14.79687
_cell_length_c                    19.335145
_cell_angle_alpha                 76.655889
_cell_angle_beta                  103.336539
_cell_angle_gamma                 114.957182
_cell_volume                      3663.24164688

loop_
_atom_site_label
_atom_site_type_symbol
_atom_type_description
_atom_site_fract_x
_atom_site_fract_y
_atom_site_fract_z
_atom_type_partial_charge
C1    C     C_R   0.879867 0.312416 0.510876 0.828431
C2    C     C_R   0.119962 0.687553 0.487558 0.808324
C3    C     C_R   0.811099 0.205206 0.519533 -0.093684
C4    C     C_R   0.187804 0.794460 0.486347 -0.091772
C5    C     C_R   0.785046 0.029627 0.560275 -0.188335
C6    C     C_R   0.217518 0.962138 0.504136 -0.195511
C7    C     C_R   0.850081 0.130873 0.550815 -0.242170
C8    C     C_R   0.151310 0.863359 0.496527 -0.233165
C9    C     C_R   0.705339 0.177033 0.498074 0.171594
C10   C     C_R   0.291742 0.826706 0.481650 0.189469
C11   C     C_R   0.638930 0.077186 0.519977 0.043335
C12   C     C_R   0.360836 0.920421 0.501949 0.051086
C13   C     C_R   0.679721 0.002112 0.544681 0.122282
C14   C     C_R   0.322158 0.991039 0.507587 0.113521
C15   C     C_R   0.533169 0.049044 0.516502 0.057816
C16   C     C_R   0.467419 0.946605 0.516085 0.079081
C17   C     C_R   0.510015 0.872970 0.537342 -0.172710
C18   C     C_R   0.492564 0.118338 0.520701 -0.203776
C19   C     C_R   0.614644 0.900575 0.553716 -0.215690
C20   C     C_R   0.388689 0.089121 0.517754 -0.209171
C21   C     C_R   0.714113 0.666630 0.379963 -0.286770
C22   C     C_R   0.286905 0.335495 0.622398 -0.295450
C23   C     C_R   0.999901 0.499650 0.632625 0.806054
C24   C     C_R   0.000274 0.500629 0.367367 0.805780
C25   C     C_R   0.796296 0.637852 0.399290 0.063232
C26   C     C_R   0.205815 0.366030 0.603457 0.077955
C27   C     C_R   0.714597 0.508936 0.489452 0.015637
C28   C     C_R   0.282469 0.485435 0.507535 0.013670
C29   C     C_R   0.627041 0.533100 0.471701 -0.054497
C30   C     C_R   0.369941 0.461107 0.525848 -0.039337
C31   C     C_R   0.628854 0.615030 0.415860 0.125676
C32   C     C_R   0.369366 0.381509 0.583400 0.090338
C33   C     C_R   0.539671 0.480629 0.508099 0.025271
C34   C     C_R   0.456658 0.512524 0.489041 0.036858
C35   C     C_R   0.463557 0.596036 0.434593 -0.287233
C36   C     C_R   0.532777 0.397205 0.562731 -0.262102
C37   C     C_R   0.546807 0.645776 0.397724 0.256158
C38   C     C_R   0.450474 0.348920 0.601344 0.256037
C39   C     C_R   0.076731 0.479699 0.761284 -0.201220
C40   C     C_R   0.923177 0.520112 0.238798 -0.201812
C41   C     C_R   0.078433 0.478256 0.833927 0.282632
C42   C     C_R   0.921864 0.522345 0.166103 0.281068
C43   C     C_R   0.002659 0.496396 0.855153 -0.003002
C44   C     C_R   0.998743 0.506151 0.144685 -0.001952
C45   C     C_R   0.925422 0.513717 0.802787 -0.191709
C46   C     C_R   0.076796 0.490251 0.196955 -0.191859
C47   C     C_R   0.924340 0.515109 0.730323 -0.188998
C48   C     C_R   0.077528 0.488174 0.269476 -0.189908
C49   C     C_R   0.000285 0.498541 0.708953 -0.085667
C50   C     C_R   0.000344 0.502509 0.291009 -0.087092
C51   C     C_R   0.999453 0.504824 0.069034 0.433118
C52   C     C_R   0.002036 0.497903 0.930757 0.433171
Cu1   Cu    Cu3+1 0.081740 0.475680 0.518680 0.939733
Cu2   Cu    Cu3+1 0.918260 0.524320 0.481320 0.944510
H1    H     H_    0.135267 0.465273 0.745974 0.181745
H2    H     H_    0.863705 0.532894 0.254250 0.181774
H3    H     H_    0.272749 0.538817 0.461379 0.119902
H4    H     H_    0.721842 0.450580 0.532488 0.117783
H5    H     H_    0.142598 0.330040 0.633459 0.129656
H6    H     H_    0.861739 0.677847 0.371649 0.134203
H7    H     H_    0.718235 0.729650 0.337385 0.183484
H8    H     H_    0.284379 0.276181 0.667682 0.165879
H9    H     H_    0.405056 0.625449 0.418934 0.136417
H10   H     H_    0.590266 0.366791 0.575672 0.134495
H11   H     H_    0.866407 0.527649 0.817884 0.170740
H12   H     H_    0.136710 0.477880 0.181756 0.169639
H13   H     H_    0.864104 0.529199 0.691141 0.159769
H14   H     H_    0.138447 0.475289 0.308575 0.159379
H15   H     H_    0.644670 0.842214 0.572670 0.149903
H16   H     H_    0.360364 0.143608 0.523097 0.145610
H17   H     H_    0.071581 0.840725 0.499076 0.170006
H18   H     H_    0.931103 0.150737 0.566437 0.168206
H19   H     H_    0.817006 0.972994 0.581371 0.146352
H20   H     H_    0.187373 0.014844 0.510161 0.143843
H21   H     H_    0.463403 0.793574 0.547520 0.156718
H22   H     H_    0.540964 0.193341 0.532085 0.140831
N1    N     N_R   0.912768 0.460417 0.956726 -0.218599
N2    N     N_R   0.088733 0.542307 0.043058 -0.221211
N3    N     N_R   0.911595 0.463283 0.024739 -0.165900
N4    N     N_R   0.089916 0.539416 0.975044 -0.167413
N5    N     N_R   0.795420 0.560800 0.453240 -0.176107
N6    N     N_R   0.204580 0.439200 0.546760 -0.178331
O1    O     O_R   0.977910 0.338110 0.524620 -0.591717
O2    O     O_R   0.022090 0.661890 0.475380 -0.589268
O3    O     O_R   0.839850 0.379180 0.493080 -0.571206
O4    O     O_R   0.160150 0.620820 0.506920 -0.584819
O5    O     O_R   0.069040 0.479450 0.615630 -0.585413
O6    O     O_R   0.930960 0.520550 0.384370 -0.580787
O7    O     O_R   0.930990 0.520520 0.584090 -0.587607
O8    O     O_R   0.069010 0.479480 0.415910 -0.586486
N7    N     N_2   0.548226 0.729148 0.342986 -0.445430
H23   H     H_    0.519213 0.774993 0.355376 0.263692
C53   C     C_3   0.504559 0.701660 0.272010 -0.667303
H24   H     H_    0.513757 0.770918 0.231998 0.239887
H25   H     H_    0.422158 0.653557 0.270087 0.223674
H26   H     H_    0.543690 0.660408 0.257308 0.246076
N8    N     N_2   0.445972 0.264644 0.656710 -0.435914
H27   H     H_    0.385642 0.197960 0.647151 0.244415
C54   C     C_3   0.538812 0.253705 0.694922 -0.647994
H28   H     H_    0.522379 0.198914 0.744958 0.241850
H29   H     H_    0.596327 0.326994 0.710098 0.238390
H30   H     H_    0.569231 0.224379 0.661462 0.209047
Br1   Br    Br    0.182284 0.444419 0.901082 -0.462998
Br2   Br    Br    0.816786 0.554492 0.099240 -0.467623
N9    N     N_2   0.325120 0.773971 0.446412 -0.448755
H31   H     H_    0.323545 0.705092 0.473654 0.256487
C55   C     C_3   0.288193 0.775238 0.370193 -0.668973
H32   H     H_    0.327425 0.742669 0.346538 0.216763
H33   H     H_    0.304264 0.853967 0.342757 0.245197
H34   H     H_    0.205207 0.729715 0.360722 0.215288
N10   N     N_2   0.669622 0.243964 0.444485 -0.421780
H35   H     H_    0.646905 0.291489 0.461045 0.251575
C56   C     C_3   0.619477 0.210885 0.375743 -0.617306
H36   H     H_    0.617978 0.277035 0.335070 0.232063
H37   H     H_    0.540088 0.156523 0.379215 0.227763
H38   H     H_    0.661431 0.175280 0.357771 0.233193

loop_
_geom_bond_atom_site_label_1
_geom_bond_atom_site_label_2
_ccdc_geom_bond_type
C9    N10   S    
C15   C18   A    
Cu2   O6    S    
C53   H24   S    
C27   C29   A    
C41   C43   A    
C2    O2    A    
N10   H35   S    
C4    C8    A    
Cu2   O2    S    
N8    H27   S    
C39   C41   A    
C28   H3    S    
C21   C31   A    
C22   C32   A    
C35   C37   A    
C46   H12   S    
C3    C7    A    
N2    N4    A    
C43   C52   S    
C23   C49   S    
C6    C14   A    
C15   C16   A    
C29   C33   A    
C33   C36   A    
C34   C35   A    
C11   C15   A    
C39   H1    S    
C12   C16   A    
C16   C17   A    
C40   H2    S    
C55   H32   S    
C23   O7    A    
Cu1   O4    S    
C25   H6    S    
C32   C38   A    
C26   H5    S    
C21   H7    S    
C56   H38   S    
C40   C42   A    
C53   H25   S    
C23   O5    A    
C25   N5    A    
C55   H33   S    
C20   H16   S    
C42   C44   A    
C38   N8    S    
C47   H13   S    
N8    C54   S    
C44   C46   A    
C6    H20   S    
C45   C47   A    
C24   C50   S    
C46   C48   A    
C30   C34   A    
C28   N6    A    
C14   C20   A    
C27   N5    A    
Cu2   O7    S    
N10   C56   S    
N7    H23   S    
C5    C7    A    
C13   C19   A    
C6    C8    A    
Cu1   Cu2   S    
N7    C53   S    
C41   Br1   S    
C42   Br2   S    
Cu1   N6    S    
C1    C3    S    
C2    C4    S    
C3    C9    A    
C22   H8    S    
N9    C55   S    
C54   H28   S    
C33   C34   A    
N1    N3    A    
Cu1   O5    S    
C48   H14   S    
C48   C50   A    
C43   C45   A    
C10   C12   A    
C44   C51   S    
C39   C49   A    
C12   C14   A    
C53   H26   S    
C9    C11   A    
C45   H11   S    
C55   H34   S    
C19   H15   S    
C1    O3    A    
C4    C10   A    
C52   N1    A    
C7    H18   S    
C56   H36   S    
C21   C25   A    
C8    H17   S    
C18   H22   S    
C54   H29   S    
C5    C13   A    
C24   O6    A    
C27   H4    S    
C24   O8    A    
Cu2   O3    S    
C1    O1    A    
N9    H31   S    
Cu1   O1    S    
C36   C38   A    
C51   N2    A    
C29   C31   A    
C36   H10   S    
C47   C49   A    
C30   C32   A    
C11   C13   A    
C40   C50   A    
C28   C30   A    
C17   C19   A    
C2    O4    A    
C18   C20   A    
C5    H19   S    
C51   N3    A    
C31   C37   A    
C54   H30   S    
C26   N6    A    
C22   C26   A    
Cu1   O8    S    
C17   H21   S    
C10   N9    S    
C35   H9    S    
C52   N4    A    
Cu2   N5    S    
C37   N7    S    
C56   H37   S    
