data_mof_unit_48109.cif
_audit_creation_date              2012-12-11T14:30:15-0500
_audit_creation_method            fapswitch 2.2
_symmetry_space_group_name_H-M    P1
_symmetry_Int_Tables_number       1
_space_group_crystal_system       triclinic
_cell_length_a                    12.729346
_cell_length_b                    12.740621
_cell_length_c                    27.002829
_cell_angle_alpha                 89.990419
_cell_angle_beta                  89.993937
_cell_angle_gamma                 119.993951
_cell_volume                      3792.82703707

loop_
_atom_site_label
_atom_site_type_symbol
_atom_type_description
_atom_site_fract_x
_atom_site_fract_y
_atom_site_fract_z
_atom_type_partial_charge
C1    C     C_R   0.557216 0.455315 0.821956 0.540494
C2    C     C_R   0.453163 0.562909 0.176255 0.537869
C3    C     C_R   0.873619 0.282911 0.460688 -0.091218
C4    C     C_R   0.274035 0.863789 0.013113 -0.096011
C5    C     C_R   0.717332 0.591189 0.460694 -0.091198
C6    C     C_R   0.417752 0.148730 0.511307 -0.095220
C7    C     C_R   0.082280 0.365473 0.965420 -0.062591
C8    C     C_R   0.731170 0.582537 0.511342 -0.095162
C9    C     C_R   0.286337 0.884135 0.962427 -0.084831
C10   C     C_R   0.851055 0.269055 0.511334 -0.095300
C11   C     C_R   0.567184 0.714713 0.958220 -0.145458
C12   C     C_3   0.816392 0.675446 0.075657 -0.129625
C13   C     C_R   0.442001 0.897382 0.322027 0.541356
C14   C     C_3   0.798444 0.914726 0.450585 -0.121573
C15   C     C_3   0.383943 0.163493 0.078993 -0.092703
C16   C     C_3   0.085318 0.883449 0.450570 -0.121471
C17   C     C_3   0.856292 0.040632 0.071613 -0.105940
C18   C     C_3   0.116424 0.201432 0.450540 -0.121576
C19   C     C_3   0.594008 0.763432 0.580484 -0.099189
C20   C     C_3   0.823831 0.727848 0.949093 -0.122587
C21   C     C_3   0.168931 0.405157 0.580446 -0.099054
C22   C     C_3   0.859006 0.047133 0.937439 -0.145573
C23   C     C_3   0.236721 0.830366 0.580412 -0.099014
C24   C     C_R   0.105699 0.544837 0.176998 0.537037
C25   C     C_3   0.191095 0.114866 0.948279 -0.102093
C26   C     C_R   0.012145 0.511491 0.971147 0.002475
C27   C     C_R   0.528831 0.040413 0.521951 -0.013772
C28   C     C_R   0.464915 0.495802 0.969182 0.000197
C29   C     C_R   0.959440 0.488339 0.521947 -0.013644
C30   C     C_R   0.506157 0.985082 0.971322 0.006436
C31   C     C_R   0.511682 0.471176 0.521947 -0.013644
C32   C     C_R   0.520156 0.017520 0.470840 0.006131
C33   C     C_R   0.891215 0.437532 0.676613 0.535223
C34   C     C_R   0.025577 0.515003 0.022834 0.004386
C35   C     C_R   0.497484 0.479853 0.470834 0.006096
C36   C     C_R   0.493350 0.965149 0.022652 -0.011460
C37   C     C_R   0.982339 0.502557 0.470834 0.006102
C38   C     C_R   0.458258 0.510474 0.020507 -0.000673
C39   C     C_R   0.954052 0.666747 0.976329 0.272265
C40   C     C_R   0.632849 0.924804 0.532926 0.272508
C41   C     C_R   0.357987 0.276172 0.980212 0.272350
C42   C     C_R   0.075179 0.707855 0.532896 0.272386
C43   C     C_R   0.726174 0.082603 0.980247 0.289590
C44   C     C_R   0.544953 0.103224 0.822208 0.540805
C45   C     C_R   0.291942 0.366853 0.532884 0.272344
C46   C     C_R   0.629395 0.906653 0.481466 0.275730
C47   C     C_R   0.958055 0.663682 0.028528 0.271168
C48   C     C_R   0.277277 0.370371 0.481423 0.275706
C49   C     C_R   0.713682 0.069042 0.032127 0.287452
C50   C     C_R   0.093317 0.722555 0.481433 0.275684
C51   C     C_R   0.352046 0.291166 0.031599 0.266409
C52   C     C_R   0.951543 0.573426 0.896722 -0.125830
C53   C     C_R   0.590976 0.016231 0.604365 -0.150379
C54   C     C_R   0.442177 0.367212 0.899464 -0.122657
C55   C     C_R   0.562436 0.453670 0.676613 0.535233
C56   C     C_R   0.983733 0.574614 0.604351 -0.150228
C57   C     C_R   0.633416 0.078642 0.900000 -0.130738
C58   C     C_R   0.425265 0.408869 0.604344 -0.150272
C59   C     C_R   0.551843 0.920007 0.400272 -0.124740
C60   C     C_R   0.022472 0.599834 0.103244 -0.145384
C61   C     C_R   0.368241 0.448075 0.400246 -0.124836
C62   C     C_R   0.580461 0.992007 0.105169 -0.141065
C63   C     C_R   0.079926 0.631712 0.400251 -0.124879
C64   C     C_R   0.400545 0.425397 0.103340 -0.139167
C65   C     C_R   0.063475 0.527441 0.125410 -0.014877
C66   C     C_R   0.899166 0.442735 0.821714 0.540693
C67   C     C_R   0.483018 0.954061 0.370649 -0.017634
C68   C     C_R   0.461013 0.542154 0.123373 -0.016535
C69   C     C_R   0.045866 0.528899 0.370642 -0.017813
C70   C     C_R   0.463170 0.929902 0.125121 -0.023458
C71   C     C_R   0.471150 0.517015 0.370640 -0.017855
C72   C     C_R   0.536423 0.078363 0.624164 -0.030179
C73   C     C_R   0.961374 0.484495 0.869648 -0.022204
C74   C     C_R   0.541971 0.463581 0.624164 -0.030121
C75   C     C_R   0.530031 0.047183 0.870972 -0.017817
C76   C     C_R   0.921565 0.457993 0.624163 -0.029958
C77   C     C_R   0.546317 0.108744 0.676611 0.535403
C78   C     C_R   0.511374 0.470354 0.869851 -0.019075
C79   C     C_R   0.974376 0.585905 0.947863 -0.032028
C80   C     C_R   0.584885 0.993758 0.553260 -0.050982
C81   C     C_R   0.419291 0.378795 0.949289 -0.036255
C82   C     C_R   0.006167 0.590993 0.553242 -0.050869
C83   C     C_R   0.622662 0.047169 0.950207 -0.040255
C84   C     C_R   0.408906 0.414962 0.553236 -0.050860
C85   C     C_R   0.569304 0.949401 0.450601 -0.037962
C86   C     C_R   0.999251 0.591501 0.051926 -0.037664
C87   C     C_R   0.380174 0.430593 0.450576 -0.037887
C88   C     C_R   0.455417 0.558028 0.322023 0.541656
C89   C     C_R   0.596813 0.010324 0.053606 -0.042244
C90   C     C_R   0.050510 0.619771 0.450581 -0.037945
C91   C     C_R   0.402421 0.408264 0.051972 -0.036287
C92   C     C_R   0.012041 0.420869 0.892075 -0.113770
C93   C     C_R   0.481253 0.124665 0.592864 -0.134162
C94   C     C_R   0.546270 0.585521 0.888552 -0.147878
C95   C     C_R   0.875151 0.356573 0.592878 -0.134441
C96   C     C_R   0.414550 0.977441 0.891328 -0.114494
C97   C     C_R   0.643512 0.518897 0.592883 -0.134279
C98   C     C_R   0.439481 0.026521 0.390348 -0.113512
C99   C     C_R   0.439827 0.894690 0.177231 0.536035
C100  C     C_R   0.081840 0.446606 0.096224 -0.095181
C101  C     C_R   0.587201 0.560650 0.390355 -0.113595
C102  C     C_R   0.362095 0.885352 0.093868 -0.139931
C103  C     C_R   0.973353 0.412951 0.390353 -0.113496
C104  C     C_R   0.515696 0.643145 0.091783 -0.139172
C105  C     C_R   0.037598 0.433825 0.942602 0.050680
C106  C     C_R   0.476811 0.106007 0.542045 0.020638
C107  C     C_R   0.523323 0.598972 0.938144 0.017707
C108  C     C_R   0.893791 0.370782 0.542056 0.020316
C109  C     C_R   0.401842 0.946633 0.941344 0.048752
C110  C     C_R   0.102617 0.544604 0.322020 0.541444
C111  C     C_R   0.629330 0.523337 0.542062 0.020495
C112  C     C_R   0.457942 0.058932 0.440262 0.057440
C113  C     C_R   0.066509 0.442205 0.045333 0.044648
C114  C     C_R   0.601160 0.542192 0.440272 0.057349
C115  C     C_R   0.376177 0.903612 0.043207 0.006215
C116  C     C_R   0.940910 0.398989 0.440270 0.057235
C117  C     C_R   0.512450 0.628088 0.040585 0.015347
C118  C     C_R   0.095531 0.368672 0.016560 -0.073629
C119  C     C_R   0.409078 0.126199 0.460664 -0.091435
C120  C     C_R   0.564488 0.729020 0.009222 -0.137437
Cr1   Cr    Cr6+3 0.487630 0.241180 0.750000 1.019946
Cr2   Cr    Cr6+3 0.753550 0.512370 0.750000 1.018462
Cr3   Cr    Cr6+3 0.758820 0.246450 0.750000 1.016523
Cr4   Cr    Cr6+3 0.241180 0.487630 0.250000 1.016081
Cr5   Cr    Cr6+3 0.512370 0.753550 0.250000 1.010425
Cr6   Cr    Cr6+3 0.246450 0.758820 0.250000 1.014107
H1    H     H_    0.012606 0.664641 0.125799 0.155172
H2    H     H_    0.722720 0.135454 0.884287 0.176245
H3    H     H_    0.015111 0.651678 0.628975 0.162648
H4    H     H_    0.413862 0.277910 0.884668 0.181415
H5    H     H_    0.116075 0.391817 0.112595 0.144105
H6    H     H_    0.386457 0.052773 0.367422 0.118966
H7    H     H_    0.557660 0.734019 0.107016 0.132810
H8    H     H_    0.947097 0.333730 0.367434 0.119318
H9    H     H_    0.271114 0.834626 0.109005 0.145567
H10   H     H_    0.666499 0.613757 0.367442 0.118952
H11   H     H_    0.442226 0.176334 0.608112 0.148763
H12   H     H_    0.584321 0.862883 0.384881 0.181761
H13   H     H_    0.023700 0.354893 0.871031 0.129932
H14   H     H_    0.734239 0.558039 0.608147 0.148847
H15   H     H_    0.334818 0.952957 0.868936 0.124739
H16   H     H_    0.823441 0.265925 0.608141 0.148787
H17   H     H_    0.597742 0.664832 0.865487 0.116740
H18   H     H_    0.128099 0.313322 0.033640 0.120414
H19   H     H_    0.361198 0.158403 0.437705 0.089749
H20   H     H_    0.607369 0.819107 0.024324 0.102996
H21   H     H_    0.841432 0.202872 0.437741 0.089996
H22   H     H_    0.185082 0.821231 0.029326 0.149157
H23   H     H_    0.354186 0.348602 0.128062 0.155354
H24   H     H_    0.797452 0.639166 0.437747 0.089789
H25   H     H_    0.374968 0.196222 0.526682 0.121445
H26   H     H_    0.104138 0.307356 0.943828 0.097313
H27   H     H_    0.821462 0.625444 0.526734 0.121453
H28   H     H_    0.205840 0.854389 0.939968 0.136967
H29   H     H_    0.803561 0.178828 0.526723 0.121463
H30   H     H_    0.611254 0.794574 0.934941 0.099836
H31   H     H_    0.747620 0.618606 0.047360 0.112457
H32   H     H_    0.790260 0.740449 0.090383 0.137655
H33   H     H_    0.812926 0.617072 0.106871 0.119432
H34   H     H_    0.137094 0.721278 0.384850 0.181807
H35   H     H_    0.852704 0.958778 0.484410 0.152073
H36   H     H_    0.809930 0.984401 0.422875 0.084143
H37   H     H_    0.834730 0.859950 0.433818 0.117881
H38   H     H_    0.456202 0.239650 0.100650 0.094286
H39   H     H_    0.425651 0.140315 0.047822 0.169036
H40   H     H_    0.339204 0.084640 0.104226 0.155850
H41   H     H_    0.041142 0.893498 0.484400 0.151991
H42   H     H_    0.015654 0.825373 0.422831 0.084071
H43   H     H_    0.140196 0.974533 0.433851 0.118034
H44   H     H_    0.913592 0.040347 0.040774 0.156551
H45   H     H_    0.657653 0.023428 0.129744 0.154475
H46   H     H_    0.780946 0.946957 0.079224 0.079554
H47   H     H_    0.914324 0.071516 0.105148 0.147445
H48   H     H_    0.106374 0.147215 0.484362 0.152061
H49   H     H_    0.174666 0.190036 0.422804 0.084151
H50   H     H_    0.025277 0.165120 0.433811 0.117982
H51   H     H_    0.551618 0.698406 0.549428 0.159401
H52   H     H_    0.522725 0.770861 0.601445 0.083052
H53   H     H_    0.635393 0.727136 0.606414 0.158240
H54   H     H_    0.760784 0.628886 0.943516 0.119319
H55   H     H_    0.814067 0.775485 0.916576 0.120695
H56   H     H_    0.278593 0.415510 0.384841 0.181715
H57   H     H_    0.797750 0.760408 0.982335 0.157364
H58   H     H_    0.146272 0.447578 0.549394 0.159439
H59   H     H_    0.247474 0.476360 0.601472 0.083193
H60   H     H_    0.091111 0.363558 0.606321 0.158368
H61   H     H_    0.955205 0.088616 0.926127 0.123508
H62   H     H_    0.803337 0.009996 0.903480 0.105377
H63   H     H_    0.839220 0.971534 0.963286 0.102864
H64   H     H_    0.301772 0.852974 0.549336 0.159342
H65   H     H_    0.229275 0.751726 0.601386 0.083101
H66   H     H_    0.273091 0.908027 0.606322 0.158384
H67   H     H_    0.636764 0.984910 0.628995 0.162499
H68   H     H_    0.154103 0.021393 0.933963 0.165651
H69   H     H_    0.182332 0.169785 0.918234 0.081522
H70   H     H_    0.135380 0.110061 0.980928 0.155784
H71   H     H_    0.915297 0.624734 0.878914 0.168465
H72   H     H_    0.348118 0.362953 0.628961 0.162621
O1    O     O_R   0.460870 0.120930 0.805240 -0.513336
O2    O     O_R   0.120930 0.460870 0.194760 -0.516418
O3    O     O_R   0.539130 0.660060 0.305240 -0.514095
O4    O     O_R   0.339940 0.879070 0.194760 -0.518132
O5    O     O_R   0.498910 0.350470 0.801870 -0.504392
O6    O     O_R   0.851560 0.501090 0.698130 -0.501503
O7    O     O_R   0.649530 0.148440 0.801870 -0.506069
O8    O     O_R   0.498910 0.350470 0.698130 -0.501534
O9    O     O_R   0.851560 0.501090 0.801870 -0.502429
O10   O     O_R   0.649530 0.148440 0.698130 -0.501478
O11   O     O_R   0.350470 0.498910 0.301870 -0.505868
O12   O     O_R   0.660060 0.539130 0.694760 -0.516198
O13   O     O_R   0.501090 0.851560 0.198130 -0.503628
O14   O     O_R   0.148440 0.649530 0.301870 -0.505943
O15   O     O_R   0.350470 0.498910 0.198130 -0.501286
O16   O     O_R   0.501090 0.851560 0.301870 -0.506106
O17   O     O_R   0.148440 0.649530 0.198130 -0.504320
O18   O     O_3   0.666667 0.333333 0.750000 -0.241961
O19   O     O_3   0.333333 0.666667 0.250000 -0.238847
O20   O     O_3   0.934629 0.741807 0.055692 -0.561308
O21   O     O_3   0.675222 0.837152 0.462214 -0.550478
O22   O     O_3   0.295431 0.190108 0.061675 -0.565401
O23   O     O_R   0.879070 0.339940 0.805240 -0.517353
O24   O     O_3   0.162914 0.837829 0.462167 -0.550451
O25   O     O_3   0.815942 0.123531 0.061864 -0.547943
O26   O     O_3   0.161905 0.324524 0.462157 -0.550545
O27   O     O_3   0.686012 0.876740 0.563039 -0.554334
O28   O     O_3   0.946133 0.758979 0.952826 -0.580021
O29   O     O_3   0.190643 0.313461 0.562977 -0.554465
O30   O     O_3   0.841085 0.137282 0.959802 -0.551633
O31   O     O_3   0.123312 0.809024 0.562999 -0.554338
O32   O     O_3   0.313568 0.160755 0.961296 -0.559567
O33   O     O_R   0.460870 0.120930 0.694760 -0.515978
O34   O     O_R   0.660060 0.539130 0.805240 -0.514336
O35   O     O_R   0.879070 0.339940 0.694760 -0.516301
O36   O     O_R   0.120930 0.460870 0.305240 -0.513778
O37   O     O_R   0.539130 0.660060 0.194760 -0.520800
O38   O     O_R   0.339940 0.879070 0.305240 -0.514059

loop_
_geom_bond_atom_site_label_1
_geom_bond_atom_site_label_2
_ccdc_geom_bond_type
C36   C89   A    
C21   H58   S    
C71   C88   S    
C3    H21   S    
C56   C76   A    
C5    C114  A    
C43   C83   A    
C4    C115  A    
C16   O24   S    
C42   C82   A    
C57   H2    S    
C23   H65   S    
Cr5   O13   S    
C17   H46   S    
C20   O28   S    
C21   H60   S    
C20   H54   S    
C37   C116  A    
C99   O13   A    
Cr6   O4    S    
C34   C113  A    
C40   C46   A    
C62   H45   S    
Cr3   O23   S    
Cr5   O3    S    
C61   H56   S    
C37   C90   A    
C17   O25   S    
C94   H17   S    
C64   C68   A    
C103  H8    S    
C78   C94   A    
C2    C68   S    
C3    C116  A    
C76   C95   A    
C45   O29   S    
C97   C111  A    
C24   O17   A    
C101  H10   S    
C22   O30   S    
Cr4   O11   S    
C16   H41   S    
C4    H22   S    
C62   C89   A    
C120  H20   S    
C22   H61   S    
C53   H67   S    
Cr3   O7    S    
C35   C114  A    
C34   C86   A    
Cr2   O6    S    
C40   O27   S    
C102  H9    S    
Cr1   O1    S    
C39   O28   S    
C102  C115  A    
C61   C87   A    
C67   C98   A    
C59   C67   A    
C96   H15   S    
Cr3   O35   S    
C55   C74   S    
C35   C87   A    
C16   H43   S    
C26   C34   A    
C58   H72   S    
C63   C69   A    
C50   C90   A    
C40   C80   A    
C29   C108  A    
C70   C102  A    
C12   H31   S    
C52   C79   A    
Cr6   O38   S    
C4    C9    A    
C19   H51   S    
C97   H14   S    
Cr1   O33   S    
C56   H3    S    
C25   H69   S    
Cr6   O19   S    
C46   C85   A    
Cr4   O36   S    
C18   H49   S    
C61   C71   A    
C71   C101  A    
Cr3   O18   S    
C49   O25   S    
C51   C91   A    
C101  C114  A    
C38   C117  A    
C7    C118  A    
Cr1   O8    S    
C66   O23   A    
C54   H4    S    
C11   C120  A    
C26   C105  A    
C12   O20   S    
C23   H66   S    
C17   H47   S    
C75   C96   A    
C74   C97   A    
Cr4   O15   S    
C69   C103  A    
C9    C109  A    
C21   O29   S    
C47   O20   S    
C25   O32   S    
C100  H5    S    
C77   O33   A    
C10   C108  A    
C30   C109  A    
C1    C78   S    
Cr1   O18   S    
C15   H38   S    
C53   C80   A    
C98   C112  A    
Cr1   O5    S    
C27   C80   A    
C104  H7    S    
C8    C111  A    
C60   C86   A    
C17   H44   S    
C43   C49   A    
C92   H13   S    
C48   O26   S    
C27   C106  A    
C66   C73   S    
C38   C91   A    
C5    H24   S    
C7    H26   S    
C39   C79   A    
C13   O16   A    
C14   H36   S    
C44   C75   S    
C47   C86   A    
C72   C77   S    
Cr5   O37   S    
C33   O35   A    
C58   C84   A    
C93   C106  A    
C5    C8    A    
Cr5   O16   S    
C2    O37   A    
C33   C76   S    
C28   C38   A    
C95   H16   S    
C41   C81   A    
C57   C83   A    
C6    C106  A    
C48   C87   A    
C15   H40   S    
C22   H63   S    
C56   C82   A    
C8    H27   S    
C19   H52   S    
C23   O31   S    
C25   H70   S    
C24   C65   S    
C42   C50   A    
Cr2   O12   S    
C6    H25   S    
C18   H48   S    
C69   C110  S    
C9    H28   S    
C52   C73   A    
C88   O11   A    
C13   O38   A    
C99   O4    A    
C11   C107  A    
C88   O3    A    
C31   C35   A    
C14   O21   S    
C117  C120  A    
C45   C84   A    
C72   C93   A    
C29   C37   A    
C1    O5    A    
C19   H53   S    
C6    C119  A    
C18   O26   S    
C70   C99   S    
C58   C74   A    
C39   C47   A    
C104  C117  A    
C13   C67   S    
C45   C48   A    
C55   O8    A    
Cr4   O19   S    
C50   O24   S    
C94   C107  A    
C46   O21   S    
C32   C112  A    
C27   C32   A    
Cr2   O9    S    
C60   H1    S    
C110  O14   A    
C100  C113  A    
C68   C104  A    
C73   C92   A    
C49   C89   A    
C65   C100  A    
C10   H29   S    
C60   C65   A    
C112  C119  A    
C14   H37   S    
C62   C70   A    
C21   H59   S    
C44   O1    A    
C51   O22   S    
C119  H19   S    
Cr2   O34   S    
C96   C109  A    
Cr4   O2    S    
C33   O6    A    
C118  H18   S    
C26   C79   A    
C59   H12   S    
C30   C36   A    
C64   H23   S    
C57   C75   A    
C14   H35   S    
C103  C116  A    
C19   O27   S    
C28   C81   A    
C29   C82   A    
C3    C10   A    
Cr6   O14   S    
C43   O30   S    
C55   O12   A    
C66   O9    A    
C53   C72   A    
C1    O34   A    
C16   H42   S    
C32   C85   A    
C63   C90   A    
C44   O7    A    
Cr2   O18   S    
Cr3   O10   S    
C20   H57   S    
C54   C81   A    
C12   H33   S    
C22   H62   S    
C93   H11   S    
C95   C108  A    
C31   C84   A    
Cr6   O17   S    
C63   H34   S    
C113  C118  A    
C42   O31   S    
C11   H30   S    
C92   C105  A    
C77   O10   A    
C41   O32   S    
C24   O2    A    
C2    O15   A    
C30   C83   A    
C7    C105  A    
C98   H6    S    
C31   C111  A    
C15   H39   S    
C52   H71   S    
C28   C107  A    
C64   C91   A    
C12   H32   S    
C15   O22   S    
C36   C115  A    
C59   C85   A    
C41   C51   A    
C23   H64   S    
C25   H68   S    
C110  O36   A    
C18   H50   S    
C20   H55   S    
C54   C78   A    
Cr5   O19   S    
