data_mof_unit_62111.cif
_audit_creation_date              2012-12-10T19:55:47-0500
_audit_creation_method            fapswitch 2.2
_symmetry_space_group_name_H-M    P1
_symmetry_Int_Tables_number       1
_space_group_crystal_system       triclinic
_cell_length_a                    14.999333
_cell_length_b                    14.267406
_cell_length_c                    19.215905
_cell_angle_alpha                 90.002489
_cell_angle_beta                  91.215658
_cell_angle_gamma                 89.999659
_cell_volume                      4111.30833539

loop_
_atom_site_label
_atom_site_type_symbol
_atom_type_description
_atom_site_fract_x
_atom_site_fract_y
_atom_site_fract_z
_atom_type_partial_charge
C1    C     C_R   0.327939 0.500006 0.499904 0.884456
C2    C     C_R   0.427881 0.894809 0.471691 0.563287
C3    C     C_R   0.456754 0.203657 0.447935 0.287805
C4    C     C_R   0.567706 0.796425 0.532501 0.288798
C5    C     C_R   0.543242 0.203661 0.552067 0.287918
C6    C     C_R   0.432295 0.796422 0.467498 0.288932
C7    C     C_R   0.500001 0.053307 0.499998 -0.194339
C8    C     C_R   0.500002 0.946775 0.499997 -0.183357
C9    C     C_R   0.500096 0.500040 0.365571 0.937704
C10   C     C_R   0.500022 0.500044 0.634427 0.937405
C11   C     C_R   0.496576 0.585461 0.253673 -0.185066
C12   C     C_R   0.672061 0.500006 0.500096 0.884220
C13   C     C_R   0.495161 0.415628 0.746677 -0.169470
C14   C     C_R   0.505448 0.585484 0.746325 -0.185535
C15   C     C_R   0.505927 0.415636 0.253376 -0.171239
C16   C     C_R   0.497343 0.586380 0.181529 0.382250
C17   C     C_R   0.496058 0.415534 0.818852 0.380198
C18   C     C_R   0.505860 0.586322 0.818493 0.381532
C19   C     C_R   0.506243 0.415480 0.181222 0.380307
C20   C     C_R   0.502000 0.501121 0.145003 -0.144040
C21   C     C_R   0.501356 0.501111 0.854895 -0.143253
C22   C     C_R   0.500764 0.500325 0.289863 -0.192389
C23   C     C_R   0.232119 0.500086 0.499834 -0.050032
C24   C     C_R   0.500180 0.500338 0.710143 -0.192478
C25   C     C_R   0.501807 0.501496 0.930022 0.395440
C26   C     C_R   0.502122 0.501496 0.069699 0.393185
C27   C     C_R   0.094848 0.578893 0.524302 -0.132139
C28   C     C_R   0.906601 0.421519 0.524608 -0.141477
C29   C     C_R   0.905151 0.578882 0.475694 -0.132132
C30   C     C_R   0.093397 0.421507 0.475418 -0.141476
C31   C     C_R   0.186851 0.579058 0.523883 -0.122047
C32   C     C_R   0.814569 0.421234 0.524278 -0.134266
C33   C     C_R   0.813148 0.579047 0.476109 -0.121995
C34   C     C_R   0.767880 0.500086 0.500170 -0.049978
C35   C     C_R   0.185429 0.421223 0.475744 -0.134209
C36   C     C_R   0.048117 0.500207 0.499926 0.091176
C37   C     C_R   0.951882 0.500208 0.500088 0.091162
C38   C     C_R   0.461971 0.105274 0.444376 0.568062
C39   C     C_R   0.572121 0.894812 0.528305 0.563429
C40   C     C_R   0.538028 0.105278 0.555622 0.567958
Cl1   Cl    Cl    0.496048 0.696010 0.139118 -0.439561
Cl2   Cl    Cl    0.487103 0.307137 0.862215 -0.433015
Cl3   Cl    Cl    0.515373 0.695164 0.861480 -0.438694
Cl4   Cl    Cl    0.508190 0.306270 0.138280 -0.429745
Cl5   Cl    Cl    0.390136 0.261209 0.385089 -0.463926
Cl6   Cl    Cl    0.649906 0.739175 0.583095 -0.442829
Cl7   Cl    Cl    0.609832 0.261217 0.614933 -0.464180
Cl8   Cl    Cl    0.350093 0.739166 0.416907 -0.442597
F1    F     F_    0.431552 0.061900 0.385647 -0.512603
F2    F     F_    0.648042 0.938210 0.550593 -0.525958
F3    F     F_    0.568443 0.061908 0.614351 -0.512714
F4    F     F_    0.351961 0.938206 0.449403 -0.526028
H1    H     H_    0.493116 0.651537 0.281279 0.225408
H2    H     H_    0.780094 0.360130 0.543616 0.204962
H3    H     H_    0.777526 0.640116 0.456789 0.186080
H4    H     H_    0.219903 0.360109 0.456417 0.204973
H5    H     H_    0.489923 0.349404 0.719382 0.235198
H6    H     H_    0.509761 0.651499 0.718734 0.225929
H7    H     H_    0.509487 0.349335 0.280700 0.236002
H8    H     H_    0.060220 0.639552 0.544230 0.163333
H9    H     H_    0.942417 0.360909 0.544502 0.162599
H10   H     H_    0.939780 0.639532 0.455755 0.163341
H11   H     H_    0.057581 0.360888 0.455537 0.162593
H12   H     H_    0.222472 0.640137 0.543189 0.186047
N1    N     N_R   0.567610 0.456893 0.035324 -0.081994
N2    N     N_R   0.436412 0.546260 0.964313 -0.083949
N3    N     N_R   0.567404 0.456790 0.966299 -0.076672
N4    N     N_R   0.436520 0.546161 0.033333 -0.075354
N5    N     N_R   0.500000 0.252470 0.500000 -0.227574
N6    N     N_R   0.500000 0.747530 0.500000 -0.231346
O1    O     O_R   0.369060 0.579480 0.500010 -0.578388
O2    O     O_R   0.630940 0.420520 0.499990 -0.596346
O3    O     O_R   0.630940 0.579480 0.499990 -0.578459
O4    O     O_R   0.369060 0.420520 0.500010 -0.596301
O5    O     O_R   0.499990 0.579500 0.398140 -0.595612
O6    O     O_R   0.500010 0.420500 0.601860 -0.579258
O7    O     O_R   0.500010 0.579500 0.601860 -0.595721
O8    O     O_R   0.499990 0.420500 0.398140 -0.579368
Zn1   Zn    Zn3+2 0.500000 0.606140 0.500000 1.059009
Zn2   Zn    Zn3+2 0.500000 0.393860 0.500000 1.058410

loop_
_geom_bond_atom_site_label_1
_geom_bond_atom_site_label_2
_ccdc_geom_bond_type
C33   H3    S    
N2    N4    A    
C4    N6    A    
C18   C21   A    
C14   C18   A    
C19   C20   A    
C25   N3    A    
O1    Zn1   S    
C7    C8    S    
C38   F1    S    
C4    Cl6   S    
C15   C19   A    
C5    Cl7   S    
C1    O1    A    
C6    Cl8   S    
C30   C35   A    
C1    O4    A    
C36   C37   S    
C3    N5    A    
C27   H8    S    
O8    Zn2   S    
C9    C22   S    
C13   H5    S    
C29   C33   A    
C14   C24   A    
C17   Cl2   S    
C5    N5    A    
C10   O6    A    
C15   C22   A    
C3    C38   A    
N1    N3    A    
C7    C40   A    
C8    C39   A    
C11   H1    S    
C28   H9    S    
C12   O2    A    
O4    Zn2   S    
C30   H11   S    
C2    C6    A    
C32   H2    S    
C10   O7    A    
O7    Zn1   S    
C14   H6    S    
C27   C31   A    
C28   C32   A    
C10   C24   S    
C3    Cl5   S    
C17   C21   A    
C13   C24   A    
C23   C31   A    
C11   C16   A    
C4    C39   A    
C16   C20   A    
C33   C34   A    
O3    Zn1   S    
C2    F4    S    
C1    C23   S    
C23   C35   A    
C12   C34   S    
C19   Cl4   S    
C6    N6    A    
C21   C25   S    
C29   H10   S    
C35   H4    S    
C26   N1    A    
C15   H7    S    
C31   H12   S    
C2    C8    A    
C25   N2    A    
O6    Zn2   S    
C13   C17   A    
C27   C36   A    
C40   F3    S    
C11   C22   A    
C30   C36   A    
C26   N4    A    
O2    Zn2   S    
C18   Cl3   S    
N6    Zn1   S    
C20   C26   S    
C28   C37   A    
C7    C38   A    
C9    O8    A    
C39   F2    S    
C5    C40   A    
C29   C37   A    
N5    Zn2   S    
C9    O5    A    
C12   O3    A    
O5    Zn1   S    
C16   Cl1   S    
C32   C34   A    
