data_mof_unit_65135.cif
_audit_creation_date              2012-12-10T19:22:09-0500
_audit_creation_method            fapswitch 2.2
_symmetry_space_group_name_H-M    P1
_symmetry_Int_Tables_number       1
_space_group_crystal_system       triclinic
_cell_length_a                    15.724276
_cell_length_b                    14.953138
_cell_length_c                    23.338099
_cell_angle_alpha                 89.68501
_cell_angle_beta                  89.931428
_cell_angle_gamma                 89.88805
_cell_volume                      5487.32622166

loop_
_atom_site_label
_atom_site_type_symbol
_atom_type_description
_atom_site_fract_x
_atom_site_fract_y
_atom_site_fract_z
_atom_type_partial_charge
C1    C     C_R   0.337912 0.500074 0.500018 0.903019
C2    C     C_R   0.368348 0.633442 0.969333 0.487008
C3    C     C_R   0.362584 0.631222 0.029379 0.123602
C4    C     C_R   0.407986 0.565283 0.060850 -0.154986
C5    C     C_R   0.450230 0.495781 0.031074 -0.042743
C6    C     C_R   0.490907 0.426198 0.061667 -0.078884
C7    C     C_R   0.531967 0.357035 0.032472 -0.234067
C8    C     C_R   0.534911 0.356324 0.972880 0.541560
C9    C     C_R   0.415708 0.566934 0.121007 0.619104
C10   C     C_R   0.491222 0.428180 0.121267 0.633450
C11   C     C_R   0.539307 0.542005 0.233055 0.099151
C12   C     C_R   0.500142 0.500320 0.389244 1.048458
C13   C     C_R   0.549249 0.544926 0.292588 0.372396
C14   C     C_R   0.489305 0.501394 0.327628 -0.340353
C15   C     C_R   0.417111 0.460233 0.304144 0.304476
C16   C     C_R   0.402812 0.466127 0.244958 0.454282
C17   C     C_R   0.465709 0.503535 0.209750 0.024826
C18   C     C_R   0.433230 0.435213 0.759629 -0.268315
C19   C     C_R   0.442034 0.433812 0.700461 0.462240
C20   C     C_R   0.492255 0.499366 0.673202 -0.327228
C21   C     C_R   0.532641 0.566506 0.705455 0.304066
C22   C     C_R   0.519217 0.570298 0.765011 0.473823
C23   C     C_R   0.662155 0.499939 0.500022 0.893956
C24   C     C_R   0.471356 0.502599 0.791663 0.079169
C25   C     C_3   0.049015 0.594753 0.519667 0.418096
C26   C     C_3   0.050503 0.413182 0.524881 0.441271
C27   C     C_3   0.950685 0.407191 0.516219 0.193991
C28   C     C_3   0.950858 0.581843 0.531354 0.228836
C29   C     C_1   0.750642 0.499992 0.497400 -0.125654
C30   C     C_3   0.082333 0.501968 0.492028 -0.244435
C31   C     C_3   0.917190 0.501661 0.492193 -0.273540
C32   C     C_3   0.948936 0.515130 0.426652 0.811118
C33   C     C_3   0.050925 0.498992 0.426056 0.844566
C34   C     C_1   0.825772 0.500727 0.494656 0.164096
C35   C     C_1   0.174029 0.501403 0.494689 0.117410
C36   C     C_R   0.499568 0.499739 0.611028 0.964279
C37   C     C_1   0.249257 0.500417 0.497486 -0.172079
C38   C     C_3   0.421436 0.053150 0.460258 0.235849
C39   C     C_3   0.412708 0.947183 0.469363 0.231044
C40   C     C_3   0.482351 0.052662 0.564066 0.453023
C41   C     C_3   0.500422 0.945594 0.564760 0.556312
C42   C     C_3   0.498098 0.090004 0.499648 -0.241082
C43   C     C_3   0.498338 0.910244 0.499212 -0.262993
C44   C     C_3   0.581224 0.947206 0.465742 0.437119
C45   C     C_3   0.589036 0.053303 0.477303 0.391432
C46   C     C_1   0.498514 0.809266 0.498980 0.353271
C47   C     C_1   0.498306 0.190719 0.499091 0.207655
C48   C     C_R   0.504651 0.433180 0.881783 0.577252
C49   C     C_R   0.415372 0.562516 0.879508 0.618906
C50   C     C_R   0.411907 0.564859 0.939684 -0.164773
C51   C     C_R   0.452895 0.495909 0.970742 -0.136055
C52   C     C_R   0.497821 0.427569 0.941556 -0.118982
H1    H     H_    0.563412 0.303457 0.055692 0.211449
H2    H     H_    0.396718 0.383435 0.780971 0.189460
N1    N     N_R   0.463844 0.499760 0.852555 -0.323626
N2    N     N_R   0.456140 0.498901 0.149189 -0.305968
N3    N     N_1   0.498630 0.731150 0.498860 -0.080954
N4    N     N_1   0.498630 0.268850 0.498860 -0.085091
O1    O     O_R   0.377210 0.574260 0.500060 -0.612651
O2    O     O_R   0.377210 0.425740 0.500060 -0.603043
O3    O     O_R   0.500050 0.574250 0.416220 -0.628799
O4    O     O_R   0.500050 0.425750 0.416220 -0.598993
O5    O     O_R   0.622930 0.574200 0.500060 -0.605384
O6    O     O_R   0.622930 0.425800 0.500060 -0.606456
O7    O     O_R   0.500100 0.574210 0.583900 -0.572436
O8    O     O_R   0.500100 0.425790 0.583900 -0.576259
O9    O     O_2   0.552157 0.373389 0.852665 -0.477708
O10   O     O_2   0.370199 0.621368 0.847763 -0.513745
O11   O     O_2   0.386952 0.636989 0.151436 -0.532241
O12   O     O_2   0.528240 0.361294 0.151389 -0.529602
Zn1   Zn    Zn3+2 0.500090 0.599130 0.500080 1.038260
Zn2   Zn    Zn3+2 0.500090 0.400870 0.500080 1.026452
O13   O     O_3   0.328598 0.702157 0.939722 -0.536671
C53   C     C_3   0.386650 0.773601 0.933914 -0.174399
H3    H     H_    0.356026 0.827587 0.908463 0.194041
H4    H     H_    0.445235 0.752824 0.910697 0.148457
H5    H     H_    0.403911 0.801910 0.976306 0.156444
O14   O     O_3   0.405088 0.365304 0.669753 -0.587881
C54   C     C_3   0.320318 0.389209 0.657414 -0.234646
H6    H     H_    0.291819 0.336015 0.630668 0.187521
H7    H     H_    0.316832 0.452823 0.632464 0.159530
H8    H     H_    0.281813 0.394425 0.697298 0.186842
O15   O     O_3   0.584168 0.628999 0.678742 -0.594369
C55   C     C_3   0.667914 0.595264 0.677180 -0.138115
H9    H     H_    0.709182 0.645541 0.655876 0.215616
H10   H     H_    0.671854 0.532618 0.651747 0.140206
H11   H     H_    0.693258 0.583904 0.721142 0.191640
O16   O     O_3   0.559485 0.633336 0.798818 -0.596280
C56   C     C_3   0.530029 0.720153 0.784963 -0.179742
H12   H     H_    0.461242 0.722205 0.773462 0.166053
H13   H     H_    0.568758 0.749791 0.749954 0.212973
H14   H     H_    0.538464 0.763307 0.823011 0.163961
I1    I     I_    0.911355 0.573894 0.620973 -0.222432
I2    I     I_    0.880388 0.350892 0.589254 -0.275197
I3    I     I_    0.118817 0.642572 0.597419 -0.249566
I4    I     I_    0.091571 0.414861 0.616187 -0.342614
O17   O     O_3   0.091432 0.339132 0.497618 -0.574782
C57   C     C_3   0.095798 0.259136 0.530151 -0.119559
H15   H     H_    0.040006 0.248883 0.558558 0.187412
H16   H     H_    0.155736 0.257253 0.555237 0.166283
H17   H     H_    0.097975 0.201939 0.500126 0.208726
O18   O     O_3   0.053169 0.664939 0.477591 -0.546270
C58   C     C_3   0.130552 0.712698 0.473386 0.003518
H18   H     H_    0.187758 0.671207 0.480934 0.143056
H19   H     H_    0.129403 0.770712 0.502820 0.181395
H20   H     H_    0.135956 0.740301 0.429324 0.195044
I5    I     I_    0.913070 0.293163 0.462490 -0.215272
I6    I     I_    0.882672 0.708553 0.519087 -0.227757
O19   O     O_3   0.095298 0.569328 0.396252 -0.608668
C59   C     C_3   0.084531 0.574595 0.336270 -0.264266
H21   H     H_    0.031551 0.620540 0.325425 0.214358
H22   H     H_    0.077898 0.509227 0.314918 0.138339
H23   H     H_    0.142575 0.605595 0.317933 0.177014
O20   O     O_3   0.068118 0.413343 0.401074 -0.607422
C60   C     C_3   0.154028 0.397059 0.384907 -0.138324
H24   H     H_    0.196531 0.456081 0.385280 0.185202
H25   H     H_    0.154627 0.370052 0.340739 0.155452
H26   H     H_    0.182281 0.344912 0.412927 0.222797
O21   O     O_3   0.931387 0.604934 0.407819 -0.591864
C61   C     C_3   0.848559 0.620864 0.385156 -0.175513
H27   H     H_    0.821600 0.682283 0.404218 0.183278
H28   H     H_    0.801812 0.566503 0.391994 0.189432
H29   H     H_    0.853236 0.635101 0.338599 0.162840
O22   O     O_3   0.903955 0.450890 0.392600 -0.611043
C62   C     C_3   0.919020 0.450832 0.332864 -0.169739
H30   H     H_    0.931106 0.517129 0.314027 0.125384
H31   H     H_    0.860705 0.425786 0.311686 0.199086
H32   H     H_    0.970166 0.402960 0.321711 0.204435
I7    I     I_    0.296120 0.906826 0.514671 -0.188568
I8    I     I_    0.303055 0.128997 0.471511 -0.300518
I9    I     I_    0.275969 0.725417 0.066988 -0.176033
I10   I     I_    0.562282 0.125059 0.629009 -0.310856
I11   I     I_    0.617948 0.900218 0.610156 -0.194692
O23   O     O_3   0.393914 0.062195 0.577795 -0.576759
C63   C     C_3   0.370499 0.139539 0.608654 -0.154797
H33   H     H_    0.300621 0.148226 0.605279 0.186304
H34   H     H_    0.399863 0.201319 0.591213 0.188677
H35   H     H_    0.384285 0.130727 0.654972 0.176926
O24   O     O_3   0.434472 0.898998 0.594605 -0.574692
C64   C     C_3   0.429186 0.915364 0.654242 -0.106647
H36   H     H_    0.361256 0.923503 0.666004 0.197438
H37   H     H_    0.463175 0.975802 0.668693 0.150684
H38   H     H_    0.454043 0.856409 0.678039 0.156839
I12   I     I_    0.636674 0.129221 0.399801 -0.296299
I13   I     I_    0.582039 0.906678 0.374675 -0.332416
O25   O     O_3   0.649249 0.060698 0.523121 -0.592630
C65   C     C_3   0.703550 0.135983 0.522072 -0.118954
H39   H     H_    0.668610 0.199368 0.514071 0.175404
H40   H     H_    0.756340 0.126130 0.491124 0.180190
H41   H     H_    0.734058 0.142048 0.564681 0.216427
O26   O     O_3   0.652333 0.899893 0.489217 -0.571429
C66   C     C_3   0.732108 0.917043 0.463144 -0.042465
H42   H     H_    0.734322 0.978228 0.436461 0.160177
H43   H     H_    0.750587 0.858881 0.436496 0.156774
H44   H     H_    0.780570 0.924111 0.497311 0.202939
I14   I     I_    0.426340 0.092865 0.370569 -0.243600
I15   I     I_    0.368472 0.871086 0.395120 -0.237653
O27   O     O_3   0.578608 0.288111 0.945896 -0.546970
C67   C     C_3   0.524961 0.212808 0.942867 -0.198625
H45   H     H_    0.558421 0.159530 0.918767 0.206284
H46   H     H_    0.465068 0.228557 0.919409 0.152492
H47   H     H_    0.510325 0.185821 0.986291 0.144482
I16   I     I_    0.637388 0.590762 0.178133 -0.252806
O28   O     O_3   0.622273 0.580299 0.316426 -0.606476
C68   C     C_3   0.611567 0.673492 0.322490 -0.185893
H48   H     H_    0.552499 0.690743 0.346297 0.190949
H49   H     H_    0.611186 0.707901 0.280218 0.201211
H50   H     H_    0.666071 0.699951 0.347269 0.177417
O29   O     O_3   0.357762 0.420544 0.339938 -0.645377
C69   C     C_3   0.366786 0.326899 0.336643 -0.161723
H51   H     H_    0.328196 0.296016 0.371240 0.186629
H52   H     H_    0.433897 0.305188 0.343229 0.197293
H53   H     H_    0.342549 0.301285 0.295183 0.212354
O30   O     O_3   0.331883 0.427649 0.220246 -0.587665
C70   C     C_3   0.260826 0.483351 0.229791 -0.259764
H54   H     H_    0.271894 0.552565 0.213788 0.199621
H55   H     H_    0.242916 0.484673 0.275801 0.175282
H56   H     H_    0.205893 0.455961 0.205892 0.190957

loop_
_geom_bond_atom_site_label_1
_geom_bond_atom_site_label_2
_ccdc_geom_bond_type
C48   N1    A    
C68   H48   S    
C49   O10   S    
C63   H35   S    
O29   C69   S    
C32   O22   S    
C19   C20   A    
C55   H11   S    
C38   I14   S    
C8    O27   S    
C41   I11   S    
O20   C60   S    
C7    C8    A    
C70   H55   S    
C61   H27   S    
C25   C28   S    
C33   O20   S    
C53   H4    S    
C30   C35   S    
O15   C55   S    
C18   C24   A    
C23   C29   S    
O28   C68   S    
C65   H40   S    
C9    O11   S    
C38   C42   S    
C1    O1    A    
C5    C6    A    
C36   O8    A    
C25   O18   S    
C69   H51   S    
O2    Zn2   S    
C15   C16   A    
C15   O29   S    
C18   C19   A    
O13   C53   S    
C49   C50   A    
O30   C70   S    
C56   H14   S    
C2    C50   A    
C65   H39   S    
C59   H21   S    
O8    Zn2   S    
C21   O15   S    
C16   C17   A    
C60   H25   S    
C53   H5    S    
C45   I12   S    
O26   C66   S    
C67   H46   S    
C22   O16   S    
C56   H13   S    
C10   N2    A    
C8    C52   A    
C61   H29   S    
C1    C37   S    
O16   C56   S    
O3    Zn1   S    
C40   C42   S    
C40   I10   S    
C68   H49   S    
C21   C22   A    
C39   I15   S    
C41   C43   S    
C61   H28   S    
O17   C57   S    
C70   H56   S    
C28   C31   S    
C26   I4    S    
C38   C39   S    
C67   H47   S    
C44   O26   S    
C53   H3    S    
C27   C31   S    
C45   O25   S    
C63   H33   S    
C65   H41   S    
C55   H9    S    
C44   I13   S    
C1    O2    A    
C54   H7    S    
O14   C54   S    
C39   C43   S    
C39   I7    S    
C49   N1    A    
C40   O23   S    
C29   C34   T    
C51   C52   A    
C28   I1    S    
C24   N1    S    
C42   C45   S    
C19   O14   S    
C43   C44   S    
C62   H32   S    
C12   O4    A    
C67   H45   S    
C17   N2    S    
C66   H44   S    
C27   I5    S    
O21   C61   S    
C60   H26   S    
C11   I16   S    
C50   C51   A    
C26   C27   S    
C31   C34   S    
O4    Zn2   S    
C58   H19   S    
C9    N2    A    
N3    Zn1   S    
C64   H38   S    
C59   H23   S    
O23   C63   S    
C2    O13   S    
C10   O12   S    
C23   O6    A    
C12   C14   S    
C26   C30   S    
C68   H50   S    
C57   H16   S    
C46   N3    T    
O27   C67   S    
C3    I9    S    
C33   O19   S    
C7    H1    S    
C32   O21   S    
C3    C4    A    
C38   I8    S    
C44   C45   S    
C13   O28   S    
O25   C65   S    
C16   O30   S    
C25   C30   S    
C63   H34   S    
C40   C41   S    
C30   C33   S    
C35   C37   T    
C36   O7    A    
C31   C32   S    
C66   H43   S    
C4    C5    A    
C11   C17   A    
C6    C10   A    
C54   H8    S    
O24   C64   S    
C25   I3    S    
C6    C7    A    
C64   H37   S    
C57   H17   S    
C32   C33   S    
C2    C3    A    
C4    C9    A    
C70   H54   S    
O7    Zn1   S    
O19   C59   S    
C47   N4    T    
C12   O3    A    
C11   C13   A    
N4    Zn2   S    
C62   H30   S    
C69   H52   S    
C28   I6    S    
C64   H36   S    
C55   H10   S    
C23   O5    A    
C58   H20   S    
C22   C24   A    
C42   C47   S    
O6    Zn2   S    
C48   O9    S    
O18   C58   S    
C43   C46   S    
C59   H22   S    
C41   O24   S    
C18   H2    S    
C26   O17   S    
C54   H6    S    
C20   C36   S    
C48   C52   A    
C20   C21   A    
C57   H15   S    
C58   H18   S    
C62   H31   S    
C14   C15   A    
C5    C51   A    
C27   I2    S    
C66   H42   S    
C56   H12   S    
C13   C14   A    
O5    Zn1   S    
C60   H24   S    
O1    Zn1   S    
O22   C62   S    
C69   H53   S    
