data_mof_unit_8678.cif
_audit_creation_date              2012-10-26T20:58:17-0400
_audit_creation_method            fapswitch 2.2
_symmetry_space_group_name_H-M    P1
_symmetry_Int_Tables_number       1
_space_group_crystal_system       triclinic
_cell_length_a                    10.60252
_cell_length_b                    14.70066
_cell_length_c                    14.66498
_cell_angle_alpha                 64.764219
_cell_angle_beta                  103.381626
_cell_angle_gamma                 103.555359
_cell_volume                      1987.39528389

loop_
_atom_site_label
_atom_site_type_symbol
_atom_type_description
_atom_site_fract_x
_atom_site_fract_y
_atom_site_fract_z
_atom_type_partial_charge
C1    C     C_R   0.476217 0.119920 0.311897 0.555327
C2    C     C_R   0.437542 0.532612 0.945104 0.037497
C3    C     C_R   0.405799 0.491945 0.869627 -0.147121
C4    C     C_R   0.445054 0.504873 0.121727 -0.149288
C5    C     C_R   0.392210 0.388210 0.895333 -0.112977
C6    C     C_R   0.458153 0.608935 0.095107 -0.115548
C7    C     C_R   0.727715 0.290671 0.660625 -0.146002
C8    C     C_R   0.272395 0.709463 0.339159 -0.154339
C9    C     C_R   0.689856 0.206829 0.634115 0.061652
C10   C     C_R   0.310139 0.793202 0.365861 0.054659
C11   C     C_R   0.515579 0.283509 0.511299 0.024312
C12   C     C_R   0.518577 0.880089 0.688046 0.555910
C13   C     C_R   0.484456 0.716519 0.488561 0.026752
C14   C     C_R   0.549158 0.371607 0.534606 -0.000549
C15   C     C_R   0.451087 0.628583 0.464966 -0.001512
C16   C     C_R   0.259697 0.999064 0.501122 0.592548
C17   C     C_R   0.740390 0.001001 0.498802 0.594628
C18   C     C_R   0.657912 0.373141 0.611353 0.047662
C19   C     C_R   0.342434 0.627125 0.388128 0.045782
C20   C     C_R   0.479751 0.457401 0.485168 0.021431
C21   C     C_R   0.520653 0.542888 0.514218 0.019927
C22   C     C_R   0.629543 0.539723 0.591456 -0.149189
C23   C     C_R   0.459280 0.290989 0.177026 -0.140116
C24   C     C_R   0.371142 0.460728 0.407679 -0.159469
C25   C     C_R   0.696522 0.456733 0.638601 -0.117909
C26   C     C_R   0.304230 0.543765 0.360476 -0.129670
C27   C     C_3   0.007360 0.917923 0.485992 0.240004
C28   C     C_3   0.993124 0.082573 0.513598 0.239959
C29   C     C_3   0.930301 0.003385 0.407300 -0.197789
C30   C     C_3   0.070192 0.997074 0.592260 -0.198527
C31   C     C_3   0.877037 0.002422 0.497888 -0.001489
C32   C     C_3   0.123232 0.997918 0.501782 0.000031
C33   C     C_3   0.954090 0.917198 0.574823 0.226888
C34   C     C_R   0.490978 0.707901 0.822579 -0.141851
C35   C     C_3   0.046490 0.083258 0.424780 0.227154
C36   C     C_R   0.454664 0.187453 0.203494 -0.026173
C37   C     C_R   0.511382 0.812600 0.795401 -0.029316
C38   C     C_R   0.412683 0.215254 0.024058 0.053295
C39   C     C_R   0.488989 0.785127 0.967183 0.050476
C40   C     C_R   0.429491 0.149685 0.127220 -0.130378
C41   C     C_R   0.510866 0.850966 0.867666 -0.134474
C42   C     C_3   0.902282 0.778947 0.448712 -0.001625
C43   C     C_3   0.919943 0.675823 0.457021 -0.373873
C44   C     C_3   0.098733 0.220998 0.551642 -0.002770
C45   C     C_R   0.436291 0.358889 0.075023 0.005439
C46   C     C_3   0.081660 0.323902 0.544293 -0.373761
C47   C     C_3   0.989590 0.772303 0.718713 -0.004731
C48   C     C_3   0.921955 0.671556 0.788968 -0.370010
C49   C     C_3   0.015965 0.229811 0.281424 -0.006467
C50   C     C_3   0.086763 0.325825 0.207023 -0.371191
C51   C     C_2   0.399809 0.171080 0.947499 0.566796
C52   C     C_2   0.482892 0.831619 0.038038 0.570942
C53   C     C_R   0.463829 0.639285 0.919862 0.008156
C54   C     C_R   0.414540 0.320600 0.997339 0.025128
C55   C     C_R   0.468912 0.678104 0.994648 0.025309
C56   C     C_R   0.439738 0.464652 0.048551 0.036080
Cu1   Cu    Cu3+1 0.465750 0.918270 0.475680 0.968398
Cu2   Cu    Cu3+1 0.534250 0.081730 0.524320 0.966847
H1    H     H_    0.870413 0.006124 0.333539 0.108067
H2    H     H_    0.334813 0.399902 0.381528 0.093082
H3    H     H_    0.364132 0.362183 0.833756 0.161232
H4    H     H_    0.465101 0.634034 0.155682 0.167431
H5    H     H_    0.499986 0.681083 0.766784 0.130982
H6    H     H_    0.484520 0.317428 0.237905 0.131068
H7    H     H_    0.523083 0.932547 0.845606 0.162308
H8    H     H_    0.428004 0.069308 0.148014 0.163014
H9    H     H_    0.385851 0.538681 0.789381 0.107372
H10   H     H_    0.435814 0.457779 0.200456 0.101426
H11   H     H_    0.779817 0.458079 0.697294 0.107962
H12   H     H_    0.130240 0.994237 0.666006 0.107925
H13   H     H_    0.221280 0.542601 0.301476 0.114965
H14   H     H_    0.861035 0.822988 0.368584 0.143357
H15   H     H_    0.831118 0.765594 0.500002 0.165318
H16   H     H_    0.958273 0.629243 0.536973 0.153279
H17   H     H_    0.824112 0.635124 0.433919 0.112995
H18   H     H_    0.989987 0.685908 0.406417 0.160042
H19   H     H_    0.169936 0.234610 0.500285 0.164235
H20   H     H_    0.139716 0.176380 0.631669 0.143857
H21   H     H_    0.011646 0.313526 0.595036 0.158839
H22   H     H_    0.177671 0.364089 0.567838 0.113457
H23   H     H_    0.565614 0.724495 0.545570 0.129499
H24   H     H_    0.043595 0.371117 0.464504 0.154493
H25   H     H_    0.052194 0.812890 0.766267 0.143270
H26   H     H_    0.052616 0.755415 0.678501 0.166941
H27   H     H_    0.861300 0.628084 0.743777 0.142511
H28   H     H_    0.996631 0.625803 0.845163 0.106576
H29   H     H_    0.857956 0.685338 0.830530 0.171637
H30   H     H_    0.960213 0.252811 0.321756 0.168836
H31   H     H_    0.946444 0.188694 0.236986 0.138279
H32   H     H_    0.143548 0.305588 0.165320 0.173042
H33   H     H_    0.014290 0.374029 0.151123 0.105350
H34   H     H_    0.434308 0.275450 0.454387 0.128848
H35   H     H_    0.155023 0.369851 0.248847 0.142646
H36   H     H_    0.454491 0.182573 0.819453 0.340631
H37   H     H_    0.390041 0.831875 0.143447 0.344869
H38   H     H_    0.256184 0.856783 0.327974 0.149854
H39   H     H_    0.743791 0.143239 0.672048 0.150851
H40   H     H_    0.811236 0.291057 0.719348 0.101552
H41   H     H_    0.188984 0.709175 0.280329 0.111671
H42   H     H_    0.666162 0.600680 0.617398 0.096975
N1    N     N_R   0.585750 0.204560 0.560800 -0.238935
N2    N     N_R   0.414250 0.795440 0.439200 -0.236449
O1    O     O_R   0.454850 0.022100 0.338110 -0.511712
O2    O     O_3   0.975567 0.169793 0.523944 -0.546276
O3    O     O_3   0.893526 0.830598 0.649747 -0.560208
O4    O     O_3   0.109301 0.168837 0.350303 -0.561182
O5    O     O_2   0.331772 0.088422 0.958938 -0.504959
O6    O     O_R   0.470324 0.221104 0.865275 -0.710023
O7    O     O_2   0.560735 0.907333 0.038862 -0.504167
O8    O     O_R   0.384594 0.792363 0.100056 -0.712406
O9    O     O_R   0.545150 0.977900 0.661890 -0.511674
O10   O     O_R   0.512700 0.160150 0.379180 -0.506532
O11   O     O_R   0.487300 0.839850 0.620820 -0.506436
O12   O     O_R   0.287930 0.931000 0.479440 -0.463634
O13   O     O_R   0.712070 0.069000 0.520560 -0.462074
O14   O     O_R   0.345780 0.069050 0.520520 -0.510682
O15   O     O_R   0.654220 0.930950 0.479480 -0.507943
O16   O     O_3   0.025278 0.830734 0.475786 -0.546126

loop_
_geom_bond_atom_site_label_1
_geom_bond_atom_site_label_2
_ccdc_geom_bond_type
C30   C32   S    
C23   C45   A    
C7    H40   S    
C27   C29   S    
C34   C37   A    
C14   C18   A    
C6    C55   A    
C44   O2    S    
C39   C41   A    
C27   C33   S    
C15   C19   A    
Cu1   N2    S    
H36   O6    S    
Cu2   O10   S    
C44   H19   S    
C8    H41   S    
C24   C26   A    
C1    O10   A    
C46   H21   S    
C11   C14   A    
C13   H23   S    
C12   C37   S    
C19   C26   A    
C36   C40   A    
C46   H24   S    
C11   H34   S    
C50   H32   S    
C39   C55   A    
C20   C24   A    
C28   C35   S    
C51   O6    S    
C47   O3    S    
C22   C25   A    
C31   C33   S    
C10   H38   S    
C1    O1    A    
C17   O15   A    
C43   H16   S    
C39   C52   S    
C40   H8    S    
C21   C22   A    
C4    C56   A    
Cu2   O14   S    
C26   H13   S    
C49   H30   S    
C18   C25   A    
C51   O5    D    
C16   O14   A    
C30   H12   S    
C44   C46   S    
C53   C55   A    
C43   H17   S    
Cu1   O1    S    
C8    C19   A    
C22   H42   S    
Cu2   O9    S    
C32   C35   S    
C14   C20   A    
C5    C54   A    
C10   N2    A    
C33   O3    S    
C45   C56   A    
C4    C6    A    
C4    H10   S    
C42   O16   S    
Cu1   O11   S    
C38   C51   S    
H37   O8    S    
C28   O2    S    
C47   C48   S    
C38   C54   A    
C52   O8    S    
C24   H2    S    
C7    C18   A    
C42   H14   S    
C48   H29   S    
C5    H3    S    
C11   N1    A    
Cu2   N1    S    
C47   H26   S    
Cu1   O12   S    
C8    C10   A    
C23   H6    S    
C45   C54   A    
C23   C36   A    
C47   H25   S    
C13   C15   A    
Cu2   O13   S    
C17   C31   S    
C48   H28   S    
C25   H11   S    
C42   C43   S    
C17   O13   A    
Cu1   O15   S    
C12   O11   A    
C27   O16   S    
C43   H18   S    
C7    C9    A    
C42   H15   S    
C9    H39   S    
C30   C33   S    
C27   C32   S    
C28   C31   S    
C3    H9    S    
C49   H31   S    
C3    C5    A    
C2    C53   A    
C16   O12   A    
C41   H7    S    
C50   H35   S    
C49   O4    S    
C16   C32   S    
C29   C35   S    
C6    H4    S    
C44   H20   S    
C2    C3    A    
C29   C31   S    
C35   O4    S    
C2    C56   A    
C38   C40   A    
Cu1   Cu2   S    
C52   O7    D    
C28   C30   S    
C34   H5    S    
C37   C41   A    
C50   H33   S    
C15   C21   A    
C20   C21   A    
C34   C53   A    
C9    N1    A    
C49   C50   S    
C29   H1    S    
C48   H27   S    
C46   H22   S    
C13   N2    A    
C12   O9    A    
C1    C36   S    
