data_mof_unit_63041.cif
_audit_creation_date              2012-12-10T17:06:03-0500
_audit_creation_method            fapswitch 2.2
_symmetry_space_group_name_H-M    P1
_symmetry_Int_Tables_number       1
_space_group_crystal_system       triclinic
_cell_length_a                    11.547426
_cell_length_b                    10.749841
_cell_length_c                    10.03563
_cell_angle_alpha                 89.712383
_cell_angle_beta                  89.73845
_cell_angle_gamma                 90.292265
_cell_volume                      1245.70776418

loop_
_atom_site_label
_atom_site_type_symbol
_atom_type_description
_atom_site_fract_x
_atom_site_fract_y
_atom_site_fract_z
_atom_type_partial_charge
C1    C     C_R   0.503250 0.262850 0.499928 0.936294
C2    C     C_1   0.161475 0.500036 0.500543 -0.175122
C3    C     C_1   0.059305 0.500090 0.500181 0.009670
C4    C     C_1   0.940648 0.500109 0.499531 0.012737
C5    C     C_1   0.838487 0.500076 0.499301 -0.163498
C6    C     C_2   0.534162 0.937707 0.385764 -0.017250
C7    C     C_1   0.503301 0.893710 0.253967 0.255323
C8    C     C_1   0.635796 0.128024 0.302830 0.230431
C9    C     C_1   0.662927 0.636576 0.136430 0.277762
C10   C     C_2   0.529769 0.868133 0.497585 -0.407355
C11   C     C_2   0.558464 0.068916 0.399094 -0.028116
C12   C     C_2   0.504582 0.130717 0.497328 -0.392043
C13   C     C_2   0.565257 0.572986 0.924002 -0.148114
C14   C     C_2   0.572584 0.565196 0.073814 0.014105
C15   C     C_R   0.281959 0.499962 0.500226 0.902766
C16   C     C_R   0.504210 0.737639 0.499205 0.936321
C17   C     C_R   0.718032 0.500009 0.499746 0.898390
H1    H     H_    0.552785 0.908247 0.593253 0.161720
H2    H     H_    0.450468 0.083750 0.571021 0.151762
H3    H     H_    0.619717 0.640896 0.873024 0.165971
H4    H     H_    0.455699 0.431178 0.898713 0.166778
H5    H     H_    0.432720 0.457700 0.102660 0.158833
N1    N     N_2   0.501210 0.501330 0.852150 -0.191552
N2    N     N_2   0.501250 0.501360 0.147810 -0.209246
N3    N     N_1   0.478109 0.859805 0.148673 -0.212393
N4    N     N_1   0.697399 0.174991 0.226213 -0.196508
N5    N     N_1   0.735656 0.694287 0.186056 -0.210796
O1    O     O_R   0.499980 0.319060 0.613040 -0.613040
O2    O     O_R   0.500020 0.319100 0.386900 -0.603643
O3    O     O_R   0.334430 0.499990 0.613070 -0.605385
O4    O     O_R   0.334470 0.500030 0.386930 -0.609922
O5    O     O_R   0.499980 0.680900 0.613100 -0.612247
O6    O     O_R   0.500020 0.680940 0.386960 -0.602209
O7    O     O_R   0.665530 0.499970 0.613070 -0.610474
O8    O     O_R   0.665570 0.500010 0.386930 -0.604356
Zn1   Zn    Zn3+2 0.499980 0.499970 0.650990 0.959586
Zn2   Zn    Zn3+2 0.500020 0.500030 0.349010 0.974819

loop_
_geom_bond_atom_site_label_1
_geom_bond_atom_site_label_2
_ccdc_geom_bond_type
C6    C10   D    
C1    O1    A    
C11   C12   D    
C15   O4    A    
C6    C7    S    
C16   O6    A    
C16   O5    A    
C8    N4    T    
C7    N3    T    
C9    N5    T    
O3    Zn1   S    
C9    C14   S    
C1    O2    A    
C2    C3    T    
C10   C16   S    
C13   C14   S    
C2    C15   S    
O1    Zn1   S    
C1    C12   S    
C10   H1    S    
C8    C11   S    
O5    Zn1   S    
C12   H2    S    
O8    Zn2   S    
N2    Zn2   S    
O7    Zn1   S    
H4    N1    S    
H5    N2    S    
C5    C17   S    
C17   O7    A    
O2    Zn2   S    
C3    C4    S    
C13   N1    D    
C15   O3    A    
N1    Zn1   S    
C14   N2    D    
C6    C11   S    
C17   O8    A    
C13   H3    S    
O6    Zn2   S    
O4    Zn2   S    
C4    C5    T    
