data_mof_unit_17858.cif
_audit_creation_date              2012-12-11T17:09:31-0500
_audit_creation_method            fapswitch 2.2
_symmetry_space_group_name_H-M    P1
_symmetry_Int_Tables_number       1
_space_group_crystal_system       monoclinic
_cell_length_a                    14.810168
_cell_length_b                    6.926435
_cell_length_c                    13.511652
_cell_angle_alpha                 90.0
_cell_angle_beta                  99.822288
_cell_angle_gamma                 90.0
_cell_volume                      1365.73054726

loop_
_atom_site_label
_atom_site_type_symbol
_atom_type_description
_atom_site_fract_x
_atom_site_fract_y
_atom_site_fract_z
_atom_type_partial_charge
O1    O     O_R   0.586930 0.505770 0.416350 -0.538187
O2    O     O_R   0.413070 0.005770 0.583650 -0.538187
O3    O     O_R   0.397900 0.173100 0.389630 -0.536816
O4    O     O_R   0.602100 0.673100 0.610370 -0.536816
C1    C     C_R   0.364208 0.345416 0.362901 0.725066
C2    C     C_R   0.635792 0.845416 0.637099 0.725066
O5    O     O_R   0.585280 0.175870 0.404330 -0.544142
O6    O     O_R   0.414720 0.675870 0.595670 -0.544143
O7    O     O_R   0.601790 0.008380 0.598460 -0.533802
O8    O     O_R   0.398210 0.508380 0.401540 -0.533802
C3    C     C_R   0.614746 0.344779 0.382876 0.699991
C4    C     C_R   0.385254 0.844779 0.617124 0.699991
O9    O     O_3   0.505200 0.340120 0.563670 -0.368903
O10   O     O_3   0.494800 0.840120 0.436330 -0.368903
V1    V     V_3+5 0.499040 0.064180 0.488190 1.409656
V2    V     V_3+5 0.500960 0.564180 0.511810 1.409656
C5    C     C_R   0.248935 0.000652 0.673210 0.057247
C6    C     C_R   0.751065 0.500652 0.326789 0.057247
C7    C     C_R   0.314213 0.852431 0.682164 -0.106398
C8    C     C_R   0.685787 0.352431 0.317835 -0.106398
C9    C     C_R   0.306258 0.704378 0.751740 -0.179140
C10   C     C_R   0.693742 0.204378 0.248260 -0.179141
H1    H     H_    0.353781 0.584591 0.760254 0.124765
H2    H     H_    0.646219 0.084591 0.239746 0.124765
C11   C     C_R   0.240844 0.716193 0.816102 -0.178320
C12   C     C_R   0.759156 0.216193 0.183898 -0.178319
H3    H     H_    0.240007 0.604863 0.872112 0.125460
H4    H     H_    0.759993 0.104863 0.127888 0.125460
C13   C     C_R   0.181002 0.875628 0.812318 -0.137431
C14   C     C_R   0.818998 0.375628 0.187682 -0.137431
C15   C     C_R   0.183749 0.011642 0.736126 0.102748
C16   C     C_R   0.816251 0.511642 0.263874 0.102748
C17   C     C_3   0.189232 0.226940 0.740392 -0.028906
C18   C     C_3   0.810768 0.726940 0.259608 -0.028905
C19   C     C_3   0.260680 0.214369 0.671400 -0.389220
C20   C     C_3   0.739320 0.714368 0.328600 -0.389220
H5    H     H_    0.217062 0.281062 0.816931 0.137184
H6    H     H_    0.782938 0.781062 0.183069 0.137184
H7    H     H_    0.330311 0.259187 0.708427 0.150505
H8    H     H_    0.669689 0.759187 0.291573 0.150505
H9    H     H_    0.238402 0.275243 0.594960 0.171637
H10   H     H_    0.761598 0.775243 0.405040 0.171637
C21   C     C_1   0.783544 0.877099 0.782767 -0.193044
C22   C     C_1   0.216455 0.377099 0.217233 -0.193044
C23   C     C_1   0.716276 0.860118 0.716712 -0.190036
C24   C     C_1   0.283724 0.360118 0.283288 -0.190036
O11   O     O_R   0.101720 0.231700 0.098560 -0.534890
O12   O     O_R   0.898280 0.731700 0.901440 -0.534890
O13   O     O_R   0.914700 0.558980 0.095690 -0.543814
O14   O     O_R   0.085300 0.058980 0.904310 -0.543814
C25   C     C_R   0.885332 0.389713 0.117274 0.702261
C26   C     C_R   0.114668 0.889713 0.882726 0.702261
O15   O     O_R   0.102080 0.561590 0.110390 -0.538049
O16   O     O_R   0.897920 0.061590 0.889610 -0.538049
O17   O     O_R   0.086950 0.728940 0.916330 -0.537995
O18   O     O_R   0.913050 0.228940 0.083670 -0.537995
C27   C     C_R   0.136046 0.391900 0.137534 0.732844
C28   C     C_R   0.863954 0.891900 0.862466 0.732844
O19   O     O_3   0.994770 0.394510 0.936380 -0.370094
O20   O     O_3   0.005230 0.894510 0.063620 -0.370094
V3    V     V_3+5 0.000970 0.670520 0.011800 1.402956
V4    V     V_3+5 0.999030 0.170520 0.988200 1.402956
C29   C     C_3   0.099647 0.323828 0.691948 -0.735871
H11   H     H_    0.072319 0.258529 0.617704 0.202912
H12   H     H_    0.047672 0.307829 0.741619 0.222155
H13   H     H_    0.111643 0.480031 0.681301 0.217670
C30   C     C_3   0.900353 0.823828 0.308052 -0.735870
H14   H     H_    0.927681 0.758529 0.382296 0.202912
H15   H     H_    0.952328 0.807828 0.258381 0.222155
H16   H     H_    0.888358 0.980031 0.318699 0.217670

loop_
_geom_bond_atom_site_label_1
_geom_bond_atom_site_label_2
_ccdc_geom_bond_type
C14   C25   S    
C29   H12   S    
C2    C23   S    
C20   H10   S    
O1    C3    A    
O2    C4    A    
O11   V4    S    
O5    C3    A    
C10   H2    S    
C7    C9    A    
O20   V4    S    
C25   O18   A    
C21   C28   S    
C5    C7    A    
O15   V3    S    
O13   C25   A    
O14   C26   A    
C15   C17   S    
O10   V2    S    
C18   C20   S    
C26   O17   A    
C17   C29   S    
O5    V1    S    
C29   H13   S    
O6    V2    S    
C2    O7    A    
C22   C24   T    
C11   C13   A    
C3    C8    S    
O19   V3    S    
O13   V3    S    
C30   H14   S    
C20   H8    S    
O4    C2    A    
O15   C27   A    
O16   V4    S    
C17   H5    S    
O20   V3    S    
C30   H15   S    
C16   C18   S    
O4    V2    S    
C19   H7    S    
O11   C27   A    
C22   C27   S    
O6    C4    A    
O1    V2    S    
O2    V1    S    
C21   C23   T    
C8    C10   A    
C12   C14   A    
O9    V1    S    
O14   V4    S    
O18   V4    S    
C6    C16   A    
O3    V1    S    
O16   C28   A    
C9    C11   A    
O19   V4    S    
C18   H6    S    
O3    C1    A    
C18   C30   S    
O12   C28   A    
C11   H3    S    
C1    C24   S    
C12   H4    S    
C30   H16   S    
C9    H1    S    
O7    V1    S    
C1    O8    A    
C13   C15   A    
O8    V2    S    
C14   C16   A    
O12   V3    S    
C5    C15   A    
O17   V3    S    
C4    C7    S    
C17   C19   S    
C6    C8    A    
C19   H9    S    
C29   H11   S    
C10   C12   A    
O9    V2    S    
O10   V1    S    
C5    C19   S    
C6    C20   S    
C13   C26   S    
