data_mof_unit_17963.cif
_audit_creation_date              2012-12-11T16:51:16-0500
_audit_creation_method            fapswitch 2.2
_symmetry_space_group_name_H-M    P1
_symmetry_Int_Tables_number       1
_space_group_crystal_system       triclinic
_cell_length_a                    24.723124
_cell_length_b                    17.439758
_cell_length_c                    15.702305
_cell_angle_alpha                 90.440791
_cell_angle_beta                  129.328747
_cell_angle_gamma                 90.288964
_cell_volume                      5236.38414866

loop_
_atom_site_label
_atom_site_type_symbol
_atom_type_description
_atom_site_fract_x
_atom_site_fract_y
_atom_site_fract_z
_atom_type_partial_charge
C1    C     C_R   0.832578 0.895828 0.196594 0.602034
C2    C     C_R   0.167400 0.897019 0.802478 0.622471
C3    C     C_R   0.345868 0.363211 0.232138 0.668006
C4    C     C_R   0.666042 0.393083 0.799331 0.668912
C5    C     C_R   0.908505 0.139440 0.593641 -0.116416
C6    C     C_R   0.090368 0.141290 0.408050 -0.107879
C7    C     C_R   0.386589 0.603218 0.592422 -0.020216
C8    C     C_R   0.613343 0.603991 0.408042 -0.036115
C9    C     C_R   0.855215 0.178906 0.501948 0.102744
C10   C     C_R   0.138293 0.185858 0.499546 -0.003743
C11   C     C_R   0.320236 0.620700 0.502231 0.055467
C12   C     C_R   0.679934 0.622053 0.498815 0.055310
C13   C     C_R   0.862356 0.144381 0.155465 -0.292222
C14   C     C_R   0.148162 0.121654 0.868801 -0.361123
C15   C     C_R   0.383404 0.680969 0.209070 -0.327274
C16   C     C_R   0.613994 0.685129 0.783973 -0.335313
C17   C     C_R   0.839232 0.705665 0.563822 -0.032333
C18   C     C_R   0.161107 0.706211 0.432605 -0.035587
C19   C     C_R   0.296386 0.290683 0.592005 -0.028406
C20   C     C_R   0.698690 0.275217 0.423743 -0.057064
C21   C     C_R   0.811480 0.767521 0.493937 -0.219835
C22   C     C_R   0.189158 0.770227 0.501171 -0.216382
C23   C     C_R   0.270707 0.340919 0.506426 -0.171739
C24   C     C_R   0.726990 0.336568 0.496949 -0.194151
C25   C     C_R   0.742239 0.789728 0.439821 0.640920
C26   C     C_R   0.259296 0.791691 0.558411 0.639324
C27   C     C_R   0.198169 0.351298 0.425781 0.670685
C28   C     C_R   0.799241 0.350610 0.570362 0.682374
C29   C     C_R   0.151641 0.304266 0.426104 0.381675
C30   C     C_R   0.843691 0.300504 0.570645 0.356144
C31   C     C_R   0.697997 0.741400 0.441522 0.389999
C32   C     C_R   0.303662 0.741455 0.560323 0.383592
C33   C     C_R   0.179879 0.247094 0.506359 -0.151243
C34   C     C_R   0.813632 0.235875 0.500140 -0.154789
C35   C     C_R   0.725027 0.671912 0.498688 -0.191477
C36   C     C_R   0.275866 0.670735 0.503438 -0.193937
C37   C     C_R   0.251947 0.244020 0.591415 -0.187371
C38   C     C_R   0.741295 0.224924 0.425621 -0.047795
C39   C     C_R   0.796540 0.658223 0.567470 -0.041341
C40   C     C_R   0.204014 0.656864 0.432548 -0.034014
C41   C     C_3   0.838015 0.588419 0.584960 0.774015
C42   C     C_3   0.161219 0.587750 0.415696 0.760337
C43   C     C_3   0.302026 0.177484 0.638924 0.761602
C44   C     C_3   0.696635 0.156492 0.406913 0.722566
C45   C     C_R   0.091511 0.859658 0.408531 0.823157
C46   C     C_R   0.909537 0.858057 0.589353 0.823030
C47   C     C_R   0.613855 0.396295 0.409783 0.883607
C48   C     C_R   0.387790 0.393788 0.591545 0.836652
C49   C     C_3   0.884846 0.642017 0.578453 0.678875
C50   C     C_3   0.114006 0.643412 0.417789 0.686859
C51   C     C_3   0.351828 0.230155 0.639401 0.714885
C52   C     C_3   0.648978 0.213508 0.404504 0.703667
C53   C     C_2   0.200512 0.868435 0.985858 0.672057
C54   C     C_2   0.799645 0.870474 0.011834 0.648203
C55   C     C_2   0.692958 0.344945 0.969854 0.665829
C56   C     C_2   0.344512 0.250952 0.126439 0.623104
C57   C     C_2   0.248159 0.815873 0.013218 -0.229117
C58   C     C_2   0.750125 0.818443 0.979794 -0.226912
C59   C     C_2   0.726948 0.283564 0.975909 -0.235179
C60   C     C_2   0.306841 0.203443 0.139036 -0.288384
C61   C     C_2   0.825208 0.200931 0.070997 0.753788
C62   C     C_2   0.192467 0.158795 0.978595 0.767987
C63   C     C_2   0.353582 0.745445 0.134114 0.733788
C64   C     C_2   0.641439 0.753295 0.854347 0.733342
C65   C     C_2   0.786413 0.250379 0.077317 0.367949
C66   C     C_2   0.260984 0.143529 0.055742 0.407306
C67   C     C_2   0.305557 0.789342 0.124526 0.400929
C68   C     C_2   0.691192 0.795727 0.866265 0.411432
C69   C     C_R   0.164604 0.860263 0.592654 -0.096952
C70   C     C_R   0.836561 0.858283 0.405429 -0.097482
C71   C     C_R   0.686331 0.393216 0.592623 -0.161606
C72   C     C_R   0.313287 0.393042 0.408813 -0.130670
C73   C     C_R   0.079117 0.900709 0.806269 0.791685
C74   C     C_R   0.921138 0.900427 0.193542 0.798815
C75   C     C_R   0.576853 0.394552 0.801942 0.757576
C76   C     C_R   0.436116 0.361917 0.232131 0.724349
C77   C     C_R   0.850827 0.883799 0.130860 -0.499590
C78   C     C_R   0.149277 0.884262 0.867981 -0.511711
C79   C     C_R   0.374965 0.322273 0.194366 -0.476552
C80   C     C_R   0.646037 0.376271 0.861224 -0.533487
C81   C     C_R   0.144539 0.820606 0.500638 -0.061425
C82   C     C_R   0.856932 0.817819 0.495893 -0.062969
C83   C     C_R   0.679691 0.377560 0.501098 -0.048457
C84   C     C_R   0.321087 0.374572 0.500829 -0.082677
C85   C     C_R   0.834498 0.138703 0.410005 0.518849
C86   C     C_R   0.157681 0.145790 0.589910 0.553509
C87   C     C_R   0.312271 0.601794 0.410416 0.583822
C88   C     C_R   0.687975 0.602666 0.590133 0.591532
C89   C     C_R   0.928369 0.117527 0.208904 0.713398
C90   C     C_R   0.077147 0.106521 0.802603 0.732951
C91   C     C_R   0.441047 0.639338 0.241525 0.778973
C92   C     C_R   0.557535 0.641664 0.754412 0.780958
C93   C     C_R   0.167714 0.099670 0.807220 0.510418
C94   C     C_R   0.836674 0.111624 0.202587 0.464043
C95   C     C_R   0.648771 0.641342 0.758149 0.408058
C96   C     C_R   0.349807 0.638379 0.238031 0.414399
H1    H     H_    0.243184 0.787162 0.946585 0.166048
H2    H     H_    0.754095 0.787608 0.043724 0.168687
H3    H     H_    0.711526 0.257612 0.899765 0.163206
H4    H     H_    0.301907 0.214437 0.201976 0.183890
H5    H     H_    0.207839 0.848020 0.677508 0.231254
H6    H     H_    0.793377 0.845151 0.320258 0.234890
H7    H     H_    0.733186 0.390727 0.677618 0.253393
H8    H     H_    0.264851 0.394765 0.325474 0.268442
H9    H     H_    0.933170 0.152495 0.678490 0.232771
H10   H     H_    0.068836 0.153035 0.324891 0.238550
H11   H     H_    0.405814 0.601373 0.676212 0.228855
H12   H     H_    0.593756 0.602493 0.324008 0.228468
N1    N     N_R   0.888400 0.921830 0.294620 -0.164014
N2    N     N_R   0.111600 0.921830 0.705380 -0.171286
N3    N     N_R   0.388400 0.421830 0.294620 -0.153979
N4    N     N_R   0.611600 0.421830 0.705380 -0.148116
N5    N     N_R   0.079940 0.922160 0.443410 -0.133311
N6    N     N_R   0.920060 0.922160 0.556590 -0.128234
N7    N     N_R   0.579940 0.422160 0.443410 -0.147258
N8    N     N_R   0.420060 0.422160 0.556590 -0.143449
N9    N     N_R   0.125650 0.922400 0.556620 -0.094699
N10   N     N_R   0.874350 0.922400 0.443380 -0.093400
N11   N     N_R   0.625650 0.422400 0.556620 -0.113883
N12   N     N_R   0.374350 0.422400 0.443380 -0.119106
N13   N     N_R   0.054230 0.922730 0.705400 -0.181783
N14   N     N_R   0.945770 0.922730 0.294600 -0.177554
N15   N     N_R   0.554230 0.422730 0.705400 -0.158650
N16   N     N_R   0.445770 0.422730 0.294600 -0.153619
N17   N     N_R   0.873790 0.077030 0.443380 -0.123149
N18   N     N_R   0.126210 0.077030 0.556620 -0.090355
N19   N     N_R   0.373790 0.577030 0.443380 -0.142627
N20   N     N_R   0.626210 0.577030 0.556620 -0.142925
N21   N     N_R   0.945200 0.076700 0.294600 -0.164190
N22   N     N_R   0.054800 0.076700 0.705400 -0.166673
N23   N     N_R   0.445200 0.576700 0.294600 -0.152747
N24   N     N_R   0.554800 0.576700 0.705400 -0.157949
N25   N     N_R   0.111030 0.077600 0.705380 -0.168668
N26   N     N_R   0.888970 0.077600 0.294620 -0.165270
N27   N     N_R   0.611030 0.577600 0.705380 -0.159849
N28   N     N_R   0.388970 0.577600 0.294620 -0.156552
N29   N     N_R   0.919490 0.077280 0.556590 -0.079196
N30   N     N_R   0.080510 0.077280 0.443410 -0.082871
N31   N     N_R   0.419490 0.577280 0.556590 -0.106540
N32   N     N_R   0.580510 0.577280 0.443410 -0.106953
Ni1   Ni    Ni4+2 0.882160 0.999430 0.370180 0.238772
Ni2   Ni    Ni4+2 0.117840 0.999430 0.629820 0.271435
Ni3   Ni    Ni4+2 0.382160 0.499430 0.370180 0.211884
Ni4   Ni    Ni4+2 0.617840 0.499430 0.629820 0.221701
Ni5   Ni    Ni4+2 0.012460 0.999430 0.370180 0.317848
Ni6   Ni    Ni4+2 0.987540 0.999430 0.629820 0.319744
Ni7   Ni    Ni4+2 0.512460 0.499430 0.370180 0.295112
Ni8   Ni    Ni4+2 0.487540 0.499430 0.629820 0.300068
F1    F     F_    0.766058 0.904167 0.158389 -0.668822
F2    F     F_    0.233859 0.908076 0.840891 -0.647086
F3    F     F_    0.281137 0.352214 0.200403 -0.669453
F4    F     F_    0.732823 0.399095 0.837590 -0.672472
O1    O     O_3   0.079910 0.309613 0.346811 -0.704187
H13   H     H_    0.068690 0.352791 0.297565 0.379017
O2    O     O_3   0.915406 0.311133 0.640559 -0.695741
H14   H     H_    0.927722 0.359603 0.682904 0.379186
O3    O     O_3   0.629166 0.760283 0.389301 -0.674889
H15   H     H_    0.618443 0.810401 0.352793 0.396238
O4    O     O_3   0.373330 0.759764 0.615586 -0.671446
H16   H     H_    0.384487 0.810945 0.651266 0.398528
O5    O     O_3   0.871861 0.558096 0.689900 -0.579285
H17   H     H_    0.906607 0.521347 0.702084 0.357078
O6    O     O_3   0.128446 0.553176 0.312412 -0.584274
H18   H     H_    0.094274 0.515512 0.301568 0.355363
O7    O     O_3   0.326665 0.158922 0.744848 -0.623585
H19   H     H_    0.361417 0.117777 0.771175 0.360080
O8    O     O_3   0.664281 0.120163 0.304815 -0.658660
H20   H     H_    0.633851 0.079031 0.298125 0.360942
O9    O     O_3   0.800793 0.531702 0.501212 -0.708255
H21   H     H_    0.765976 0.556953 0.429572 0.297814
O10   O     O_3   0.196837 0.534031 0.501501 -0.725604
H22   H     H_    0.231016 0.561704 0.572556 0.298662
O11   O     O_3   0.277906 0.112096 0.569446 -0.709199
H23   H     H_    0.247970 0.128770 0.491723 0.302347
O12   O     O_3   0.730089 0.103614 0.493919 -0.705660
H24   H     H_    0.763977 0.131625 0.564773 0.304246
O13   O     O_3   0.953348 0.650685 0.677642 -0.652702
H25   H     H_    0.979136 0.604938 0.683390 0.343766
O14   O     O_3   0.046311 0.649502 0.316822 -0.649215
H26   H     H_    0.019705 0.604083 0.310866 0.345179
O15   O     O_3   0.412552 0.250769 0.745263 -0.601869
H27   H     H_    0.444435 0.206498 0.772348 0.350567
O16   O     O_3   0.582888 0.220507 0.300854 -0.602196
H28   H     H_    0.554531 0.176052 0.292349 0.349607
O17   O     O_3   0.883054 0.628958 0.487813 -0.718513
H29   H     H_    0.835084 0.638504 0.418738 0.301331
O18   O     O_3   0.113635 0.634803 0.506772 -0.723485
H30   H     H_    0.161233 0.646092 0.576624 0.299040
O19   O     O_3   0.366862 0.206195 0.570301 -0.747007
H31   H     H_    0.323184 0.206700 0.492629 0.299520
O20   O     O_3   0.644521 0.205491 0.489365 -0.739644
H32   H     H_    0.691483 0.214608 0.561472 0.307323
O21   O     O_3   0.799026 0.261848 0.176040 -0.692936
H33   H     H_    0.753426 0.267226 0.159693 0.408088
O22   O     O_3   0.288331 0.075516 0.053272 -0.663093
H34   H     H_    0.339226 0.076176 0.116246 0.365075
O23   O     O_3   0.304649 0.795573 0.211573 -0.680323
H35   H     H_    0.255921 0.803433 0.181784 0.400302
O24   O     O_3   0.693236 0.800459 0.780337 -0.677761
H36   H     H_    0.742188 0.809208 0.811088 0.401645
F5    F     F_    0.821020 0.194470 0.980463 -0.625841
F6    F     F_    0.165021 0.220158 0.993000 -0.621453
F7    F     F_    0.363261 0.748404 0.057837 -0.623358
F8    F     F_    0.630240 0.759462 0.928712 -0.617323
O25   O     O_3   0.203135 0.909212 0.064170 -0.686781
H37   H     H_    0.167530 0.949914 0.026221 0.373434
O26   O     O_3   0.798534 0.913453 0.937236 -0.677451
H38   H     H_    0.835490 0.953599 0.978715 0.385450
O27   O     O_3   0.708952 0.382424 0.061278 -0.680881
H39   H     H_    0.679604 0.428800 0.035826 0.363839
O28   O     O_3   0.350066 0.234674 0.045927 -0.655827
H40   H     H_    0.372846 0.279025 0.040493 0.382733
F9    F     F_    0.065831 0.845945 0.303851 -0.594110
F10   F     F_    0.934903 0.844013 0.693409 -0.593077
F11   F     F_    0.594845 0.409387 0.309089 -0.600557
F12   F     F_    0.409219 0.405868 0.694188 -0.593290
F13   F     F_    0.046911 0.915674 0.849198 -0.571071
F14   F     F_    0.953902 0.916256 0.151778 -0.574295
F15   F     F_    0.542972 0.401056 0.843456 -0.580774
F16   F     F_    0.478248 0.343308 0.208343 -0.595710
O29   O     O_3   0.773949 0.150213 0.305596 -0.666737
H41   H     H_    0.751841 0.098847 0.278440 0.366492
O30   O     O_3   0.200154 0.173062 0.696261 -0.701766
H42   H     H_    0.201945 0.229791 0.695004 0.349364
O31   O     O_3   0.248710 0.581601 0.312395 -0.641048
H43   H     H_    0.257079 0.537249 0.282514 0.320274
O32   O     O_3   0.751390 0.583177 0.687345 -0.639879
H44   H     H_    0.742453 0.539400 0.716898 0.329784
F17   F     F_    0.961769 0.114801 0.166227 -0.610247
F18   F     F_    0.040866 0.101302 0.840280 -0.612622
F19   F     F_    0.481379 0.654337 0.213020 -0.623143
F20   F     F_    0.517059 0.657656 0.782291 -0.618944
O33   O     O_3   0.235186 0.082822 0.851236 -0.568711
H45   H     H_    0.232775 0.052077 0.795512 0.383890
O34   O     O_3   0.767374 0.091299 0.141361 -0.681908
H46   H     H_    0.765738 0.042993 0.172255 0.363839
O35   O     O_3   0.718658 0.649144 0.810038 -0.683377
H47   H     H_    0.738502 0.597278 0.835339 0.347410
O36   O     O_3   0.279786 0.643126 0.185790 -0.682316
H48   H     H_    0.260988 0.590110 0.162543 0.338528
F21   F     F_    0.718242 0.857760 0.386664 -0.656748
F22   F     F_    0.284141 0.860633 0.611861 -0.649636
F23   F     F_    0.173193 0.402008 0.343747 -0.660510
F24   F     F_    0.825888 0.408600 0.645348 -0.652409

loop_
_geom_bond_atom_site_label_1
_geom_bond_atom_site_label_2
_ccdc_geom_bond_type
C2    F2    S    
O10   H22   S    
C48   F12   S    
C26   C32   A    
O3    H15   S    
C41   O5    S    
C27   C29   A    
C49   O17   S    
C1    C77   A    
O9    H21   S    
C26   F22   S    
C85   N17   A    
O36   H48   S    
C58   H2    S    
C76   C79   A    
N10   Ni1   S    
C3    C79   A    
C87   N19   A    
O5    H17   S    
C89   N21   A    
C39   C41   S    
C5    H9    S    
O15   H27   S    
C47   N7    A    
O21   H33   S    
C18   C50   S    
N25   Ni2   S    
O7    H19   S    
C56   C79   S    
C63   F7    S    
N9    Ni2   S    
C68   O24   S    
C75   N15   A    
C64   C68   D    
C11   C36   S    
C92   N24   A    
C24   C83   S    
C70   N10   A    
C4    C80   A    
N28   Ni3   S    
C55   C59   D    
N2    N13   A    
C95   O35   S    
N8    N12   A    
N1    N14   A    
C88   O32   S    
C91   N23   A    
C92   F20   S    
N30   Ni5   S    
C14   C62   S    
C29   C33   A    
C59   H3    S    
C69   H5    S    
O27   H39   S    
C17   C39   A    
N14   Ni5   S    
N5    Ni5   S    
N2    Ni2   S    
O32   H44   S    
C18   C40   A    
C62   F6    S    
C71   H7    S    
C19   C37   A    
C9    C85   A    
C43   C51   S    
C46   C82   A    
C71   C83   A    
C10   C86   A    
O4    H16   S    
C11   C87   A    
C46   F10   S    
C74   C77   A    
C47   F11   S    
C53   O25   S    
O34   H46   S    
C52   O16   S    
N23   Ni7   S    
C47   C83   A    
C8    C12   A    
C31   O3    S    
C75   C80   A    
C14   C93   A    
N21   Ni5   S    
C51   O19   S    
N3    Ni3   S    
C48   N8    A    
C54   C77   S    
C61   F5    S    
C44   C52   S    
C40   C42   S    
C64   F8    S    
C60   C66   S    
O24   H36   S    
C18   C22   A    
O35   H47   S    
N11   Ni4   S    
C72   N12   A    
O19   H31   S    
N12   Ni3   S    
N19   N31   A    
C57   C67   S    
C30   O2    S    
C50   O18   S    
C8    H12   S    
N32   Ni7   S    
C41   C49   S    
C7    C11   A    
C49   O13   S    
C43   O7    S    
C93   O33   S    
N22   Ni6   S    
C4    F4    S    
N16   Ni7   S    
C63   C67   D    
N31   Ni8   S    
C72   C84   A    
C23   C84   S    
C30   C34   A    
O26   H38   S    
C76   N16   A    
C22   C81   S    
C67   O23   S    
N29   Ni6   S    
C36   C40   A    
C51   O15   S    
N6    Ni6   S    
O30   H42   S    
C96   N28   A    
N23   N28   A    
C42   O10   S    
N17   Ni1   S    
O8    H20   S    
N8    Ni8   S    
C62   C66   D    
C42   O6    S    
C3    N3    A    
C73   N13   A    
C1    N1    A    
O22   H34   S    
C72   H8    S    
C87   O31   S    
O25   H37   S    
C41   O9    S    
N18   Ni2   S    
C33   C37   A    
C48   C84   A    
N7    N11   A    
C91   F19   S    
C52   O20   S    
N24   Ni8   S    
C6    N30   A    
C35   C39   A    
O16   H28   S    
C38   C44   S    
O29   H41   S    
C2    C78   A    
C19   C51   S    
C55   O27   S    
C20   C38   A    
C45   F9    S    
O28   H40   S    
C75   F15   S    
C73   C78   A    
C44   O12   S    
C57   H1    S    
C74   F14   S    
C95   N27   A    
O31   H43   S    
C6    H10   S    
C73   F13   S    
N19   Ni3   S    
C45   N5    A    
N15   Ni8   S    
C12   C35   S    
C1    F1    S    
N20   Ni4   S    
N6    N10   A    
N4    N15   A    
N5    N9    A    
C58   C68   S    
N27   Ni4   S    
C74   N14   A    
C42   C50   S    
C16   C92   A    
C23   C27   A    
C54   O26   S    
C9    C34   S    
C96   O36   S    
C7    H11   S    
C37   C43   S    
N22   N25   A    
C86   O30   S    
C17   C49   S    
C32   C36   A    
C15   C96   A    
C19   C23   A    
C29   O1    S    
C56   O28   S    
C54   C58   D    
C44   O8    S    
O20   H32   S    
C21   C25   A    
N18   N30   A    
C16   C95   A    
C53   C57   D    
C13   C89   A    
N3    N16   A    
C34   C38   A    
C3    F3    S    
C25   C31   A    
C45   C81   A    
C24   C28   A    
C46   N6    A    
C5    C9    A    
C60   H4    S    
C27   F23   S    
C6    C10   A    
C61   C65   D    
C70   H6    S    
C5    N29   A    
C25   F21   S    
C16   C64   S    
C93   N25   A    
C71   N11   A    
C13   C94   A    
C8    N32   A    
N7    Ni7   S    
N17   N29   A    
C86   N18   A    
C32   O4    S    
C28   C30   A    
C53   C78   S    
N20   N32   A    
O18   H30   S    
C88   N20   A    
O12   H24   S    
C59   C65   S    
N26   Ni1   S    
C7    N31   A    
C55   C80   S    
C43   O11   S    
N4    Ni4   S    
O17   H29   S    
C76   F16   S    
N24   N27   A    
C69   N9    A    
C94   N26   A    
C56   C60   D    
C50   O14   S    
C10   C33   S    
C31   C35   A    
C65   O21   S    
C4    N4    A    
O23   H35   S    
C70   C82   A    
C17   C21   A    
N21   N26   A    
O6    H18   S    
C69   C81   A    
C94   O34   S    
C66   O22   S    
C15   C91   A    
O14   H26   S    
C90   N22   A    
C14   C90   A    
C13   C61   S    
C21   C82   S    
C20   C52   S    
O13   H25   S    
C22   C26   A    
O2    H14   S    
C15   C63   S    
N13   Ni6   S    
C90   F18   S    
N1    Ni1   S    
C28   F24   S    
C89   F17   S    
O1    H13   S    
O11   H23   S    
C85   O29   S    
C20   C24   A    
C12   C88   A    
O33   H45   S    
C2    N2    A    
