data_mof_unit_5398.cif
_audit_creation_date              2012-12-11T19:09:16-0500
_audit_creation_method            fapswitch 2.2
_symmetry_space_group_name_H-M    P1
_symmetry_Int_Tables_number       1
_space_group_crystal_system       triclinic
_cell_length_a                    8.197714
_cell_length_b                    15.061892
_cell_length_c                    26.989022
_cell_angle_alpha                 98.540759
_cell_angle_beta                  92.906185
_cell_angle_gamma                 81.149347
_cell_volume                      3254.89995681

loop_
_atom_site_label
_atom_site_type_symbol
_atom_type_description
_atom_site_fract_x
_atom_site_fract_y
_atom_site_fract_z
_atom_type_partial_charge
Ba1   Ba    Ba6+2 0.860050 0.456430 0.522540 1.640264
Ba2   Ba    Ba6+2 0.329780 0.543490 0.477450 1.633417
C1    C     C_3   0.693929 0.135169 0.649453 -0.369265
C2    C     C_R   0.925913 0.587887 0.181062 0.567934
C3    C     C_2   0.748061 0.546610 0.269750 0.022140
C4    C     C_3   0.189534 0.255834 0.655020 0.288503
C5    C     C_3   0.724754 0.580560 0.325332 -0.033966
C6    C     C_1   0.984490 0.484398 0.342215 0.041362
C7    C     C_2   0.028728 0.480852 0.294794 -0.123688
C8    C     C_2   0.904692 0.511333 0.255011 0.216666
C9    C     C_R   0.040695 0.506425 0.102511 -0.080220
C10   C     C_R   0.076045 0.427354 0.125645 -0.037289
C11   C     C_R   0.153431 0.347528 0.097605 -0.062090
C12   C     C_3   0.686451 0.226584 0.631285 0.344917
C13   C     C_R   0.965609 0.587117 0.130683 -0.027932
C14   C     C_2   0.842987 0.529919 0.359497 -0.310103
C15   C     C_2   0.355636 0.479448 0.640821 -0.283800
C16   C     C_3   0.154632 0.238852 0.707269 -0.339997
C17   C     C_R   0.206242 0.423959 0.972858 0.019515
C18   C     C_R   0.066802 0.581751 0.976020 0.020077
C19   C     C_R   0.155034 0.502200 0.948981 0.050153
C20   C     C_R   0.301091 0.348276 0.944905 -0.100342
C21   C     C_R   0.340429 0.348694 0.895253 -0.060814
C22   C     C_R   0.286297 0.424246 0.870801 -0.030654
C23   C     C_3   0.483642 0.685745 0.631927 0.299963
C24   C     C_R   0.192640 0.501015 0.897530 -0.077968
C25   C     C_R   0.137248 0.576824 0.872891 -0.033954
C26   C     C_R   0.175206 0.574828 0.822068 0.590271
C27   C     C_R   0.324744 0.424584 0.820211 0.577992
C28   C     C_3   0.218383 0.265114 0.412671 0.312130
C29   C     C_2   0.465817 0.481709 0.728834 -0.072870
C30   C     C_3   0.506080 0.486891 0.675091 -0.052141
C31   C     C_1   0.210348 0.519086 0.657451 0.039301
C32   C     C_2   0.172603 0.519886 0.704961 -0.104368
C33   C     C_2   0.306765 0.498725 0.743673 0.201876
C34   C     C_3   0.454726 0.721120 0.687057 -0.370992
C35   C     C_R   0.162051 0.424085 0.023599 0.019376
C36   C     C_R   0.080000 0.504960 0.051174 0.049497
C37   C     C_R   0.036466 0.584520 0.027959 0.019905
C38   C     C_R   0.195954 0.345844 0.047960 -0.100179
C39   C     C_R   0.930863 0.665990 0.107987 -0.063222
C40   C     C_3   0.241495 0.162548 0.397773 -0.381408
C41   C     C_R   0.010335 0.655895 0.949778 -0.101019
C42   C     C_R   0.044797 0.653329 0.899543 -0.061864
C43   C     C_R   0.965000 0.664850 0.057926 -0.102686
C44   C     C_R   0.350843 0.175640 0.533815 -0.009195
C45   C     C_3   0.039867 0.734576 0.344505 0.336486
C46   C     C_R   0.576358 0.209239 0.488823 0.067514
C47   C     C_R   0.756209 0.770608 0.483757 -0.294709
C48   C     C_R   0.846441 0.829531 0.466155 0.018338
C49   C     C_R   0.788088 0.922625 0.471780 -0.147190
C50   C     C_R   0.638248 0.958461 0.496633 0.011061
C51   C     C_R   0.554364 0.897408 0.517740 -0.014551
C52   C     C_3   0.977920 0.734736 0.586063 0.307227
C53   C     C_R   0.571009 0.052789 0.502524 0.007977
C54   C     C_R   0.421471 0.083345 0.528966 -0.019286
C55   C     C_R   0.345415 0.021417 0.549953 -0.105838
C56   C     C_3   0.058798 0.757076 0.292189 -0.300088
C57   C     C_R   0.411524 0.930915 0.545083 -0.049413
C58   C     C_R   0.644451 0.117608 0.481917 -0.132826
C59   C     C_R   0.432696 0.237993 0.515463 -0.289979
C60   C     C_R   0.616048 0.803816 0.511411 0.025716
C61   C     C_3   0.954987 0.837303 0.600985 -0.385217
C62   C     C_3   0.694039 0.341477 0.371508 0.301369
C63   C     C_3   0.697238 0.317847 0.314760 -0.363783
C64   C     C_3   0.605167 0.561562 0.232668 -0.295641
C65   C     C_3   0.496933 0.785140 0.369062 0.354980
C66   C     C_3   0.446014 0.878607 0.353404 -0.368560
C67   C     C_R   0.031134 0.429456 0.176072 0.588917
H1    H     H_    0.797183 0.224157 0.608801 0.107856
H2    H     H_    0.815187 0.359553 0.385577 0.012220
H3    H     H_    0.596113 0.400345 0.381079 0.073364
H4    H     H_    0.696703 0.080609 0.616790 0.075604
H5    H     H_    0.798568 0.261282 0.303989 0.136593
H6    H     H_    0.717549 0.377464 0.297614 0.063384
H7    H     H_    0.577539 0.297213 0.300107 0.131466
H8    H     H_    0.573421 0.237961 0.607471 -0.037814
H9    H     H_    0.583681 0.134836 0.671664 0.125466
H10   H     H_    0.365875 0.667049 0.614527 0.030142
H11   H     H_    0.580342 0.625028 0.628706 0.035695
H12   H     H_    0.327935 0.142333 0.366313 0.126907
H13   H     H_    0.364670 0.784714 0.690717 0.137908
H14   H     H_    0.403945 0.670559 0.705368 0.077670
H15   H     H_    0.572836 0.735065 0.706424 0.125712
H16   H     H_    0.807194 0.121463 0.673141 0.134532
H17   H     H_    0.202839 0.290207 0.735538 0.130354
H18   H     H_    0.130139 0.673465 0.349635 0.103480
H19   H     H_    0.912800 0.719561 0.347674 -0.052315
H20   H     H_    0.161672 0.796836 0.291514 0.143359
H21   H     H_    0.087840 0.693236 0.265935 0.117849
H22   H     H_    0.943170 0.797408 0.279654 0.126866
H23   H     H_    0.292718 0.127954 0.429833 0.062470
H24   H     H_    0.634007 0.770075 0.368642 -0.059016
H25   H     H_    0.454957 0.787639 0.407825 0.077829
H26   H     H_    0.506810 0.929468 0.378881 0.070937
H27   H     H_    0.310226 0.898530 0.355565 0.149599
H28   H     H_    0.136535 0.327098 0.651545 0.077386
H29   H     H_    0.483938 0.878197 0.314439 0.120566
H30   H     H_    0.154938 0.454810 0.284296 0.129934
H31   H     H_    0.181576 0.285311 0.114015 0.121455
H32   H     H_    0.566258 0.470327 0.756032 0.103650
H33   H     H_    0.413873 0.288786 0.875907 0.121807
H34   H     H_    0.120726 0.140207 0.385941 0.129708
H35   H     H_    0.350142 0.287681 0.960616 0.069302
H36   H     H_    0.252492 0.281042 0.029320 0.069408
H37   H     H_    0.875490 0.729598 0.128915 0.120898
H38   H     H_    0.935492 0.716885 0.966687 0.069382
H39   H     H_    0.325215 0.246232 0.650544 -0.010719
H40   H     H_    0.998277 0.712275 0.881561 0.122166
H41   H     H_    0.045003 0.536102 0.716106 0.125884
H42   H     H_    0.936516 0.729135 0.044142 0.069340
H43   H     H_    0.826908 0.548778 0.399545 0.084668
H44   H     H_    0.366557 0.441893 0.603236 0.073578
H45   H     H_    0.858301 0.713222 0.573630 0.005191
H46   H     H_    0.379342 0.308884 0.519389 0.070079
H47   H     H_    0.233537 0.041732 0.570757 0.109937
H48   H     H_    0.752717 0.099162 0.459514 0.084111
H49   H     H_    0.802711 0.698715 0.479407 0.064397
H50   H     H_    0.864213 0.964817 0.457553 0.083134
H51   H     H_    0.019386 0.244330 0.711815 0.146668
H52   H     H_    0.346032 0.887744 0.562742 0.102522
H53   H     H_    0.215013 0.170050 0.713546 0.118012
H54   H     H_    0.339618 0.286644 0.422975 0.002759
H55   H     H_    0.136139 0.283149 0.445187 0.068434
H56   H     H_    0.065164 0.716283 0.554903 0.074112
H57   H     H_    0.506068 0.523734 0.240533 0.111039
H58   H     H_    0.555807 0.634986 0.235704 0.143028
H59   H     H_    0.639459 0.535647 0.193397 0.105440
H60   H     H_    0.861279 0.858054 0.630430 0.134298
H61   H     H_    0.913230 0.872117 0.568251 0.063495
H62   H     H_    0.073998 0.858940 0.615599 0.118012
N1    N     N_R   0.954818 0.509102 0.203255 -0.423740
N2    N     N_R   0.267623 0.499059 0.796028 -0.424734
O1    O     O_2   0.906490 0.548660 0.619040 -0.465824
O2    O     O_2   0.186679 0.824723 0.471659 -0.483891
O3    O     O_3   0.070547 0.808652 0.379900 -0.604209
O4    O     O_3   0.138490 0.548590 0.558860 -0.493100
O5    O     O_3   0.572560 0.389970 0.472910 -0.490772
O6    O     O_2   0.345680 0.723560 0.528460 -0.470836
O7    O     O_3   0.536330 0.754055 0.609511 -0.645290
O8    O     O_2   0.389478 0.548401 0.325138 -0.507855
O9    O     O_3   0.423572 0.720120 0.335995 -0.601398
O10   O     O_2   0.057943 0.360049 0.195392 -0.595251
O11   O     O_2   0.408656 0.358208 0.797670 -0.600249
O12   O     O_3   0.662519 0.265735 0.391780 -0.634185
O13   O     O_2   0.863015 0.659044 0.205068 -0.623057
O14   O     O_2   0.128155 0.641368 0.801282 -0.597930
O15   O     O_3   0.686290 0.382320 0.585720 -0.488493
O16   O     O_2   0.850209 0.427046 0.670559 -0.496462
O17   O     O_3   0.037979 0.694072 0.627906 -0.626892
O18   O     O_3   0.681594 0.295470 0.672636 -0.591867
O19   O     O_2   0.844020 0.276410 0.471510 -0.461436
O20   O     O_3   0.101490 0.335510 0.560360 -0.486424
O21   O     O_2   0.010310 0.175301 0.526745 -0.486175
O22   O     O_3   0.116558 0.194448 0.619769 -0.611493
O23   O     O_2   0.283210 0.451320 0.380930 -0.460520
O24   O     O_3   0.051220 0.451340 0.441130 -0.497372
O25   O     O_3   0.503420 0.617610 0.414270 -0.474435
O26   O     O_3   0.150152 0.305920 0.371644 -0.624321
O27   O     O_3   0.617160 0.609950 0.527080 -0.473461
O28   O     O_3   0.088220 0.664410 0.439630 -0.495458
P1    P     P_3+3 0.071960 0.575810 0.612130 0.995707
P2    P     P_3+3 0.664360 0.290070 0.457280 0.984663
P3    P     P_3+3 0.145095 0.218774 0.559704 0.928042
P4    P     P_3+3 0.117760 0.424110 0.387870 0.993116
P5    P     P_3+3 0.048675 0.782228 0.439889 0.946092
P6    P     P_3+3 0.681516 0.399881 0.651165 0.971615
P7    P     P_3+3 0.532062 0.723625 0.544409 0.939447
P8    P     P_3+3 0.510355 0.612555 0.349476 0.931511

loop_
_geom_bond_atom_site_label_1
_geom_bond_atom_site_label_2
_ccdc_geom_bond_type
O7    P7    S    
C27   N2    Am   
C53   C54   A    
C57   H52   S    
C62   O12   S    
C1    H16   S    
C23   H11   S    
C60   P7    S    
O16   P6    D    
C4    H39   S    
C19   C24   A    
C40   H34   S    
C33   N2    S    
C51   C57   A    
C15   H44   S    
C52   O17   S    
C46   P2    S    
C54   C55   A    
O27   P7    S    
C24   C25   A    
C66   H27   S    
C63   H7    S    
Ba2   O6    S    
C29   H32   S    
O21   P3    D    
C17   C19   A    
C22   C24   A    
C32   C33   S    
C35   C38   A    
C67   N1    Am   
C36   C37   A    
C45   O3    S    
C62   H2    S    
C21   H33   S    
C52   C61   S    
C34   H14   S    
C20   H35   S    
C64   H58   S    
Ba1   O19   S    
Ba1   Ba2   S    
C12   H8    S    
C26   N2    Am   
C22   C27   A    
C11   C38   A    
C17   C35   A    
C9    C13   A    
C25   C42   A    
C47   H49   S    
C34   H13   S    
C6    C7    D    
C12   O18   S    
C59   H46   S    
C65   H25   S    
C49   H50   S    
C21   C22   A    
O5    P2    S    
C61   H62   S    
C7    C8    S    
C4    O22   S    
C50   C53   A    
C37   C43   A    
C42   H40   S    
C61   H60   S    
C16   H17   S    
C6    C14   D    
C44   P3    S    
C53   C58   A    
C12   H1    S    
C40   H12   S    
C15   C31   D    
O17   P1    S    
Ba2   O28   S    
C46   C58   A    
C55   H47   S    
C8    N1    S    
C28   O26   S    
C4    C16   S    
C52   H56   S    
C66   H26   S    
C39   H37   S    
O20   P3    S    
C65   C66   S    
C61   H61   S    
C4    H28   S    
C23   O7    S    
C13   C39   A    
C2    N1    Am   
O24   P4    S    
C3    C5    S    
C18   C37   A    
O1    P1    D    
C44   C59   A    
C27   O11   D    
C63   H5    S    
C49   C50   A    
Ba2   O5    S    
C9    C36   A    
C41   C42   A    
C48   P5    S    
C35   C36   A    
C51   C60   A    
C29   C30   S    
Ba2   O25   S    
C2    O13   D    
C17   C20   A    
O8    P8    D    
C48   C49   A    
C58   H48   S    
C41   H38   S    
C18   C19   A    
Ba1   O20   S    
C28   H54   S    
C56   H21   S    
Ba2   P4    S    
C1    C12   S    
C16   H53   S    
O9    P8    S    
C5    C14   S    
C10   C67   A    
C28   H55   S    
Ba1   P1    S    
C5    P8    S    
C2    C13   A    
C32   H41   S    
C29   C33   D    
O26   P4    S    
Ba1   O1    S    
C16   H51   S    
C18   C41   A    
Ba1   O4    S    
C50   C51   A    
C14   H43   S    
C56   H22   S    
C15   C30   S    
C26   O14   D    
Ba2   O23   S    
C47   C60   A    
C23   H10   S    
Ba2   O4    S    
C64   H59   S    
Ba1   O27   S    
O28   P5    S    
C3    C64   S    
C9    C10   A    
C43   H42   S    
O25   P8    S    
O22   P3    S    
C67   O10   D    
O12   P2    S    
C7    H30   S    
C63   H6    S    
C62   C63   S    
C11   H31   S    
Ba1   O24   S    
C31   P1    S    
C3    C8    D    
C45   H19   S    
C45   C56   S    
C1    H9    S    
C46   C59   A    
O4    P1    S    
O3    P5    S    
O23   P4    D    
C34   H15   S    
Ba2   O24   S    
O18   P6    S    
C52   H45   S    
O2    P5    D    
C31   C32   D    
C40   H23   S    
C62   H3    S    
O6    P7    D    
C1    H4    S    
C56   H20   S    
C66   H29   S    
O19   P2    D    
C55   C57   A    
C6    P4    S    
C23   C34   S    
C64   H57   S    
C10   C11   A    
Ba1   P2    S    
Ba2   O27   S    
C47   C48   A    
C30   P6    S    
C44   C54   A    
C25   C26   A    
C65   H24   S    
O15   P6    S    
C39   C43   A    
C20   C21   A    
C28   C40   S    
Ba1   O15   S    
C65   O9    S    
Ba1   O5    S    
C45   H18   S    
C38   H36   S    
