data_mof_unit_36416.cif
_audit_creation_date              2012-12-10T18:52:18-0500
_audit_creation_method            fapswitch 2.2
_symmetry_space_group_name_H-M    P1
_symmetry_Int_Tables_number       1
_space_group_crystal_system       triclinic
_cell_length_a                    15.728948
_cell_length_b                    10.713754
_cell_length_c                    9.841556
_cell_angle_alpha                 89.985422
_cell_angle_beta                  89.980857
_cell_angle_gamma                 90.138715
_cell_volume                      1658.45542676

loop_
_atom_site_label
_atom_site_type_symbol
_atom_type_description
_atom_site_fract_x
_atom_site_fract_y
_atom_site_fract_z
_atom_type_partial_charge
C1    C     C_R   0.499938 0.259878 0.499965 0.861395
C2    C     C_R   0.451451 0.416509 0.072029 -0.072712
C3    C     C_R   0.337850 0.499897 0.499998 0.909352
C4    C     C_R   0.662150 0.500103 0.500002 0.909352
C5    C     C_3   0.971357 0.406673 0.580297 -0.212023
C6    C     C_3   0.028643 0.593327 0.419703 -0.212028
C7    C     C_3   0.027219 0.391122 0.452594 0.160417
C8    C     C_3   0.972781 0.608878 0.547406 0.160417
C9    C     C_1   0.248956 0.499842 0.500066 -0.191722
C10   C     C_1   0.751044 0.500158 0.499934 -0.191723
C11   C     C_3   0.028321 0.516591 0.628329 -0.209756
C12   C     C_R   0.500062 0.740122 0.500035 0.861395
C13   C     C_3   0.971679 0.483408 0.371671 -0.209762
C14   C     C_3   0.082845 0.499789 0.500086 0.145772
C15   C     C_3   0.917155 0.500211 0.499914 0.145772
C16   C     C_1   0.173693 0.499824 0.500123 -0.085125
C17   C     C_1   0.826307 0.500176 0.499877 -0.085125
C18   C     C_R   0.482832 0.063876 0.379092 -0.198322
C19   C     C_R   0.517168 0.936124 0.620908 -0.198322
C20   C     C_3   0.061396 0.267189 0.399110 -0.430001
C21   C     C_3   0.988783 0.179262 0.358582 -0.333360
C22   C     C_3   0.022934 0.054278 0.308593 -0.889607
C23   C     C_R   0.482928 0.936025 0.379090 -0.199983
C24   C     C_3   0.938604 0.732811 0.600888 -0.430006
C25   C     C_3   0.011215 0.820726 0.641454 -0.333361
C26   C     C_3   0.977062 0.945706 0.691449 -0.889621
C27   C     C_R   0.517072 0.063975 0.620910 -0.199983
C28   C     C_R   0.500074 0.872562 0.500004 -0.009583
C29   C     C_R   0.499926 0.127437 0.499995 -0.009583
C30   C     C_R   0.548569 0.583522 0.071860 -0.074399
C31   C     C_R   0.451431 0.416478 0.928140 -0.074399
C32   C     C_R   0.548549 0.583491 0.927971 -0.072711
H1    H     H_    0.946154 0.330102 0.644932 0.137762
H2    H     H_    0.412589 0.349719 0.873694 0.126579
H3    H     H_    0.587380 0.650229 0.873388 0.122509
H4    H     H_    0.412620 0.349771 0.126612 0.122509
H5    H     H_    0.061966 0.067879 0.215655 0.260472
H6    H     H_    0.062496 0.009811 0.388372 0.263457
H7    H     H_    0.969050 0.991034 0.284084 0.248554
H8    H     H_    0.946593 0.162685 0.447345 0.218707
H9    H     H_    0.950397 0.222506 0.276352 0.220376
H10   H     H_    0.102586 0.285935 0.309598 0.202241
H11   H     H_    0.100583 0.223171 0.479858 0.203308
H12   H     H_    0.053846 0.669898 0.355069 0.137767
H13   H     H_    0.937524 0.990196 0.611657 0.263459
H14   H     H_    0.938006 0.932095 0.784358 0.260475
H15   H     H_    0.030946 0.008935 0.716005 0.248557
H16   H     H_    0.049587 0.777469 0.723691 0.220375
H17   H     H_    0.053419 0.837309 0.552708 0.218714
H18   H     H_    0.899431 0.776840 0.520131 0.203308
H19   H     H_    0.897400 0.714063 0.690383 0.202244
H20   H     H_    0.946705 0.469151 0.267314 0.136084
H21   H     H_    0.053295 0.530848 0.732686 0.136080
H22   H     H_    0.468904 0.112542 0.285180 0.151848
H23   H     H_    0.531096 0.887458 0.714820 0.151848
H24   H     H_    0.469081 0.887278 0.285169 0.156413
H25   H     H_    0.530918 0.112722 0.714831 0.156413
H26   H     H_    0.587411 0.650281 0.126305 0.126579
N1    N     N_R   0.499980 0.499970 0.857200 -0.078764
N2    N     N_R   0.500020 0.500030 0.142800 -0.078763
O1    O     O_R   0.499990 0.316750 0.614620 -0.630058
O2    O     O_R   0.500010 0.683250 0.385380 -0.630058
O3    O     O_R   0.500000 0.316780 0.385290 -0.628838
O4    O     O_R   0.500000 0.683220 0.614710 -0.628838
O5    O     O_R   0.376780 0.499970 0.614640 -0.612472
O6    O     O_R   0.623220 0.500030 0.385360 -0.612472
O7    O     O_R   0.376780 0.500000 0.385310 -0.615100
O8    O     O_R   0.623220 0.500000 0.614690 -0.615100
Zn1   Zn    Zn3+2 0.500000 0.499980 0.653120 0.946586
Zn2   Zn    Zn3+2 0.500000 0.500020 0.346880 0.946586

loop_
_geom_bond_atom_site_label_1
_geom_bond_atom_site_label_2
_ccdc_geom_bond_type
C20   H10   S    
C1    O1    A    
C3    C9    S    
C19   H23   S    
C27   C29   A    
C13   H20   S    
C19   C27   A    
C11   H21   S    
O3    Zn2   S    
N2    Zn2   S    
O7    Zn2   S    
C24   H19   S    
C1    C29   S    
C25   C26   S    
C31   H2    S    
C23   H24   S    
C18   C29   A    
C6    H12   S    
C21   C22   S    
C24   C25   S    
C6    C13   S    
C30   C32   A    
C19   C28   A    
C25   H16   S    
O6    Zn2   S    
C21   H8    S    
C26   H15   S    
N1    Zn1   S    
C8    C11   S    
C21   H9    S    
C22   H7    S    
C1    O3    A    
C8    C24   S    
C9    C16   T    
C12   C28   S    
C5    C11   S    
C8    C15   S    
C2    N2    A    
C13   C15   S    
C24   H18   S    
C3    O5    A    
C11   C14   S    
C14   C16   S    
C5    C15   S    
C6    C14   S    
C26   H14   S    
C10   C17   T    
O1    Zn1   S    
C18   C23   A    
C22   H6    S    
C32   H3    S    
C30   H26   S    
C7    C13   S    
C20   H11   S    
C12   O2    A    
C20   C21   S    
O2    Zn2   S    
C15   C17   S    
C7    C20   S    
C27   H25   S    
C2    H4    S    
C5    C7    S    
C12   O4    A    
C18   H22   S    
C2    C31   A    
C6    C8    S    
C32   N1    A    
O5    Zn1   S    
C4    O6    A    
C23   C28   A    
C22   H5    S    
C4    O8    A    
O4    Zn1   S    
C7    C14   S    
C3    O7    A    
C31   N1    A    
C4    C10   S    
C30   N2    A    
O8    Zn1   S    
C26   H13   S    
C25   H17   S    
C5    H1    S    
