data_mof_unit_44224.cif
_audit_creation_date              2012-12-11T14:46:17-0500
_audit_creation_method            fapswitch 2.2
_symmetry_space_group_name_H-M    P1
_symmetry_Int_Tables_number       1
_space_group_crystal_system       triclinic
_cell_length_a                    10.912371
_cell_length_b                    10.919571
_cell_length_c                    18.745602
_cell_angle_alpha                 89.958835
_cell_angle_beta                  89.993799
_cell_angle_gamma                 119.688245
_cell_volume                      1940.48508645

loop_
_atom_site_label
_atom_site_type_symbol
_atom_type_description
_atom_site_fract_x
_atom_site_fract_y
_atom_site_fract_z
_atom_type_partial_charge
Br1   Br    Br    0.068152 0.475003 0.885606 -0.595780
Br2   Br    Br    0.967303 0.004930 0.570429 -0.500771
C1    C     C_R   0.869099 0.635625 0.605428 0.568116
C2    C     C_R   0.929661 0.123235 0.705006 0.002909
C3    C     C_R   0.947038 0.140832 0.780355 -0.008232
C4    C     C_R   0.207523 0.594251 0.611012 0.543473
C5    C     C_R   0.722874 0.152300 0.713785 -0.008671
C6    C     C_R   0.753428 0.192475 0.785248 0.015406
C7    C     C_R   0.592732 0.129424 0.685768 -0.073850
C8    C     C_R   0.511226 0.173688 0.723000 -0.120485
C9    C     C_R   0.556049 0.238076 0.789108 -0.121605
C10   C     C_R   0.677176 0.248971 0.819968 -0.049155
C11   C     C_R   0.827035 0.145991 0.671295 -0.020643
C12   C     C_R   0.198675 0.576118 0.810553 0.133922
C13   C     C_R   0.709027 0.576064 0.709117 -0.124267
C14   C     C_R   0.692455 0.580310 0.782356 -0.138649
C15   C     C_R   0.811892 0.648730 0.826546 0.038807
C16   C     C_R   0.858243 0.220966 0.601634 0.573900
C17   C     C_R   0.947082 0.707534 0.797643 -0.102069
C18   C     C_R   0.963344 0.707141 0.724960 -0.126887
C19   C     C_R   0.844737 0.644208 0.680313 0.045368
C20   C     C_R   0.242211 0.536623 0.274985 -0.130863
C21   C     C_R   0.258196 0.553135 0.202191 -0.134272
C22   C     C_R   0.332354 0.688509 0.173236 0.025039
C23   C     C_R   0.157071 0.545600 0.739359 -0.126094
C24   C     C_R   0.377271 0.807594 0.217148 -0.141722
C25   C     C_R   0.358621 0.790693 0.290538 -0.149734
C26   C     C_R   0.296696 0.655171 0.319621 0.028751
C27   C     C_R   0.787317 0.254435 0.274865 -0.132162
C28   C     C_R   0.869893 0.636783 0.395609 0.558831
C29   C     C_R   0.786826 0.238749 0.202008 -0.135680
C30   C     C_R   0.852777 0.169154 0.172280 0.026557
C31   C     C_R   0.931774 0.128264 0.215514 -0.142147
C32   C     C_R   0.934206 0.146344 0.288934 -0.149291
C33   C     C_R   0.856882 0.204093 0.318830 0.028107
C34   C     C_R   0.250521 0.626204 0.684888 -0.002809
C35   C     C_R   0.965711 0.712547 0.276380 -0.129277
C36   C     C_R   0.950090 0.712897 0.203602 -0.134705
C37   C     C_R   0.814892 0.649096 0.174245 0.025944
C38   C     C_R   0.695598 0.572211 0.217688 -0.141308
C39   C     C_R   0.711659 0.569813 0.291028 -0.149542
C40   C     C_R   0.266276 0.631047 0.394865 0.549951
C41   C     C_R   0.846522 0.645146 0.320547 0.030917
C42   C     C_R   0.809814 0.106098 0.895058 0.568143
C43   C     C_R   0.393437 0.700998 0.897231 0.590406
C44   C     C_R   0.796956 0.689862 0.897763 0.557104
C45   C     C_R   0.850599 0.164584 0.821397 0.009975
C46   C     C_R   0.809548 0.108732 0.101831 0.559979
C47   C     C_R   0.393091 0.704383 0.102920 0.560474
C48   C     C_R   0.797889 0.692339 0.103790 0.552799
C49   C     C_R   0.864431 0.234747 0.394113 0.561051
C50   C     C_R   0.383598 0.739429 0.701302 -0.132011
C51   C     C_R   0.425700 0.768519 0.771921 -0.165313
C52   C     C_R   0.334772 0.685002 0.826414 0.045330
C53   C     C_R   0.061666 0.135778 0.812210 -0.065865
C54   C     C_R   0.144888 0.096630 0.772838 -0.162769
C55   C     C_R   0.116871 0.063153 0.700971 -0.090776
C56   C     C_R   0.010835 0.076389 0.666476 0.181395
Cr1   Cr    Cr6+3 0.791660 0.390250 0.499930 1.020505
Cr2   Cr    Cr6+3 0.098520 0.708290 0.500540 1.041348
Cr3   Cr    Cr6+3 0.109770 0.401430 0.499480 1.057219
Cr4   Cr    Cr6+3 0.874790 0.925890 0.000070 1.023672
Cr5   Cr    Cr6+3 0.574120 0.948670 0.999300 1.024976
Cr6   Cr    Cr6+3 0.551420 0.625320 0.000920 1.027291
H1    H     H_    0.455829 0.802557 0.659410 0.140843
H2    H     H_    0.221008 0.460167 0.169005 0.137385
H3    H     H_    0.435175 0.913362 0.195538 0.140392
H4    H     H_    0.531631 0.852131 0.783953 0.131856
H5    H     H_    0.395600 0.882495 0.324516 0.127053
H6    H     H_    0.733246 0.306565 0.296757 0.143648
H7    H     H_    0.727166 0.272812 0.169421 0.134007
H8    H     H_    0.983502 0.074009 0.193367 0.141130
H9    H     H_    0.992989 0.112515 0.322307 0.136528
H10   H     H_    0.071636 0.764822 0.298040 0.143995
H11   H     H_    0.043287 0.770755 0.170770 0.135391
H12   H     H_    0.416142 0.162509 0.699337 0.109010
H13   H     H_    0.589924 0.522170 0.195758 0.140979
H14   H     H_    0.619603 0.512578 0.324626 0.127415
H15   H     H_    0.052247 0.460860 0.726543 0.127594
H16   H     H_    0.229328 0.088797 0.798746 0.110781
H17   H     H_    0.176540 0.024541 0.671931 0.133653
H18   H     H_    0.090340 0.165013 0.867289 0.162984
H19   H     H_    0.708895 0.298018 0.871949 0.158306
H20   H     H_    0.555199 0.080036 0.634265 0.138811
H21   H     H_    0.495288 0.276582 0.817231 0.106483
H22   H     H_    0.617047 0.523643 0.675083 0.133252
H23   H     H_    0.586839 0.537061 0.803786 0.137318
H24   H     H_    0.040277 0.761097 0.830841 0.152367
H25   H     H_    0.069524 0.755758 0.703721 0.132688
H26   H     H_    0.186856 0.430542 0.296348 0.143301
O1    O     O_R   0.766500 0.250040 0.579790 -0.524012
O2    O     O_R   0.413330 0.603360 0.920440 -0.492873
O3    O     O_R   0.676110 0.626250 0.926750 -0.514650
O4    O     O_R   0.798570 0.516780 0.574780 -0.504398
O5    O     O_R   0.895350 0.809870 0.080950 -0.521112
O6    O     O_R   0.872490 0.049760 0.073800 -0.502377
O7    O     O_R   0.691680 0.088070 0.079070 -0.522617
O8    O     O_R   0.451720 0.825250 0.074050 -0.505611
O9    O     O_R   0.413580 0.606370 0.080960 -0.515463
O10   O     O_R   0.676340 0.629040 0.075550 -0.507002
O11   O     O_3   0.666780 0.833290 0.000090 -0.253662
O12   O     O_R   0.218690 0.701900 0.425960 -0.503889
O13   O     O_R   0.984000 0.732950 0.581090 -0.487354
O14   O     O_R   0.218600 0.700890 0.574760 -0.507115
O15   O     O_R   0.249390 0.515350 0.579940 -0.493092
O16   O     O_R   0.982790 0.280900 0.573700 -0.473786
O17   O     O_R   0.766600 0.251130 0.419260 -0.523193
O18   O     O_R   0.798660 0.517790 0.425980 -0.507803
O19   O     O_R   0.984100 0.734040 0.420570 -0.498798
O20   O     O_R   0.249490 0.516440 0.419420 -0.516880
O21   O     O_R   0.982880 0.281910 0.424890 -0.489515
O22   O     O_3   0.999980 0.499990 0.499980 -0.286856
O23   O     O_R   0.895110 0.806860 0.920430 -0.516326
O24   O     O_R   0.872260 0.046970 0.925000 -0.502549
O25   O     O_R   0.691430 0.085060 0.918550 -0.521955
O26   O     O_R   0.451490 0.822460 0.925250 -0.504541

loop_
_geom_bond_atom_site_label_1
_geom_bond_atom_site_label_2
_ccdc_geom_bond_type
C53   C54   A    
Cr4   O6    S    
Cr6   O10   S    
C30   C46   S    
C17   C18   A    
Cr5   O11   S    
C35   H10   S    
C5    C6    A    
C51   C52   A    
C46   O7    A    
C3    C45   A    
C24   C25   A    
C11   C16   S    
C24   H3    S    
C21   H2    S    
C22   C24   A    
Cr6   O3    S    
Cr4   O24   S    
Cr5   O8    S    
C36   C37   A    
C48   O5    A    
C13   C14   A    
C54   C55   A    
C32   C33   A    
C2    C11   A    
C43   O2    A    
C51   H4    S    
Cr2   O19   S    
C31   H8    S    
C47   O8    A    
C8    H12   S    
Cr6   O9    S    
C42   O25   A    
C14   C15   A    
C14   H23   S    
C21   C22   A    
Cr1   O4    S    
C4    O14   A    
Cr2   O13   S    
Cr3   O15   S    
C7    C8    A    
C25   H5    S    
C42   C45   S    
Cr4   O11   S    
Cr5   O25   S    
C29   H7    S    
C42   O24   A    
C20   C26   A    
Cr4   O5    S    
C27   C29   A    
C39   C41   A    
Cr2   O12   S    
Cr3   O20   S    
C40   O12   A    
Cr1   O22   S    
C36   H11   S    
Cr6   O11   S    
C28   O19   A    
C15   C44   S    
Cr4   O23   S    
C17   H24   S    
C37   C38   A    
C23   C34   A    
C32   H9    S    
Cr1   O17   S    
C10   H19   S    
C35   C41   A    
C16   O16   A    
C35   C36   A    
Cr2   O22   S    
C47   O9    A    
C29   C30   A    
C13   C19   A    
C6    C10   A    
C31   C32   A    
C20   H26   S    
Cr1   O1    S    
C53   H18   S    
Cr3   O16   S    
C13   H22   S    
Cr5   O26   S    
C38   C39   A    
C12   C52   A    
C43   C52   S    
C33   C49   S    
C55   H17   S    
C28   C41   S    
C1    C19   S    
Cr6   O2    S    
Cr3   O21   S    
C39   H14   S    
C50   C51   A    
C27   H6    S    
C1    O13   A    
C22   C47   S    
C5    C7    A    
C49   O21   A    
C46   O6    A    
C44   O23   A    
C28   O18   A    
C23   H15   S    
C3    C53   A    
C2    C3    A    
C34   C50   A    
C9    C10   A    
Br2   C56   S    
C18   H25   S    
C27   C33   A    
C48   O10   A    
Cr1   O18   S    
C54   H16   S    
C30   C31   A    
C40   O20   A    
C6    C45   A    
Cr5   O7    S    
C43   O26   A    
C55   C56   A    
C44   O3    A    
C9    H21   S    
C26   C40   S    
C15   C17   A    
C4    O15   A    
C4    C34   S    
C1    O4    A    
C38   H13   S    
C12   C23   A    
C8    C9    A    
C7    H20   S    
C16   O1    A    
C5    C11   A    
C37   C48   S    
C18   C19   A    
C49   O17   A    
C2    C56   A    
C25   C26   A    
C20   C21   A    
Br1   C12   S    
Cr2   O14   S    
Cr3   O22   S    
C50   H1    S    
