data_mof_unit_36068.cif
_audit_creation_date              2012-12-10T16:48:45-0500
_audit_creation_method            fapswitch 2.2
_symmetry_space_group_name_H-M    P1
_symmetry_Int_Tables_number       1
_space_group_crystal_system       triclinic
_cell_length_a                    7.984139
_cell_length_b                    8.541503
_cell_length_c                    11.051797
_cell_angle_alpha                 89.36655
_cell_angle_beta                  96.43546
_cell_angle_gamma                 93.657065
_cell_volume                      747.414293719

loop_
_atom_site_label
_atom_site_type_symbol
_atom_type_description
_atom_site_fract_x
_atom_site_fract_y
_atom_site_fract_z
_atom_type_partial_charge
C1    C     C_R   0.544128 0.793872 0.496881 0.963112
C2    C     C_2   0.433231 0.041939 0.504839 -0.341514
C3    C     C_R   0.455870 0.206127 0.503112 0.941438
C4    C     C_R   0.568264 0.490300 0.732689 0.800999
C5    C     C_R   0.431036 0.504672 0.267127 0.798805
C6    C     C_2   0.606069 0.480654 0.862133 0.196082
C7    C     C_2   0.391785 0.497964 0.137443 0.199260
C8    C     C_2   0.482474 0.479432 0.933163 -0.178302
C9    C     C_2   0.514495 0.487983 0.066574 -0.177416
C10   C     C_2   0.566769 0.958066 0.495162 -0.346110
H1    H     H_    0.642369 0.489550 0.110009 0.240646
H2    H     H_    0.354650 0.476714 0.889456 0.240543
H3    H     H_    0.692979 0.009292 0.485931 0.186711
H4    H     H_    0.307022 0.990717 0.514071 0.189317
H5    H     H_    0.984669 0.377713 0.412532 0.187837
H6    H     H_    0.015376 0.620107 0.589482 0.224206
H7    H     H_    0.023733 0.393115 0.206502 0.360850
H8    H     H_    0.949716 0.359059 0.795557 0.371778
N1    N     N_2   0.940600 0.458860 0.467170 -0.160920
N2    N     N_2   0.059400 0.541140 0.532830 -0.155151
O1    O     O_R   0.391630 0.738350 0.508060 -0.605639
O2    O     O_2   0.150449 0.342183 0.007288 -0.278473
O3    O     O_3   0.046183 0.503213 0.180917 -0.462202
O4    O     O_2   0.848981 0.627716 0.994707 -0.191389
O5    O     O_2   0.826601 0.337203 0.005242 -0.284851
O6    O     O_3   0.952067 0.471081 0.818492 -0.473491
O7    O     O_R   0.608370 0.261650 0.491940 -0.616987
O8    O     O_R   0.674540 0.711990 0.487010 -0.613890
O9    O     O_R   0.325460 0.288010 0.512990 -0.629060
O10   O     O_R   0.411370 0.508250 0.688780 -0.625857
O11   O     O_R   0.588630 0.491750 0.311220 -0.627406
O12   O     O_R   0.694270 0.481880 0.667740 -0.580414
O13   O     O_R   0.305730 0.518120 0.332260 -0.570988
O14   O     O_2   0.168909 0.632275 0.991691 -0.193710
S1    S     S_3+6 0.183418 0.493703 0.076509 0.105769
S2    S     S_3+6 0.814276 0.478428 0.922937 0.100288
Zn1   Zn    Zn3+2 0.311100 0.517600 0.514050 1.006071
Zn2   Zn    Zn3+2 0.688900 0.482400 0.485950 1.000059

loop_
_geom_bond_atom_site_label_1
_geom_bond_atom_site_label_2
_ccdc_geom_bond_type
C1    O8    A    
C1    O1    A    
O2    S1    D    
N1    Zn2   S    
O12   Zn2   S    
C5    C7    S    
N1    N2    D    
H8    O6    S    
O11   Zn2   S    
H6    N2    S    
C8    H2    S    
C3    O7    A    
C2    C3    S    
O4    S2    D    
H5    N1    S    
N2    Zn1   S    
C9    H1    S    
C4    O12   A    
H7    O3    S    
O6    S2    S    
C6    S2    S    
O3    S1    S    
C2    H4    S    
C4    O10   A    
O7    Zn2   S    
C2    C10   D    
C7    C9    D    
O1    Zn1   S    
C4    C6    S    
O14   S1    D    
O9    Zn1   S    
C3    O9    A    
C6    C8    D    
O5    S2    D    
O8    Zn2   S    
C7    S1    S    
O13   Zn1   S    
C1    C10   S    
O10   Zn1   S    
C8    C9    S    
C5    O11   A    
C10   H3    S    
C5    O13   A    
