data_mof_unit_52628.cif
_audit_creation_date              2012-12-10T16:44:15-0500
_audit_creation_method            fapswitch 2.2
_symmetry_space_group_name_H-M    P1
_symmetry_Int_Tables_number       1
_space_group_crystal_system       triclinic
_cell_length_a                    7.424736
_cell_length_b                    8.686156
_cell_length_c                    13.397042
_cell_angle_alpha                 93.980116
_cell_angle_beta                  77.202018
_cell_angle_gamma                 103.161297
_cell_volume                      820.248258213

loop_
_atom_site_label
_atom_site_type_symbol
_atom_type_description
_atom_site_fract_x
_atom_site_fract_y
_atom_site_fract_z
_atom_type_partial_charge
C1    C     C_R   0.545357 0.800225 0.502976 0.877085
C2    C     C_R   0.417269 0.504346 0.976192 0.079068
C3    C     C_R   0.463900 0.550677 0.872523 0.029447
C4    C     C_R   0.559484 0.542450 0.035448 0.090959
C5    C     C_R   0.738531 0.639578 0.994099 0.163554
C6    C     C_R   0.773520 0.699524 0.896279 -0.215518
C7    C     C_R   0.637617 0.657959 0.837053 -0.154800
C8    C     C_R   0.529098 0.486942 0.134932 -0.248331
C9    C     C_R   0.841025 0.629507 0.153067 -0.203205
C10   C     C_R   0.334364 0.490644 0.807613 -0.214611
C11   C     C_2   0.571230 0.968086 0.503756 -0.378798
C12   C     C_R   0.398594 0.496273 0.694779 0.796022
C13   C     C_2   0.428143 0.031872 0.496943 -0.378007
C14   C     C_R   0.454357 0.199772 0.497449 0.881627
C15   C     C_R   0.602037 0.511105 0.305780 0.795635
C16   C     C_R   0.878832 0.679702 0.052427 -0.186509
C17   C     C_R   0.663632 0.536634 0.195381 -0.058982
C18   C     C_R   0.149047 0.407829 0.850903 0.437881
C19   C     C_R   0.096737 0.382474 0.956011 -0.228569
C20   C     C_R   0.229056 0.425398 0.017295 -0.271234
Cu1   Cu    Cu3+1 0.321300 0.483160 0.488710 0.952236
Cu2   Cu    Cu3+1 0.678700 0.516840 0.511290 0.940827
H1    H     H_    0.946712 0.669049 0.198940 0.158068
H2    H     H_    0.290004 0.960439 0.490938 0.177555
H3    H     H_    0.010741 0.617438 0.579454 0.232091
H4    H     H_    0.989044 0.382230 0.420778 0.221020
H5    H     H_    0.906501 0.779533 0.865375 0.127287
H6    H     H_    0.015789 0.753851 0.021155 0.138579
H7    H     H_    0.399453 0.406921 0.168663 0.144527
H8    H     H_    0.177162 0.399946 0.097418 0.154827
H9    H     H_    0.952591 0.325485 0.990228 0.162098
H10   H     H_    0.669317 0.714980 0.764151 0.153360
H11   H     H_    0.709427 0.039515 0.509409 0.175630
N1    N     N_2   0.947230 0.542220 0.528320 -0.207713
N2    N     N_2   0.052770 0.457780 0.471680 -0.222559
O1    O     O_R   0.383920 0.714220 0.492660 -0.583564
O2    O     O_R   0.685730 0.742660 0.511730 -0.595871
O3    O     O_R   0.275440 0.478800 0.636790 -0.535163
O4    O     O_R   0.577250 0.507240 0.655860 -0.579379
O5    O     O_R   0.314270 0.257340 0.488270 -0.591732
O6    O     O_R   0.616080 0.285780 0.507340 -0.582807
O7    O     O_R   0.422750 0.492760 0.344140 -0.581306
O8    O     O_R   0.724560 0.521200 0.363210 -0.590645
O9    O     O_3   0.015263 0.358999 0.791340 -0.556231
C21   C     C_3   0.985793 0.193321 0.776278 0.072963
H12   H     H_    0.916463 0.131293 0.849441 0.127580
H13   H     H_    0.121899 0.156613 0.743859 0.124252
C22   C     C_3   0.856594 0.142218 0.700812 -0.733419
H14   H     H_    0.923400 0.200362 0.626343 0.263660
H15   H     H_    0.831584 0.011970 0.688536 0.175070
H16   H     H_    0.718578 0.175708 0.731026 0.246047

loop_
_geom_bond_atom_site_label_1
_geom_bond_atom_site_label_2
_ccdc_geom_bond_type
C16   H6    S    
C2    C4    A    
C6    C7    A    
Cu1   N2    S    
C18   O9    S    
C15   O7    A    
C8    C17   A    
C1    C11   S    
C6    H5    S    
C1    O2    A    
H3    N1    S    
C4    C8    A    
C19   H9    S    
C12   O4    A    
C22   H15   S    
C2    C3    A    
C15   O8    A    
Cu1   O1    S    
C20   H8    S    
C21   H12   S    
C11   C13   D    
Cu1   O5    S    
C10   C12   S    
C10   C18   A    
C14   O6    A    
C3    C10   A    
C8    H7    S    
C9    C17   A    
C22   H14   S    
C9    C16   A    
C18   C19   A    
C3    C7    A    
C21   H13   S    
C12   O3    A    
C5    C6    A    
Cu2   N1    S    
Cu2   O6    S    
Cu2   O4    S    
C14   O5    A    
Cu1   O7    S    
H4    N2    S    
C11   H11   S    
O9    C21   S    
C13   H2    S    
N1    N2    D    
C21   C22   S    
C15   C17   S    
C9    H1    S    
C5    C16   A    
C7    H10   S    
C13   C14   S    
Cu1   Cu2   S    
Cu2   O2    S    
C2    C20   A    
C22   H16   S    
Cu1   O3    S    
C19   C20   A    
C1    O1    A    
C4    C5    A    
Cu2   O8    S    
