data_mof_unit_62504.cif
_audit_creation_date              2013-03-05T16:09:19-0500
_audit_creation_method            fapswitch 2.2
_symmetry_space_group_name_H-M    P1
_symmetry_Int_Tables_number       1
_space_group_crystal_system       triclinic
_cell_length_a                    38.760149
_cell_length_b                    44.987408
_cell_length_c                    29.689604
_cell_angle_alpha                 90.000089
_cell_angle_beta                  130.671993
_cell_angle_gamma                 90.000038
_cell_volume                      39265.3513841

loop_
_atom_site_label
_atom_site_type_symbol
_atom_site_description
_atom_site_fract_x
_atom_site_fract_y
_atom_site_fract_z
_atom_type_partial_charge
O1    O     O_R   0.298140 0.236530 0.096350 -0.627546
O2    O     O_R   0.701860 0.236530 0.903650 -0.627563
O3    O     O_R   0.798140 0.736530 0.096350 -0.627561
O4    O     O_R   0.201860 0.736530 0.903650 -0.627568
O5    O     O_R   0.263350 0.201750 0.026760 -0.583294
O6    O     O_R   0.736650 0.201750 0.973240 -0.583301
O7    O     O_R   0.763350 0.701750 0.026760 -0.583288
O8    O     O_R   0.236650 0.701750 0.973240 -0.583285
C1    C     C_R   0.290632 0.209224 0.081335 0.941587
C2    C     C_R   0.709369 0.209224 0.918665 0.941686
C3    C     C_R   0.790632 0.709224 0.081335 0.941533
C4    C     C_R   0.209369 0.709224 0.918665 0.941684
O9    O     O_R   0.318280 0.267330 0.034740 -0.624248
O10   O     O_R   0.681720 0.267330 0.965260 -0.624070
O11   O     O_R   0.818280 0.767330 0.034740 -0.624610
O12   O     O_R   0.181720 0.767330 0.965260 -0.624516
O13   O     O_R   0.283490 0.232560 0.965160 -0.578905
O14   O     O_R   0.716510 0.232560 0.034840 -0.578954
O15   O     O_R   0.783490 0.732560 0.965160 -0.578931
O16   O     O_R   0.216510 0.732560 0.034840 -0.579017
C5    C     C_R   0.317767 0.249456 0.000871 0.925686
C6    C     C_R   0.682235 0.249457 0.999130 0.926033
C7    C     C_R   0.817767 0.749455 0.000871 0.925143
C8    C     C_R   0.182235 0.749457 0.999131 0.925321
Zn1   Zn    Zn3+2 0.273180 0.273170 0.046410 1.000476
Zn2   Zn    Zn3+2 0.726820 0.273170 0.953590 1.000416
Zn3   Zn    Zn3+2 0.773180 0.773170 0.046410 1.000576
Zn4   Zn    Zn3+2 0.226820 0.773170 0.953590 1.000613
Zn5   Zn    Zn3+2 0.226720 0.226730 0.953480 1.028778
Zn6   Zn    Zn3+2 0.773280 0.226730 0.046520 1.028747
Zn7   Zn    Zn3+2 0.726720 0.726730 0.953480 1.028779
Zn8   Zn    Zn3+2 0.273280 0.726730 0.046520 1.028694
O17   O     O_R   0.236540 0.298140 0.973130 -0.594153
O18   O     O_R   0.763460 0.298140 0.026870 -0.594241
O19   O     O_R   0.736540 0.798140 0.973130 -0.594083
O20   O     O_R   0.263460 0.798140 0.026870 -0.594084
O21   O     O_R   0.201750 0.263360 0.903540 -0.626788
O22   O     O_R   0.798250 0.263360 0.096460 -0.626800
O23   O     O_R   0.701750 0.763360 0.903540 -0.626805
O24   O     O_R   0.298250 0.763360 0.096460 -0.626822
O25   O     O_R   0.216410 0.267340 0.034730 -0.622663
O26   O     O_R   0.783590 0.267340 0.965270 -0.622800
O27   O     O_R   0.716410 0.767340 0.034730 -0.622204
O28   O     O_R   0.283590 0.767340 0.965270 -0.622256
O29   O     O_R   0.181620 0.232560 0.965150 -0.628508
O30   O     O_R   0.818380 0.232560 0.034850 -0.628430
O31   O     O_R   0.681620 0.732560 0.965150 -0.628536
O32   O     O_R   0.318380 0.732560 0.034850 -0.628532
C9    C     C_R   0.209278 0.290651 0.918590 0.897379
C10   C     C_R   0.790722 0.290651 0.081410 0.897383
C11   C     C_R   0.709279 0.790651 0.918590 0.897369
C12   C     C_R   0.290721 0.790651 0.081410 0.897342
C13   C     C_R   0.182520 0.249961 0.999955 0.851382
C14   C     C_R   0.817478 0.249961 0.000044 0.851107
C15   C     C_R   0.682520 0.749961 0.999955 0.851879
C16   C     C_R   0.317480 0.749961 0.000045 0.851793
C17   C     C_R   0.371242 0.221627 0.995900 0.305236
C18   C     C_R   0.628723 0.221624 0.004026 0.305258
C19   C     C_R   0.871229 0.721628 0.995872 0.305318
C20   C     C_R   0.128717 0.721623 0.004013 0.305262
C21   C     C_R   0.406371 0.222375 0.994125 -0.211487
C22   C     C_R   0.593595 0.222370 0.005804 -0.211418
C23   C     C_R   0.906356 0.722376 0.994095 -0.211742
C24   C     C_R   0.093589 0.722369 0.005789 -0.211727
H1    H     H_    0.417908 0.201684 0.989204 0.192909
H2    H     H_    0.582028 0.201677 0.010664 0.192925
H3    H     H_    0.917882 0.701687 0.989153 0.192816
H4    H     H_    0.082017 0.701675 0.010640 0.192838
C25   C     C_R   0.427401 0.249301 0.000360 0.019609
C26   C     C_R   0.572605 0.249301 0.999648 0.019494
C27   C     C_R   0.927400 0.749301 0.000357 0.019874
C28   C     C_R   0.072604 0.749300 0.999644 0.019836
C29   C     C_R   0.412756 0.275805 0.008015 -0.142453
C30   C     C_R   0.587288 0.275811 0.992068 -0.142276
C31   C     C_R   0.912769 0.775803 0.008039 -0.142978
C32   C     C_R   0.087293 0.775811 0.992078 -0.142892
H5    H     H_    0.428509 0.296870 0.013167 0.163614
H6    H     H_    0.571566 0.296880 0.986979 0.163739
H7    H     H_    0.928532 0.796867 0.013212 0.163165
H8    H     H_    0.071575 0.796881 0.986997 0.163195
C33   C     C_R   0.377516 0.275418 0.009197 -0.231462
C34   C     C_R   0.622526 0.275425 0.990882 -0.231108
C35   C     C_R   0.877529 0.775416 0.009223 -0.232314
C36   C     C_R   0.122531 0.775425 0.990892 -0.232270
H9    H     H_    0.366304 0.296224 0.014326 0.174041
H10   H     H_    0.633768 0.296233 0.985812 0.174346
H11   H     H_    0.866329 0.796220 0.014373 0.173307
H12   H     H_    0.133778 0.796234 0.985831 0.173335
C37   C     C_R   0.356228 0.248596 0.002530 -0.156578
C38   C     C_R   0.643774 0.248597 0.997471 -0.156731
C39   C     C_R   0.856228 0.748595 0.002530 -0.156154
C40   C     C_R   0.143774 0.748597 0.997470 -0.156128
N1    N     N_R   0.482894 0.275480 0.000082 -0.173746
N2    N     N_R   0.517152 0.275479 0.000004 -0.173701
N3    N     N_R   0.982903 0.775479 0.000099 -0.174240
N4    N     N_R   0.017161 0.775479 0.000022 -0.174230
C41   C     C_R   0.534921 0.249492 0.000009 0.314989
C42   C     C_R   0.465085 0.249492 1.000000 0.314936
C43   C     C_R   0.034920 0.749491 0.000006 0.314881
C44   C     C_R   0.965084 0.749492 0.999996 0.314873
N5    N     N_R   0.517112 0.223550 0.999982 -0.161455
N6    N     N_R   0.482856 0.223550 0.999952 -0.161459
N7    N     N_R   0.017100 0.723549 0.999956 -0.161596
N8    N     N_R   0.982844 0.723550 0.999927 -0.161601
C45   C     C_R   0.959331 0.459318 0.418678 0.904520
C46   C     C_R   0.040669 0.459318 0.581323 0.904527
C47   C     C_R   0.459332 0.959318 0.418678 0.904536
C48   C     C_R   0.540668 0.959318 0.581322 0.904534
C49   C     C_3   0.361275 0.126573 0.281178 -0.162214
C50   C     C_3   0.636270 0.127890 0.716199 -0.162326
C51   C     C_3   0.861288 0.626581 0.281193 -0.162047
C52   C     C_3   0.139380 0.626203 0.719560 -0.162080
C53   C     C_3   0.329893 0.120619 0.213589 -0.159798
C54   C     C_3   0.670145 0.121882 0.783890 -0.160877
C55   C     C_3   0.829892 0.620626 0.213603 -0.159332
C56   C     C_3   0.170059 0.620283 0.787081 -0.159191
H13   H     H_    0.292453 0.117526 0.183063 0.145650
H14   H     H_    0.707617 0.119824 0.812350 0.145121
H15   H     H_    0.792451 0.617538 0.183088 0.145862
H16   H     H_    0.207460 0.616914 0.818159 0.145959
H17   H     H_    0.350353 0.127576 0.307646 0.142611
H18   H     H_    0.645179 0.129972 0.687581 0.142342
H19   H     H_    0.850377 0.627589 0.307673 0.142700
H20   H     H_    0.150839 0.626901 0.693697 0.142744
H21   H     H_    0.356467 0.075577 0.203849 0.153152
H22   H     H_    0.648070 0.075479 0.796338 0.152974
H23   H     H_    0.856441 0.575577 0.203847 0.152965
H24   H     H_    0.142253 0.575640 0.796028 0.153084
C57   C     C_1   0.312942 0.186929 0.125799 -0.144617
C58   C     C_1   0.687058 0.186929 0.874201 -0.144551
C59   C     C_1   0.812942 0.686929 0.125799 -0.144636
C60   C     C_1   0.187058 0.686929 0.874201 -0.144531
C61   C     C_1   0.437118 0.062884 0.374069 -0.171473
C62   C     C_1   0.562882 0.062884 0.625931 -0.171474
C63   C     C_1   0.937118 0.562885 0.374069 -0.171493
C64   C     C_1   0.062882 0.562885 0.625931 -0.171478
C65   C     C_3   0.385517 0.151742 0.275572 -0.165492
C66   C     C_3   0.611989 0.151796 0.724325 -0.164906
C67   C     C_3   0.885531 0.651742 0.275574 -0.165505
C68   C     C_3   0.115186 0.651707 0.724495 -0.165660
C69   C     C_3   0.354534 0.145390 0.208780 0.189274
C70   C     C_3   0.645466 0.145391 0.791219 0.189264
C71   C     C_3   0.854533 0.645390 0.208780 0.189276
C72   C     C_3   0.145466 0.645390 0.791220 0.189254
C73   C     C_3   0.420259 0.129126 0.286127 -0.162699
C74   C     C_3   0.579702 0.127864 0.716392 -0.161860
C75   C     C_3   0.920260 0.629119 0.286113 -0.162800
C76   C     C_3   0.079789 0.629463 0.713201 -0.162974
C77   C     C_3   0.395617 0.104356 0.290937 0.190787
C78   C     C_3   0.604383 0.104356 0.709063 0.190818
C79   C     C_3   0.895617 0.604356 0.290937 0.190829
C80   C     C_3   0.104383 0.604356 0.709062 0.190790
C81   C     C_3   0.388875 0.123174 0.218532 -0.139158
C82   C     C_3   0.613580 0.121858 0.784090 -0.138690
C83   C     C_3   0.888861 0.623167 0.218517 -0.139637
C84   C     C_3   0.110470 0.623545 0.780729 -0.139562
C85   C     C_3   0.364634 0.098002 0.224143 -0.151114
C86   C     C_3   0.637858 0.097948 0.775959 -0.151912
C87   C     C_3   0.864620 0.598002 0.224143 -0.151196
C88   C     C_3   0.134663 0.598037 0.775789 -0.150947
C89   C     C_1   0.331758 0.168136 0.163307 -0.052338
C90   C     C_1   0.668242 0.168137 0.836692 -0.052334
C91   C     C_1   0.831758 0.668137 0.163307 -0.052363
C92   C     C_1   0.168242 0.668137 0.836692 -0.052322
C93   C     C_1   0.418356 0.081636 0.336471 -0.062408
C94   C     C_1   0.581644 0.081636 0.663529 -0.062412
C95   C     C_1   0.918356 0.581636 0.336471 -0.062442
C96   C     C_1   0.081644 0.581636 0.663528 -0.062414
H25   H     H_    0.399790 0.122179 0.192054 0.160145
H26   H     H_    0.604677 0.119784 0.812717 0.160620
H27   H     H_    0.899765 0.622166 0.192028 0.159926
H28   H     H_    0.099019 0.622854 0.806602 0.159883
H29   H     H_    0.457699 0.132221 0.316653 0.145046
H30   H     H_    0.542231 0.129923 0.687932 0.145511
H31   H     H_    0.957701 0.632208 0.316628 0.144980
H32   H     H_    0.042388 0.632833 0.682125 0.144892
H33   H     H_    0.393685 0.174166 0.295868 0.142784
H34   H     H_    0.601778 0.174266 0.703945 0.142956
H35   H     H_    0.893711 0.674168 0.295870 0.142791
H36   H     H_    0.107594 0.674104 0.704254 0.142749
C97   C     C_R   0.102209 0.238787 0.950994 -0.186167
C98   C     C_R   0.897855 0.238944 0.049147 -0.186291
C99   C     C_R   0.602200 0.738810 0.950973 -0.185764
C100  C     C_R   0.397810 0.738835 0.049050 -0.185812
H37   H     H_    0.096603 0.230097 0.912654 0.157601
H38   H     H_    0.903513 0.230378 0.087596 0.157454
H39   H     H_    0.596586 0.730138 0.912617 0.157628
H40   H     H_    0.403433 0.730183 0.087423 0.157602
C101  C     C_R   0.066208 0.239071 0.950774 -0.155598
C102  C     C_R   0.933855 0.239230 0.049365 -0.155620
C103  C     C_R   0.566199 0.739094 0.950753 -0.155276
C104  C     C_R   0.433811 0.739120 0.049269 -0.155297
H41   H     H_    0.033551 0.230357 0.912458 0.151186
H42   H     H_    0.966569 0.230641 0.087793 0.151169
H43   H     H_    0.533532 0.730399 0.912422 0.151230
H44   H     H_    0.466487 0.730444 0.087619 0.151228
C105  C     C_R   0.072618 0.250086 0.999969 0.083698
C106  C     C_R   0.927372 0.250086 0.000026 0.083706
C107  C     C_R   0.572621 0.750085 0.999971 0.083613
C108  C     C_R   0.427378 0.750085 0.000029 0.083618
C109  C     C_R   0.115361 0.261060 0.049161 -0.154117
C110  C     C_R   0.884558 0.260900 0.950692 -0.154177
C111  C     C_R   0.615373 0.761035 0.049184 -0.153644
C112  C     C_R   0.384614 0.761010 0.950793 -0.153670
H45   H     H_    0.120990 0.269802 0.087481 0.151926
H46   H     H_    0.878873 0.269516 0.912259 0.151904
H47   H     H_    0.621009 0.769758 0.087520 0.152076
H48   H     H_    0.378969 0.769712 0.912439 0.152069
C113  C     C_R   0.151142 0.261259 0.048936 -0.184544
C114  C     C_R   0.848778 0.261102 0.950918 -0.184820
C115  C     C_R   0.651153 0.761236 0.048958 -0.184016
C116  C     C_R   0.348834 0.761211 0.951018 -0.184093
H49   H     H_    0.183842 0.269919 0.087273 0.158123
H50   H     H_    0.816020 0.269638 0.912473 0.157949
H51   H     H_    0.683862 0.769878 0.087310 0.158210
H52   H     H_    0.316116 0.769833 0.912649 0.158173
C117  C     C_R   0.144815 0.250000 0.999965 -0.030741
C118  C     C_R   0.855180 0.250000 0.000034 -0.030553
C119  C     C_R   0.644815 0.750000 0.999965 -0.030778
C120  C     C_R   0.355184 0.750000 0.000034 -0.030738
N9    N     N_R   0.043058 0.250260 0.051907 -0.172900
N10   N     N_R   0.956932 0.250083 0.948086 -0.172883
N11   N     N_R   0.543063 0.750184 0.051911 -0.172697
N12   N     N_R   0.456936 0.750156 0.948089 -0.172698
N13   N     N_R   0.008782 0.250149 0.051922 -0.172168
N14   N     N_R   0.991208 0.249971 0.948073 -0.172128
N15   N     N_R   0.508787 0.750072 0.051925 -0.171828
N16   N     N_R   0.491212 0.750044 0.948075 -0.171818
C121  C     C_R   0.965125 0.250113 0.000011 0.286666
C122  C     C_R   0.034865 0.250113 0.999983 0.286718
C123  C     C_R   0.465129 0.750111 0.000014 0.286890
C124  C     C_R   0.534869 0.750111 0.999985 0.286907
C125  C     C_3   0.156514 0.391308 0.753931 -0.218524
C126  C     C_3   0.843635 0.390599 0.247491 -0.218526
C127  C     C_3   0.656631 0.892690 0.756700 -0.218588
C128  C     C_3   0.343371 0.892507 0.243666 -0.218577
C129  C     C_3   0.148463 0.357307 0.742424 -0.213542
C130  C     C_3   0.852882 0.356667 0.258853 -0.213625
C131  C     C_3   0.651091 0.858640 0.745091 -0.213383
C132  C     C_3   0.349256 0.858457 0.255275 -0.213413
H53   H     H_    0.167618 0.342080 0.736225 0.159916
H54   H     H_    0.834850 0.340921 0.266093 0.159980
H55   H     H_    0.672443 0.844503 0.741071 0.159766
H56   H     H_    0.328195 0.844171 0.259594 0.159780
H57   H     H_    0.181873 0.404775 0.756766 0.165357
H58   H     H_    0.818391 0.403492 0.245805 0.165424
H59   H     H_    0.682081 0.907276 0.761779 0.165144
H60   H     H_    0.317923 0.906945 0.238883 0.165174
H61   H     H_    0.072133 0.352148 0.652221 0.143558
H62   H     H_    0.930038 0.352267 0.347532 0.143562
H63   H     H_    0.576681 0.852069 0.652053 0.143531
H64   H     H_    0.423944 0.852067 0.347950 0.143528
C133  C     C_1   0.187104 0.312936 0.874229 -0.143153
C134  C     C_1   0.812890 0.312935 0.125772 -0.143166
C135  C     C_1   0.687094 0.812935 0.874228 -0.143150
C136  C     C_1   0.312905 0.812935 0.125771 -0.143154
C137  C     C_1   0.062960 0.437162 0.625953 -0.173373
C138  C     C_1   0.937039 0.437162 0.374047 -0.173374
C139  C     C_1   0.562956 0.937162 0.625953 -0.173386
C140  C     C_1   0.437043 0.937162 0.374047 -0.173385
C141  C     C_3   0.153523 0.388134 0.802767 0.364787
C142  C     C_3   0.845282 0.388067 0.197370 0.364838
C143  C     C_3   0.651017 0.888176 0.802858 0.364710
C144  C     C_3   0.348638 0.888177 0.197140 0.364717
C145  C     C_3   0.145994 0.354759 0.791956 0.090295
C146  C     C_3   0.853982 0.354757 0.208046 0.090291
C147  C     C_3   0.645942 0.854759 0.791957 0.090324
C148  C     C_3   0.354051 0.854759 0.208042 0.090323
C149  C     C_3   0.101999 0.393621 0.758707 -0.216237
C150  C     C_3   0.896608 0.394260 0.240017 -0.216199
C151  C     C_3   0.599270 0.892282 0.756029 -0.216263
C152  C     C_3   0.400369 0.892466 0.243604 -0.216262
C153  C     C_3   0.104686 0.395948 0.709383 0.146956
C154  C     C_3   0.895297 0.395946 0.290620 0.146954
C155  C     C_3   0.604650 0.895948 0.709383 0.146979
C156  C     C_3   0.395345 0.895948 0.290617 0.146978
C157  C     C_3   0.094177 0.359609 0.747180 -0.213169
C158  C     C_3   0.905634 0.360312 0.251410 -0.213097
C159  C     C_3   0.593970 0.858233 0.744423 -0.213369
C160  C     C_3   0.406015 0.858415 0.255213 -0.213338
C161  C     C_3   0.096289 0.362407 0.696945 -0.131068
C162  C     C_3   0.904895 0.362472 0.302920 -0.131128
C163  C     C_3   0.598769 0.862364 0.696853 -0.130958
C164  C     C_3   0.401572 0.862362 0.303149 -0.130972
C165  C     C_1   0.168485 0.331818 0.836970 0.016384
C166  C     C_1   0.831502 0.331817 0.163031 0.016401
C167  C     C_1   0.668458 0.831818 0.836970 0.016328
C168  C     C_1   0.331539 0.831818 0.163030 0.016326
C169  C     C_1   0.081812 0.418506 0.663664 -0.028748
C170  C     C_1   0.918182 0.418505 0.336337 -0.028746
C171  C     C_1   0.581797 0.918505 0.663664 -0.028774
C172  C     C_1   0.418201 0.918505 0.336336 -0.028772
H65   H     H_    0.068969 0.346264 0.744868 0.159120
H66   H     H_    0.930711 0.347543 0.252568 0.159113
H67   H     H_    0.568643 0.843763 0.739855 0.159138
H68   H     H_    0.431338 0.844094 0.259482 0.159135
H69   H     H_    0.083245 0.408958 0.765406 0.166094
H70   H     H_    0.914231 0.410114 0.232284 0.166039
H71   H     H_    0.578303 0.906537 0.760563 0.166265
H72   H     H_    0.421043 0.906869 0.238772 0.166242
O33   O     O_R   0.502030 0.030780 0.561620 -0.614312
O34   O     O_R   0.497970 0.030780 0.438380 -0.614338
O35   O     O_R   0.002030 0.530780 0.561620 -0.614514
O36   O     O_R   0.997970 0.530780 0.438380 -0.614610
O37   O     O_R   0.559540 0.030780 0.561620 -0.615328
O38   O     O_R   0.440460 0.030780 0.438380 -0.615306
O39   O     O_R   0.059540 0.530780 0.561620 -0.615126
O40   O     O_R   0.940460 0.530780 0.438380 -0.615023
C173  C     C_R   0.540633 0.040641 0.581349 0.905986
C174  C     C_R   0.459367 0.040641 0.418651 0.905985
C175  C     C_R   0.040633 0.540641 0.581349 0.905976
C176  C     C_R   0.959367 0.540641 0.418651 0.905969
Zn9   Zn    Zn3+2 0.461570 0.999970 0.499990 0.984147
Zn10  Zn    Zn3+2 0.538430 0.999970 0.500010 0.984056
Zn11  Zn    Zn3+2 0.961570 0.499970 0.499990 0.984329
Zn12  Zn    Zn3+2 0.038430 0.499970 0.500010 0.983931
O41   O     O_R   0.940410 0.469170 0.438370 -0.614313
O42   O     O_R   0.059590 0.469170 0.561630 -0.614493
O43   O     O_R   0.440410 0.969170 0.438370 -0.614754
O44   O     O_R   0.559590 0.969170 0.561630 -0.614806
O45   O     O_R   0.997920 0.469160 0.438370 -0.614654
O46   O     O_R   0.002080 0.469160 0.561630 -0.614488
O47   O     O_R   0.497920 0.969160 0.438370 -0.614240
O48   O     O_R   0.502080 0.969160 0.561630 -0.614185
N17   N     N_R   0.352867 0.193356 0.993690 0.212248
O49   O     O_R   0.346479 0.187461 0.030699 -0.394135
O50   O     O_R   0.349383 0.171905 0.961522 -0.370249
N18   N     N_R   0.647060 0.193351 0.006154 0.212239
O51   O     O_R   0.653467 0.187490 0.969155 -0.394245
O52   O     O_R   0.650488 0.171871 0.038233 -0.370269
N19   N     N_R   0.852840 0.693357 0.993635 0.212195
O53   O     O_R   0.846460 0.687450 0.030648 -0.394201
O54   O     O_R   0.849336 0.671916 0.961435 -0.370633
N20   N     N_R   0.147048 0.693350 0.006130 0.212179
O55   O     O_R   0.153459 0.687494 0.969132 -0.394301
O56   O     O_R   0.150468 0.671866 0.038196 -0.370550
N21   N     N_R   0.184720 0.402730 0.860386 0.207255
O57   O     O_R   0.187766 0.431563 0.863173 -0.374236
O58   O     O_R   0.209581 0.387225 0.909107 -0.374811
N22   N     N_R   0.812771 0.402591 0.139902 0.207248
O59   O     O_R   0.808814 0.431373 0.137219 -0.374342
O60   O     O_R   0.787639 0.387071 0.091211 -0.375009
N23   N     N_R   0.679462 0.902820 0.860577 0.207273
O61   O     O_R   0.680597 0.931685 0.863434 -0.374010
O62   O     O_R   0.703755 0.887324 0.909320 -0.374475
N24   N     N_R   0.319815 0.902823 0.139419 0.207271
O63   O     O_R   0.318417 0.931689 0.136561 -0.374038
O64   O     O_R   0.295444 0.887328 0.090676 -0.374512

loop_
_geom_bond_atom_site_label_1
_geom_bond_atom_site_label_2
_geom_bond_distance
_ccdc_geom_bond_type
C43   N7    1.355646 A    
C48   O48   1.278724 A    
C150  C154  1.537872 S    
C35   H11   1.083663 S    
C154  C162  1.537043 S    
C18   N18   1.438187 S    
N21   O57   1.300208 A    
C51   C67   1.548050 S    
C105  C122  1.463581 S    
C146  C158  1.538976 S    
C143  C147  1.523325 S    
O38   C174  1.279250 A    
O35   C175  1.279188 A    
C52   H20   1.110136 S    
N4    C43   1.356852 A    
N9    N13   1.328819 A    
C132  H56   1.110120 S    
C127  C155  1.537884 S    
C22   C26   1.403342 A    
C129  C145  1.538965 S    
C125  C129  1.553989 S    
O36   Zn12  1.997079 S    
C157  C161  1.551193 S    
C74   C78   1.533708 S    
C112  H48   1.083094 S    
N10   C121  1.356235 A    
C26   C30   1.401336 A    
C159  C163  1.551190 S    
O4    C4    1.274108 A    
C75   C83   1.548193 S    
C67   H35   1.110132 S    
C150  H70   1.110155 S    
C25   C42   1.467678 S    
C151  C159  1.554002 S    
C11   C135  1.415251 S    
C46   O46   1.278736 A    
C72   C92   1.447633 S    
C153  C169  1.445594 S    
N12   N16   1.328821 A    
C71   C91   1.447639 S    
C14   C118  1.461537 S    
C23   H3    1.082985 S    
C134  C166  1.193937 T    
Zn11  O41   1.995933 S    
C50   C66   1.548051 S    
O7    Zn7   1.996461 S    
N22   O59   1.300207 A    
Zn1   O25   2.009044 S    
C116  C120  1.402093 A    
N2    C41   1.356851 A    
Zn3   O19   1.996206 S    
C42   N6    1.355635 A    
Zn4   O28   2.009048 S    
O13   C5    1.277068 A    
O37   Zn10  1.996419 S    
Zn5   O29   2.008501 S    
C128  C156  1.537883 S    
O15   C7    1.277065 A    
C70   C90   1.447633 S    
C130  C162  1.551192 S    
O11   Zn3   2.008565 S    
C74   C82   1.548195 S    
C84   C88   1.548207 S    
C112  C116  1.391242 A    
C100  H40   1.083208 S    
O9    C5    1.277515 A    
O2    Zn2   1.995407 S    
C19   C39   1.413760 A    
O10   Zn2   2.008561 S    
C17   C37   1.413761 A    
O6    Zn6   1.996457 S    
C23   C27   1.403330 A    
O19   C11   1.273522 A    
C61   C174  1.417451 S    
C16   C120  1.461627 S    
N11   C124  1.356227 A    
C125  C141  1.534665 S    
C101  C105  1.402715 A    
O36   C176  1.279186 A    
C99   C119  1.402094 A    
C4    C60   1.417198 S    
C36   H12   1.083658 S    
C50   C78   1.533664 S    
C17   C21   1.396916 A    
C35   C39   1.401136 A    
C19   C23   1.396918 A    
C20   C24   1.396931 A    
C113  C117  1.402106 A    
C47   O47   1.278724 A    
O24   C12   1.273656 A    
C49   H17   1.110136 S    
C111  H47   1.083095 S    
C79   C95   1.447758 S    
C74   H30   1.110130 S    
C68   H36   1.110134 S    
C75   H31   1.110130 S    
C104  C108  1.402704 A    
O3    C3    1.274106 A    
C46   O42   1.278672 A    
C21   H1    1.082988 S    
C100  C120  1.402090 A    
C82   C86   1.548205 S    
C29   H5    1.082833 S    
C131  H55   1.110121 S    
C98   C102  1.391221 A    
C53   C85   1.548135 S    
C31   H7    1.082830 S    
O26   C14   1.278617 A    
N15   C123  1.356238 A    
C140  C172  1.193975 T    
C45   C138  1.415454 S    
C128  H60   1.110157 S    
C44   N8    1.355634 A    
C125  H57   1.110165 S    
C137  C169  1.193976 T    
C82   H26   1.110149 S    
C76   H32   1.110131 S    
C24   H4    1.082977 S    
C126  C130  1.553985 S    
N11   N15   1.328818 A    
C78   C94   1.447753 S    
C19   N19   1.438165 S    
C141  N21   1.457226 S    
N17   O50   1.301365 A    
C56   C72   1.533660 S    
C67   C71   1.533668 S    
N9    C122  1.356232 A    
C106  C110  1.402741 A    
C155  C163  1.537043 S    
C50   C54   1.548059 S    
C141  C149  1.534682 S    
O20   C12   1.273525 A    
C145  C165  1.446572 S    
C58   C90   1.195063 T    
C143  C151  1.534685 S    
O29   C13   1.278630 A    
C152  C160  1.554005 S    
C111  C115  1.391244 A    
C8    C40   1.459624 S    
C109  C113  1.391238 A    
N20   O56   1.301370 A    
C20   C40   1.413747 A    
C13   C117  1.461650 S    
C22   H2    1.082988 S    
C83   C87   1.548204 S    
C130  C146  1.538961 S    
C77   C93   1.447756 S    
N12   C123  1.356226 A    
N20   O55   1.301350 A    
C15   C119  1.461648 S    
C156  C164  1.537046 S    
N14   C122  1.356237 A    
C84   H28   1.110152 S    
C56   H16   1.110136 S    
C79   C87   1.533718 S    
C72   C84   1.533655 S    
C75   C79   1.533705 S    
O5    C1    1.274096 A    
O40   Zn11  1.996423 S    
N24   O64   1.300260 A    
O8    C4    1.274098 A    
C52   C80   1.533668 S    
C149  C157  1.554012 S    
H63   C163  1.110101 S    
C70   C82   1.533658 S    
C154  C170  1.445590 S    
O25   C13   1.278648 A    
C53   H13   1.110135 S    
O27   C15   1.278645 A    
C51   C79   1.533664 S    
C55   H15   1.110133 S    
N23   O62   1.300259 A    
C97   C117  1.402095 A    
C144  N24   1.457231 S    
Zn5   O21   1.995037 S    
C52   C56   1.548064 S    
Zn2   O26   2.009048 S    
O16   Zn8   2.009045 S    
C127  C143  1.534673 S    
O14   C6    1.277067 A    
Zn6   O30   2.008505 S    
C76   C80   1.533705 S    
N18   O51   1.301341 A    
C115  C119  1.402097 A    
C129  H53   1.110142 S    
O10   C6    1.277505 A    
O3    Zn3   1.995412 S    
C69   C81   1.533660 S    
C66   C74   1.548106 S    
O37   C173  1.279249 A    
C160  H68   1.110116 S    
C53   C69   1.533661 S    
C103  H43   1.083099 S    
O35   Zn11  1.997072 S    
C101  H41   1.083096 S    
C126  C142  1.534674 S    
C132  C164  1.551187 S    
C63   C95   1.195171 T    
C48   C139  1.415458 S    
C36   C40   1.401127 A    
C148  C168  1.446569 S    
O40   C176  1.279250 A    
Zn1   O17   1.996206 S    
C28   C43   1.467668 S    
C66   H34   1.110131 S    
C18   C22   1.396924 A    
C45   O45   1.278736 A    
N5    N6    1.327205 A    
C45   O41   1.278667 A    
O13   Zn5   2.009048 S    
O23   C11   1.273659 A    
O15   Zn7   2.009048 S    
C32   C36   1.389165 A    
C106  C121  1.463572 S    
C5    C37   1.459652 S    
O33   Zn9   1.997072 S    
H61   C161  1.110079 S    
C104  H44   1.083105 S    
C65   C73   1.548101 S    
N22   O60   1.300261 A    
C56   C88   1.548133 S    
Zn11  O46   1.997562 S    
H21   C85   1.110137 S    
O17   C9    1.273520 A    
C135  C167  1.193941 T    
C136  C168  1.193940 T    
Zn12  O42   1.995938 S    
C98   H38   1.083225 S    
C29   C33   1.389166 A    
C52   C68   1.548044 S    
C54   C86   1.548131 S    
C80   C96   1.447754 S    
C97   C101  1.391218 A    
C46   C137  1.415457 S    
C100  C104  1.391225 A    
C25   C29   1.401324 A    
C152  H72   1.110156 S    
C26   C41   1.467672 S    
C33   C37   1.401138 A    
C138  C170  1.193973 T    
C144  C152  1.534687 S    
Zn7   O31   2.008501 S    
O34   Zn10  1.997079 S    
C107  C111  1.402699 A    
Zn8   O32   2.008505 S    
C30   C34   1.389162 A    
C149  H69   1.110182 S    
N21   O58   1.300264 A    
Zn9   O43   1.995933 S    
C51   H19   1.110136 S    
C32   H8    1.082842 S    
O1    C1    1.274106 A    
C66   C70   1.533663 S    
N3    C44   1.356856 A    
C17   N17   1.438165 S    
C34   H10   1.083665 S    
C145  C157  1.538988 S    
N13   C121  1.356238 A    
C55   C87   1.548135 S    
C50   H18   1.110139 S    
C151  C155  1.537877 S    
C107  C124  1.463545 S    
C60   C92   1.195065 T    
C141  C145  1.523323 S    
C10   C134  1.415246 S    
C61   C93   1.195172 T    
C142  C150  1.534690 S    
O21   C9    1.273659 A    
O28   C16   1.278640 A    
C59   C91   1.195061 T    
C152  C156  1.537874 S    
C125  C153  1.537898 S    
O30   C14   1.278592 A    
C6    C38   1.459620 S    
C131  C147  1.538966 S    
C18   C38   1.413748 A    
C20   N20   1.438180 S    
C63   C176  1.417451 S    
C64   C175  1.417446 S    
Zn12  O45   1.997557 S    
C128  C144  1.534676 S    
Zn9   O48   1.997562 S    
N16   C124  1.356237 A    
C102  C106  1.402738 A    
C65   C69   1.533667 S    
C78   C86   1.533712 S    
O38   Zn9   1.996423 S    
C127  C131  1.553985 S    
C68   C72   1.533669 S    
C126  C154  1.537886 S    
O6    C2    1.274098 A    
C27   C44   1.467680 S    
C148  C160  1.538974 S    
C34   C38   1.401128 A    
C149  C153  1.537880 S    
C71   C83   1.533658 S    
C153  C161  1.537034 S    
C150  C158  1.554010 S    
C12   C136  1.415245 S    
C151  H71   1.110158 S    
N19   O53   1.301355 A    
C155  C171  1.445593 S    
C126  H58   1.110153 S    
C31   C35   1.389167 A    
C57   C89   1.195061 T    
C147  C159  1.538974 S    
O39   C175  1.279249 A    
C81   C85   1.548212 S    
N17   O49   1.301353 A    
C113  H49   1.083212 S    
C62   C173  1.417446 S    
Zn3   O27   2.009044 S    
Zn10  O47   1.997557 S    
Zn4   O20   1.996201 S    
C30   H6    1.082841 S    
C81   H25   1.110150 S    
N7    N8    1.327197 A    
C76   C84   1.548192 S    
C77   C85   1.533717 S    
C73   C77   1.533706 S    
C158  H66   1.110115 S    
O12   Zn4   2.008561 S    
C115  H51   1.083208 S    
N23   O61   1.300212 A    
C80   C88   1.533715 S    
C69   C89   1.447637 S    
N1    N2    1.329375 A    
N3    N4    1.329367 A    
C28   C32   1.401330 A    
C68   C76   1.548098 S    
C2    C58   1.417198 S    
O7    C3    1.274096 A    
C67   C75   1.548100 S    
C54   C70   1.533663 S    
C103  C107  1.402703 A    
C99   H39   1.083206 S    
H64   C164  1.110100 S    
C133  C165  1.193939 T    
N10   N14   1.328817 A    
C132  C148  1.538965 S    
C49   C65   1.548046 S    
C146  C166  1.446569 S    
Zn2   O18   1.996201 S    
C143  N23   1.457228 S    
O16   C8    1.277063 A    
C105  C109  1.402722 A    
O14   Zn6   2.009045 S    
C108  C123  1.463543 S    
C129  C161  1.551199 S    
C49   C53   1.548062 S    
C73   C81   1.548192 S    
Zn8   O24   1.995032 S    
O33   C173  1.279188 A    
O12   C8    1.277501 A    
O1    Zn1   1.995412 S    
H62   C162  1.110097 S    
O9    Zn1   2.008565 S    
C110  C114  1.391239 A    
C127  H59   1.110159 S    
O4    Zn4   1.995407 S    
C62   C94   1.195169 T    
O5    Zn5   1.996461 S    
H22   C86   1.110134 S    
Zn10  O44   1.995938 S    
C55   C71   1.533662 S    
O18   C10   1.273525 A    
C142  N22   1.457234 S    
O8    Zn8   1.996457 S    
C116  H52   1.083211 S    
N18   O52   1.301373 A    
C97   H37   1.083207 S    
C64   C96   1.195168 T    
C114  H50   1.083235 S    
C131  C163  1.551189 S    
C128  C132  1.553985 S    
C47   C140  1.415456 S    
C49   C77   1.533667 S    
C108  C112  1.402703 A    
C9    C133  1.415252 S    
C139  C171  1.193978 T    
C144  C148  1.523320 S    
O34   C174  1.279186 A    
C157  H65   1.110120 S    
N19   O54   1.301362 A    
C54   H14   1.110135 S    
C73   H29   1.110132 S    
C98   C118  1.402072 A    
C158  C162  1.551194 S    
C7    C39   1.459672 S    
O2    C2    1.274108 A    
H23   C87   1.110136 S    
C47   O43   1.278678 A    
H24   C88   1.110134 S    
O31   C15   1.278619 A    
C21   C25   1.403338 A    
O32   C16   1.278613 A    
C48   O44   1.278681 A    
C109  H45   1.083098 S    
C160  C164  1.551195 S    
C99   C103  1.391227 A    
C142  C146  1.523315 S    
O22   C10   1.273656 A    
C1    C57   1.417208 S    
C130  H54   1.110120 S    
C114  C118  1.402077 A    
C3    C59   1.417208 S    
C27   C31   1.401323 A    
N24   O63   1.300206 A    
O11   C7    1.277523 A    
C159  H67   1.110119 S    
Zn7   O23   1.995037 S    
C24   C28   1.403337 A    
C33   H9    1.083665 S    
C102  H42   1.083120 S    
C147  C167  1.446570 S    
C156  C172  1.445586 S    
C83   H27   1.110149 S    
C65   H33   1.110136 S    
C110  H46   1.083106 S    
C51   C55   1.548062 S    
O39   Zn12  1.996419 S    
Zn6   O22   1.995032 S    
N1    C42   1.356857 A    
C41   N5    1.355641 A    
