data_mof_unit_20898.cif
_audit_creation_date              2012-12-10T18:25:31-0500
_audit_creation_method            fapswitch 2.2
_symmetry_space_group_name_H-M    P1
_symmetry_Int_Tables_number       1
_space_group_crystal_system       triclinic
_cell_length_a                    14.864826
_cell_length_b                    14.226267
_cell_length_c                    19.265436
_cell_angle_alpha                 89.808736
_cell_angle_beta                  87.600676
_cell_angle_gamma                 90.203254
_cell_volume                      4070.45865299

loop_
_atom_site_label
_atom_site_type_symbol
_atom_type_description
_atom_site_fract_x
_atom_site_fract_y
_atom_site_fract_z
_atom_type_partial_charge
C1    C     C_R   0.327371 0.499839 0.499700 0.855680
C2    C     C_R   0.672659 0.500059 0.500054 0.863050
C3    C     C_R   0.809914 0.505488 0.562602 -0.223828
C4    C     C_R   0.190153 0.482478 0.437878 -0.223056
C5    C     C_R   0.903253 0.514040 0.563575 0.000375
C6    C     C_R   0.097066 0.492545 0.435045 -0.003306
C7    C     C_R   0.953337 0.508469 0.499165 0.000874
C8    C     C_R   0.046957 0.508506 0.498362 0.008164
C9    C     C_R   0.909373 0.500097 0.435653 0.011157
C10   C     C_R   0.090935 0.521866 0.561323 0.000641
C11   C     C_R   0.947587 0.525753 0.626772 -0.118900
C12   C     C_R   0.053054 0.485551 0.371422 -0.133847
C13   C     C_R   0.041842 0.534206 0.624531 0.419442
C14   C     C_R   0.958697 0.494409 0.371934 0.472314
C15   C     C_R   0.550913 0.798854 0.450740 0.043837
C16   C     C_R   0.437475 0.200328 0.539650 0.038025
C17   C     C_R   0.449237 0.798092 0.549317 0.034934
C18   C     C_R   0.563357 0.201734 0.460548 0.030635
C19   C     C_R   0.443578 0.898882 0.547921 -0.108595
C20   C     C_R   0.558445 0.101336 0.453483 -0.054301
C21   C     C_R   0.558374 0.899495 0.453067 -0.100101
C22   C     C_R   0.444303 0.100372 0.547521 -0.058038
C23   C     C_R   0.501202 0.949473 0.500544 0.071521
C24   C     C_R   0.501307 0.050182 0.500466 0.057004
C25   C     C_R   0.385214 0.950941 0.594354 -0.078981
C26   C     C_R   0.610889 0.050968 0.402707 -0.012561
C27   C     C_R   0.618307 0.952015 0.407586 -0.093836
C28   C     C_R   0.394146 0.049639 0.599708 -0.004671
C29   C     C_R   0.500489 0.500472 0.365665 0.903558
C30   C     C_R   0.498144 0.500292 0.634421 0.900923
C31   C     C_R   0.452345 0.577699 0.256872 0.402600
C32   C     C_R   0.452662 0.428504 0.748649 0.441143
C33   C     C_R   0.531917 0.579150 0.746335 0.401321
C34   C     C_R   0.533410 0.428588 0.249877 0.444853
C35   C     C_R   0.446004 0.577124 0.184988 -0.253132
C36   C     C_R   0.455753 0.426903 0.820567 -0.249186
C37   C     C_R   0.529292 0.578958 0.818686 -0.250191
C38   C     C_R   0.520192 0.425979 0.178937 -0.244392
C39   C     C_R   0.478308 0.500698 0.146270 -0.052761
C40   C     C_R   0.492914 0.502233 0.855712 -0.055575
C41   C     C_R   0.495534 0.502238 0.290018 -0.256000
C42   C     C_R   0.495368 0.501990 0.710540 -0.252067
C43   C     C_R   0.487921 0.502584 0.931165 0.340571
C44   C     C_R   0.476286 0.501819 0.071021 0.339877
C45   C     C_R   0.816013 0.497680 0.437005 -0.170356
C46   C     C_R   0.184189 0.521704 0.560197 -0.182709
C47   C     C_R   0.768010 0.500382 0.499918 -0.002731
C48   C     C_R   0.232089 0.499955 0.499430 -0.022149
H1    H     H_    0.415852 0.636602 0.159604 0.176195
H2    H     H_    0.422787 0.369610 0.848928 0.180379
H3    H     H_    0.554995 0.639403 0.845722 0.176267
H4    H     H_    0.547600 0.367936 0.148800 0.170981
H5    H     H_    0.779762 0.492599 0.389589 0.146166
H6    H     H_    0.220284 0.536163 0.606670 0.171650
H7    H     H_    0.768367 0.502522 0.609746 0.100513
H8    H     H_    0.231559 0.463324 0.392738 0.113216
N1    N     N_R   0.477154 0.419873 0.035453 -0.172844
N2    N     N_R   0.486619 0.584691 0.966674 -0.175584
N3    N     N_R   0.482338 0.420269 0.966622 -0.172672
N4    N     N_R   0.480895 0.584310 0.035629 -0.173995
N5    N     N_R   0.500000 0.750030 0.500000 -0.156124
N6    N     N_R   0.500000 0.249970 0.500000 -0.175870
O1    O     O_R   0.367850 0.580280 0.500020 -0.568977
O2    O     O_R   0.632150 0.419720 0.499980 -0.640062
O3    O     O_R   0.632150 0.580280 0.499980 -0.567860
O4    O     O_R   0.367850 0.419720 0.500020 -0.640947
O5    O     O_R   0.499990 0.580300 0.398140 -0.579059
O6    O     O_R   0.500010 0.419700 0.601860 -0.615893
O7    O     O_R   0.500010 0.580300 0.601860 -0.583768
O8    O     O_R   0.499990 0.419700 0.398140 -0.617814
Zn1   Zn    Zn3+2 0.500000 0.607200 0.500000 1.011421
Zn2   Zn    Zn3+2 0.500000 0.392800 0.500000 0.956714
O9    O     O_3   0.425466 0.657251 0.293036 -0.638877
C49   C     C_3   0.333150 0.649586 0.312150 0.076912
H9    H     H_    0.320626 0.586847 0.345798 0.124165
H10   H     H_    0.292045 0.644406 0.265220 0.131606
C50   C     C_3   0.304884 0.737373 0.352964 -0.297735
H11   H     H_    0.346758 0.744261 0.399192 0.243817
H12   H     H_    0.316538 0.800461 0.319549 0.220963
C51   C     C_3   0.205801 0.733448 0.376947 -0.901999
H13   H     H_    0.162493 0.722409 0.332045 0.244969
H14   H     H_    0.186590 0.800694 0.402515 0.290017
H15   H     H_    0.194198 0.675748 0.415098 0.274693
O10   O     O_3   0.399162 0.363212 0.717082 -0.655731
C52   C     C_3   0.308503 0.394826 0.720846 0.019916
H16   H     H_    0.292041 0.423340 0.669339 0.152250
H17   H     H_    0.294345 0.451540 0.759878 0.141367
C53   C     C_3   0.245994 0.312132 0.739006 -0.352180
H18   H     H_    0.256626 0.255956 0.699990 0.275452
H19   H     H_    0.261988 0.283810 0.790875 0.232191
C54   C     C_3   0.147251 0.340991 0.739799 -0.753825
H20   H     H_    0.134288 0.399171 0.777173 0.277664
H21   H     H_    0.104190 0.280085 0.755737 0.265215
H22   H     H_    0.128941 0.363560 0.687018 0.287765
O11   O     O_3   0.557810 0.660744 0.711784 -0.645064
C55   C     C_3   0.651808 0.660978 0.699492 0.077155
H23   H     H_    0.673050 0.597474 0.669829 0.121609
H24   H     H_    0.686781 0.663390 0.749497 0.141290
C56   C     C_3   0.677717 0.748098 0.656338 -0.304137
H25   H     H_    0.642426 0.746360 0.606592 0.242500
H26   H     H_    0.655901 0.812133 0.685256 0.220797
C57   C     C_3   0.778988 0.753690 0.640417 -0.914874
H27   H     H_    0.816113 0.753467 0.689273 0.250678
H28   H     H_    0.795247 0.819671 0.611535 0.290862
H29   H     H_    0.801344 0.693511 0.607683 0.265477
O12   O     O_3   0.588219 0.362047 0.278893 -0.657905
C58   C     C_3   0.680024 0.385874 0.264091 0.049290
H30   H     H_    0.715581 0.383656 0.313461 0.172416
H31   H     H_    0.691203 0.458285 0.242600 0.125714
C59   C     C_3   0.723809 0.314234 0.214253 -0.377596
H32   H     H_    0.710129 0.242033 0.233935 0.262373
H33   H     H_    0.694982 0.320882 0.162282 0.209755
C60   C     C_3   0.825473 0.329075 0.206632 -0.747633
H34   H     H_    0.841014 0.400957 0.186759 0.259993
H35   H     H_    0.854957 0.277205 0.169324 0.255800
H36   H     H_    0.856716 0.319031 0.257499 0.306451
C61   C     C_2   0.897094 0.530614 0.695182 0.437759
H37   H     H_    0.830662 0.561297 0.699650 0.020255
O13   O     O_2   0.929618 0.500145 0.747861 -0.522467
C62   C     C_2   0.104350 0.471524 0.304151 0.442247
H38   H     H_    0.170907 0.501701 0.295376 0.015239
O14   O     O_2   0.072431 0.425980 0.257470 -0.520911
O15   O     O_3   0.087062 0.546540 0.685249 -0.634357
C63   C     C_3   0.095882 0.643673 0.698064 0.106212
H39   H     H_    0.028608 0.675140 0.710408 0.151525
H40   H     H_    0.128100 0.680965 0.652379 0.172169
C64   C     C_3   0.155358 0.656792 0.760093 -0.324108
H41   H     H_    0.127530 0.615004 0.804946 0.242656
H42   H     H_    0.224264 0.630760 0.746362 0.219934
C65   C     C_3   0.160700 0.759810 0.781196 -0.894648
H43   H     H_    0.186383 0.803253 0.736725 0.284907
H44   H     H_    0.207114 0.767432 0.824523 0.262784
H45   H     H_    0.093094 0.785604 0.798745 0.267618
O16   O     O_3   0.913484 0.491439 0.310406 -0.631882
C66   C     C_3   0.919884 0.579670 0.276047 0.067834
H46   H     H_    0.924449 0.565681 0.219312 0.188738
H47   H     H_    0.981298 0.621049 0.287992 0.117444
C67   C     C_3   0.835596 0.638429 0.292500 -0.361723
H48   H     H_    0.774524 0.596147 0.282612 0.225009
H49   H     H_    0.833601 0.658893 0.348131 0.264670
C68   C     C_3   0.834660 0.727318 0.248074 -0.852263
H50   H     H_    0.893219 0.772790 0.259118 0.272202
H51   H     H_    0.771813 0.766920 0.260178 0.270813
H52   H     H_    0.836884 0.709059 0.192016 0.248041
C69   C     C_2   0.588412 0.747231 0.390119 0.518482
H53   H     H_    0.563413 0.761870 0.339119 0.043141
O17   O     O_2   0.651292 0.693336 0.395439 -0.556081
C70   C     C_2   0.357996 0.250643 0.567849 0.433505
H54   H     H_    0.366150 0.314905 0.595919 0.137102
O18   O     O_2   0.282258 0.220770 0.558851 -0.543878
C71   C     C_2   0.408918 0.745167 0.608682 0.511341
H55   H     H_    0.432802 0.757794 0.660215 0.057926
O19   O     O_2   0.344108 0.693826 0.601981 -0.560873
C72   C     C_2   0.641229 0.254583 0.431286 0.465334
H56   H     H_    0.631061 0.317014 0.401195 0.123518
O20   O     O_2   0.717866 0.229408 0.442089 -0.529684
C73   C     C_2   0.309001 0.905482 0.633489 0.507185
H57   H     H_    0.308569 0.901473 0.689728 0.063662
O21   O     O_2   0.246010 0.872889 0.602626 -0.530611
C74   C     C_2   0.648852 0.100419 0.339660 0.370532
H58   H     H_    0.608430 0.152965 0.314606 0.068663
O22   O     O_2   0.725610 0.086391 0.317131 -0.542284
C75   C     C_2   0.694380 0.906597 0.368593 0.500790
H59   H     H_    0.699510 0.910645 0.312332 0.059617
O23   O     O_2   0.752927 0.866237 0.399691 -0.516653
C76   C     C_2   0.362142 0.098590 0.664608 0.363557
H60   H     H_    0.400975 0.157130 0.683701 0.083992
O24   O     O_2   0.292540 0.076354 0.696435 -0.566808

loop_
_geom_bond_atom_site_label_1
_geom_bond_atom_site_label_2
_ccdc_geom_bond_type
C66   C67   S    
C9    C45   A    
C73   H57   S    
C11   C13   A    
O9    C49   S    
C65   H44   S    
O11   C55   S    
C2    O3    A    
C69   H53   S    
O15   C63   S    
C50   H11   S    
C25   C28   A    
C26   C27   A    
C49   H10   S    
C33   C42   A    
C32   C36   A    
C63   H40   S    
C75   O23   D    
C70   O18   D    
C5    C11   A    
C37   C40   A    
C68   H51   S    
C6    C12   A    
C38   C39   A    
C37   H3    S    
C31   O9    S    
C38   H4    S    
O12   C58   S    
N2    N4    A    
C55   C56   S    
C1    O1    A    
C57   H29   S    
C7    C9    A    
O7    Zn1   S    
C59   H32   S    
C43   N2    A    
C27   C75   S    
C29   O5    A    
C3    H7    S    
C40   C43   S    
C12   C62   S    
C20   C24   A    
O4    Zn2   S    
C49   C50   S    
C55   H24   S    
C35   H1    S    
C58   H30   S    
C26   C74   S    
C66   H46   S    
C72   O20   D    
C18   C72   S    
C43   N3    A    
C60   H36   S    
C17   N5    A    
N5    Zn1   S    
C45   C47   A    
C21   C27   A    
C45   H5    S    
C73   O21   D    
C22   C28   A    
C4    H8    S    
C71   O19   D    
C76   O24   D    
C58   H31   S    
C17   C71   S    
C34   C41   A    
C16   N6    A    
C51   H15   S    
C33   O11   S    
C69   O17   D    
C62   O14   D    
C52   H17   S    
C32   O10   S    
C46   C48   A    
C49   H9    S    
C34   O12   S    
C7    C8    A    
C70   H54   S    
C2    O2    A    
C51   H14   S    
C68   H52   S    
C54   H20   S    
C5    C7    A    
C18   N6    A    
C6    C8    A    
C14   O16   S    
O3    Zn1   S    
C67   C68   S    
C33   C37   A    
O6    Zn2   S    
C74   O22   D    
C19   C23   A    
C9    C14   A    
C64   H42   S    
C10   C46   A    
C54   H21   S    
C56   H25   S    
C53   C54   S    
C36   C40   A    
C44   N1    A    
C71   H55   S    
C55   H23   S    
C46   H6    S    
C1    O4    A    
C15   N5    A    
C50   H12   S    
N6    Zn2   S    
O10   C52   S    
C57   H28   S    
C59   C60   S    
C72   H56   S    
O16   C66   S    
C67   H49   S    
C63   C64   S    
C4    C6    A    
C56   H26   S    
C53   H19   S    
C21   C23   A    
C25   C73   S    
C76   H60   S    
C58   C59   S    
C22   C24   A    
C65   H45   S    
C64   H41   S    
C11   C61   S    
C30   O7    A    
C36   H2    S    
C62   H38   S    
C15   C69   S    
C60   H34   S    
C4    C48   A    
C52   C53   S    
C66   H47   S    
C16   C22   A    
C31   C41   A    
C29   C41   S    
C34   C38   A    
O1    Zn1   S    
C51   H13   S    
C3    C5    A    
C10   C13   A    
C52   H16   S    
C18   C20   A    
C1    C48   S    
C39   C44   S    
C28   C76   S    
C2    C47   S    
C16   C70   S    
C74   H58   S    
C61   O13   D    
C65   H43   S    
C12   C14   A    
C64   C65   S    
C61   H37   S    
C54   H22   S    
C50   C51   S    
C20   C26   A    
C44   N4    A    
C13   O15   S    
C35   C39   A    
C31   C35   A    
C3    C47   A    
C17   C19   A    
C29   O8    A    
O5    Zn1   S    
O2    Zn2   S    
C57   H27   S    
C19   C25   A    
C59   H33   S    
C75   H59   S    
N1    N3    A    
C67   H48   S    
C23   C24   A    
C15   C21   A    
C56   C57   S    
C53   H18   S    
C8    C10   A    
C32   C42   A    
C30   C42   S    
O8    Zn2   S    
C68   H50   S    
C30   O6    A    
C63   H39   S    
C60   H35   S    
