data_mof_unit_56264.cif
_audit_creation_date              2013-03-05T15:58:05-0500
_audit_creation_method            fapswitch 2.2
_symmetry_space_group_name_H-M    P1
_symmetry_Int_Tables_number       1
_space_group_crystal_system       triclinic
_cell_length_a                    12.616884
_cell_length_b                    13.199654
_cell_length_c                    14.95411
_cell_angle_alpha                 90.818657
_cell_angle_beta                  103.128149
_cell_angle_gamma                 82.306464
_cell_volume                      2403.17884646

loop_
_atom_site_label
_atom_site_type_symbol
_atom_site_description
_atom_site_fract_x
_atom_site_fract_y
_atom_site_fract_z
_atom_type_partial_charge
O1    O     O_R   0.366740 0.627160 0.477250 -0.618055
O2    O     O_R   0.544830 0.662520 0.507680 -0.585745
C1    C     C_R   0.438951 0.691154 0.487103 0.873058
O3    O     O_R   0.410940 0.482340 0.616930 -0.615513
O4    O     O_R   0.589030 0.517700 0.647360 -0.636268
C2    C     C_R   0.500980 0.500291 0.673031 0.890801
Zn1   Zn    Zn3+2 0.381090 0.476390 0.479680 0.958332
Zn2   Zn    Zn3+2 0.618910 0.523610 0.520320 0.948686
O5    O     O_R   0.455170 0.337480 0.492320 -0.620287
O6    O     O_R   0.633260 0.372840 0.522750 -0.636267
O7    O     O_R   0.410970 0.482300 0.352640 -0.615090
O8    O     O_R   0.589060 0.517660 0.383070 -0.646548
C3    C     C_R   0.561141 0.309013 0.510150 0.889807
C4    C     C_R   0.498625 0.500395 0.326978 0.863315
C5    C     C_R   0.437578 0.435420 0.172708 -0.240207
C6    C     C_R   0.495742 0.502614 0.230798 -0.054677
C7    C     C_R   0.553819 0.570833 0.197774 -0.233303
C8    C     C_R   0.555095 0.571916 0.105462 0.069803
C9    C     C_R   0.498890 0.502760 0.046504 0.065712
C10   C     C_R   0.439659 0.434180 0.080409 0.122571
C11   C     C_R   0.612894 0.640247 0.072141 -0.177952
C12   C     C_R   0.616858 0.641165 0.979422 -0.042498
C13   C     C_R   0.559777 0.571867 0.919459 0.026444
C14   C     C_R   0.501809 0.501980 0.953914 0.069204
C15   C     C_R   0.445598 0.431514 0.895541 0.122647
C16   C     C_R   0.387783 0.363420 0.929751 -0.185937
C17   C     C_R   0.384513 0.364983 0.021918 -0.196265
C18   C     C_R   0.556148 0.571319 0.825569 -0.251751
C19   C     C_R   0.502713 0.500053 0.769228 -0.052223
C20   C     C_R   0.447616 0.430468 0.803521 -0.229224
H1    H     H_    0.393428 0.382549 0.199898 0.151779
H2    H     H_    0.597567 0.623289 0.244078 0.154277
H3    H     H_    0.656573 0.691981 0.119244 0.193675
H4    H     H_    0.589976 0.628299 0.794157 0.137970
H5    H     H_    0.405902 0.375949 0.758274 0.167329
H6    H     H_    0.344760 0.309356 0.885107 0.176476
H7    H     H_    0.339264 0.312027 0.047512 0.160535
C21   C     C_R   0.717977 0.059421 0.466481 0.337010
H8    H     H_    0.756212 0.213333 0.482382 0.179015
H9    H     H_    0.708455 0.867608 0.398853 0.194233
C22   C     C_R   0.598386 0.200274 0.510754 -0.100895
C23   C     C_R   0.313134 0.833832 0.526206 -0.221366
C24   C     C_R   0.307371 0.927193 0.569644 -0.067651
C25   C     C_R   0.391378 0.988362 0.575773 -0.027758
C26   C     C_R   0.470769 0.964530 0.520719 0.030955
C27   C     C_R   0.475641 0.869217 0.476891 0.131643
C28   C     C_R   0.546465 0.030547 0.508143 0.047461
C29   C     C_R   0.638157 0.994425 0.470225 0.068270
C30   C     C_R   0.642881 0.897776 0.431294 -0.134237
C31   C     C_R   0.557702 0.840686 0.427381 -0.166768
C32   C     C_R   0.524804 0.134692 0.521000 -0.295615
C33   C     C_R   0.698459 0.162009 0.489832 -0.244956
C34   C     C_R   0.403072 0.800682 0.488373 -0.115874
H10   H     H_    0.445341 0.167019 0.531347 0.174978
H11   H     H_    0.255396 0.782301 0.533313 0.178063
H12   H     H_    0.243973 0.945540 0.607728 0.213551
H13   H     H_    0.558824 0.771568 0.387520 0.145982
C35   C     C_R   0.087872 0.344097 0.374731 -0.265629
H14   H     H_    0.255080 0.326830 0.361283 0.136082
H15   H     H_    0.880940 0.311546 0.354696 0.175517
H16   H     H_    0.066481 0.282553 0.328177 0.164323
N1    N     N_R   0.222190 0.444670 0.452360 -0.108135
C36   C     C_R   0.801801 0.633613 0.605759 -0.032079
C37   C     C_R   0.904525 0.668758 0.619256 0.233303
C38   C     C_R   0.982588 0.618876 0.575933 -0.265080
C39   C     C_R   0.960300 0.534673 0.519510 -0.033359
C40   C     C_R   0.853384 0.505374 0.503778 0.206358
C41   C     C_R   0.040204 0.479515 0.477490 0.022212
C42   C     C_R   0.010537 0.398879 0.417202 0.180503
C43   C     C_R   0.904379 0.373181 0.400545 -0.245314
C44   C     C_R   0.827425 0.425193 0.443712 -0.174447
C45   C     C_R   0.149813 0.499739 0.494204 -0.030764
C46   C     C_R   0.194196 0.368702 0.393293 0.022433
N2    N     N_R   0.776970 0.554790 0.547140 -0.177160
H17   H     H_    0.181232 0.557045 0.540914 0.132555
H18   H     H_    0.059579 0.649022 0.586858 0.181138
H19   H     H_    0.748175 0.400687 0.428805 0.206506
N3    N     N_R   0.814986 0.025167 0.433794 0.197530
O9    O     O_R   0.806152 0.995261 0.349453 -0.396148
O10   O     O_R   0.909677 0.046191 0.480218 -0.351434
C47   C     C_2   0.403813 0.063987 0.650924 0.387741
H20   H     H_    0.483317 0.088064 0.679583 0.093444
O11   O     O_2   0.325874 0.098980 0.682781 -0.549654
C48   C     C_2   0.727294 0.673331 0.664134 0.595766
H21   H     H_    0.728438 0.630533 0.725453 -0.002645
O12   O     O_2   0.669384 0.755620 0.647212 -0.541418
N4    N     N_R   0.931999 0.753094 0.678276 0.213028
O13   O     O_R   0.862279 0.835826 0.674708 -0.321781
O14   O     O_R   0.031953 0.753209 0.726214 -0.370848
C49   C     C_2   0.684041 0.712624 0.948825 0.451363
H22   H     H_    0.712258 0.700827 0.885878 0.063379
O15   O     O_2   0.710808 0.785875 0.995243 -0.527938

loop_
_geom_bond_atom_site_label_1
_geom_bond_atom_site_label_2
_geom_bond_distance
_ccdc_geom_bond_type
C39   C41   1.421069 A    
N4    O13   1.300891 A    
C8    C11   1.395567 A    
C9    C10   1.414681 A    
C3    C22   1.448757 S    
C47   H20   1.084921 S    
C26   C27   1.410746 A    
Zn1   O7    2.023557 S    
C16   C17   1.388003 A    
C38   H18   1.076183 S    
C20   H5    1.085557 S    
C18   C19   1.392269 A    
C48   O12   1.220272 D    
C45   H17   1.075466 S    
C23   C34   1.396705 A    
O4    C2    1.303426 A    
O7    C4    1.301364 A    
N3    O10   1.301070 A    
C21   C33   1.397312 A    
C5    C6    1.393731 A    
C8    C9    1.407043 A    
O5    C3    1.306271 A    
C6    C7    1.394776 A    
C13   C14   1.420132 A    
N1    C46   1.355832 A    
C43   C44   1.387185 A    
H14   C46   1.081889 S    
C37   N4    1.440364 S    
C21   C29   1.418346 A    
C41   C45   1.409309 A    
C35   H16   1.083796 S    
H8    C33   1.083289 S    
C18   H4    1.074996 S    
C11   C12   1.399017 A    
O3    Zn1   2.003183 S    
C47   O11   1.221542 D    
C26   C28   1.419821 A    
C5    C10   1.386267 A    
C39   C40   1.420394 A    
C48   H21   1.080166 S    
O3    C2    1.297677 A    
C25   C47   1.487886 S    
N3    O9    1.301029 A    
C41   C42   1.418361 A    
C28   C32   1.384605 A    
C21   N3    1.434817 S    
C15   C16   1.399955 A    
O1    C1    1.306449 A    
C24   C25   1.402345 A    
Zn1   N1    2.051664 S    
C19   C20   1.391487 A    
C23   H11   1.083762 S    
C49   O15   1.221695 D    
C28   C29   1.424701 A    
H15   C43   1.084340 S    
Zn2   O8    2.003183 S    
Zn2   N2    2.039335 S    
C7    C8    1.384490 A    
C12   C49   1.490007 S    
N1    C45   1.350056 A    
C40   N2    1.370753 A    
C13   C18   1.394289 A    
C14   C15   1.415022 A    
C16   H6    1.084026 S    
C29   C30   1.394333 A    
C10   C17   1.397968 A    
O8    C4    1.298775 A    
C38   C39   1.405484 A    
N4    O14   1.301578 A    
C4    C6    1.431084 S    
C23   C24   1.385811 A    
C44   H19   1.066490 S    
C25   C26   1.436291 A    
C15   C20   1.381923 A    
Zn1   O5    1.934441 S    
C22   C33   1.396905 A    
O1    Zn1   1.974145 S    
C31   H13   1.082923 S    
O2    Zn2   1.934442 S    
O6    C3    1.302335 A    
O4    Zn2   2.023557 S    
C35   C42   1.399205 A    
C5    H1    1.085230 S    
C36   N2    1.373152 A    
C27   C31   1.413424 A    
C36   C48   1.465716 S    
C32   H10   1.079445 S    
C37   C38   1.388280 A    
C9    C14   1.393291 A    
C1    C34   1.457168 S    
C49   H22   1.081785 S    
C17   H7    1.083868 S    
C27   C34   1.408466 A    
O2    C1    1.305169 A    
C40   C44   1.402223 A    
C42   C43   1.392383 A    
C36   C37   1.405408 A    
C24   H12   1.083491 S    
C2    C19   1.433769 S    
C11   H3    1.084832 S    
Zn2   O6    1.974147 S    
C30   C31   1.383213 A    
C7    H2    1.085609 S    
C12   C13   1.420923 A    
C22   C32   1.385026 A    
H9    C30   1.080282 S    
C35   C46   1.388160 A    
