data_mof_unit_46534.cif
_audit_creation_date              2012-10-26T19:35:17-0400
_audit_creation_method            fapswitch 2.2
_symmetry_space_group_name_H-M    P1
_symmetry_Int_Tables_number       1
_space_group_crystal_system       triclinic
_cell_length_a                    10.863181
_cell_length_b                    10.842108
_cell_length_c                    9.600178
_cell_angle_alpha                 89.435936
_cell_angle_beta                  91.686153
_cell_angle_gamma                 91.555594
_cell_volume                      1129.75443775

loop_
_atom_site_label
_atom_site_type_symbol
_atom_type_description
_atom_site_fract_x
_atom_site_fract_y
_atom_site_fract_z
_atom_type_partial_charge
C1    C     C_R   0.498023 0.262638 0.500356 0.546317
C2    C     C_R   0.471849 0.937125 0.375763 -0.169260
C3    C     C_R   0.493183 0.871032 0.500012 0.004336
C4    C     C_R   0.262798 0.508881 0.498534 0.543691
C5    C     C_R   0.517641 0.935718 0.623605 0.018801
C6    C     C_3   0.446692 0.929821 0.755138 -0.265230
C7    C     C_3   0.450856 0.069315 0.755113 -0.265255
C8    C     C_R   0.602299 0.538582 0.074882 0.166594
C9    C     C_R   0.404107 0.449732 0.071808 0.003867
C10   C     C_R   0.403851 0.450190 0.923328 -0.009959
C11   C     C_R   0.603104 0.535068 0.928477 0.129665
C12   C     C_R   0.067048 0.539698 0.622746 0.007905
C13   C     C_3   0.673499 0.653316 0.915197 -0.250349
C14   C     C_3   0.672312 0.661206 0.073323 -0.150998
C15   C     C_R   0.495793 0.737376 0.499667 0.545421
C16   C     C_R   0.737573 0.491012 0.502648 0.544383
C17   C     C_R   0.126026 0.594256 0.740652 -0.115981
C18   C     C_R   0.079005 0.574524 0.872556 0.005782
C19   C     C_R   0.970946 0.501862 0.886031 -0.015763
C20   C     C_R   0.900799 0.469457 0.766389 -0.105378
C21   C     C_R   0.943817 0.498929 0.632915 0.009913
C22   C     C_3   0.604178 0.773825 0.119752 -0.383094
C23   C     C_R   0.128460 0.517812 0.497758 0.002882
C24   C     C_1   0.145248 0.625443 0.992371 0.156879
C25   C     C_3   0.930402 0.458819 0.025961 -0.416965
C26   C     C_R   0.060075 0.481453 0.378678 -0.147562
C27   C     C_R   0.932886 0.467800 0.383530 -0.163660
C28   C     C_R   0.872561 0.481516 0.508573 -0.008505
C29   C     C_R   0.519899 0.063439 0.623386 0.020607
C30   C     C_R   0.498362 0.129402 0.500008 0.010101
C31   C     C_R   0.477314 0.065228 0.374947 -0.158831
Cu1   Cu    Cu3+1 0.499990 0.499980 0.640670 0.924547
Cu2   Cu    Cu3+1 0.500010 0.500020 0.359330 0.948881
H1    H     H_    0.105004 0.462114 0.282470 0.142114
H2    H     H_    0.210268 0.649155 0.731411 0.138511
H3    H     H_    0.817231 0.414654 0.778863 0.145190
H4    H     H_    0.880544 0.441809 0.291018 0.132609
H5    H     H_    0.459498 0.113593 0.277458 0.135118
H6    H     H_    0.446171 0.890525 0.280167 0.134795
H7    H     H_    0.352132 0.889423 0.739299 0.140719
H8    H     H_    0.502890 0.759532 0.106179 0.170282
H9    H     H_    0.631943 0.793631 0.229124 0.168071
H10   H     H_    0.633198 0.856502 0.058503 0.107552
H11   H     H_    0.997728 0.392608 0.069739 0.128570
H12   H     H_    0.499818 0.890280 0.844267 0.127985
H13   H     H_    0.927596 0.539731 0.094782 0.134242
H14   H     H_    0.838037 0.412379 0.021097 0.119559
H15   H     H_    0.358630 0.110381 0.739970 0.139964
H16   H     H_    0.508491 0.109038 0.842078 0.137121
H17   H     H_    0.325394 0.410843 0.124779 0.117658
H18   H     H_    0.324837 0.411411 0.866541 0.124346
H19   H     H_    0.766899 0.642466 0.875440 0.135182
H20   H     H_    0.619945 0.723711 0.857370 0.158611
H21   H     H_    0.765495 0.656078 0.122796 0.135525
N1    N     N_R   0.500790 0.500930 0.147930 -0.226773
N2    N     N_R   0.500790 0.500890 0.852020 -0.238392
N3    N     N_1   0.198113 0.666608 0.088266 -0.317348
O1    O     O_R   0.500000 0.319640 0.618810 -0.501736
O2    O     O_R   0.500010 0.319680 0.381230 -0.512242
O3    O     O_R   0.319640 0.499980 0.618820 -0.520680
O4    O     O_R   0.319650 0.500020 0.381230 -0.496803
O5    O     O_R   0.499990 0.680320 0.618770 -0.505838
O6    O     O_R   0.500000 0.680360 0.381190 -0.502370
O7    O     O_R   0.680350 0.499980 0.618770 -0.511655
O8    O     O_R   0.680360 0.500020 0.381180 -0.503673

loop_
_geom_bond_atom_site_label_1
_geom_bond_atom_site_label_2
_ccdc_geom_bond_type
C12   C17   A    
Cu2   N1    S    
C4    O3    A    
C13   H20   S    
C16   C28   S    
C6    C7    S    
C7    C29   S    
C6    H12   S    
C16   O7    A    
C13   H19   S    
C10   N2    A    
C9    C10   A    
C25   H14   S    
C25   H13   S    
C19   C20   A    
C31   H5    S    
Cu1   O1    S    
C30   C31   A    
Cu2   O6    S    
C7    H15   S    
C14   C22   S    
C17   C18   A    
Cu1   O5    S    
Cu2   O2    S    
C13   C14   S    
Cu1   Cu2   S    
C11   C13   S    
C12   C23   A    
Cu1   O7    S    
C26   C27   A    
C22   H9    S    
C11   N2    A    
C27   H4    S    
C8    C11   A    
C18   C24   S    
C10   H18   S    
C2    H6    S    
C8    N1    A    
C1    C30   S    
C14   H21   S    
C15   O5    A    
C26   H1    S    
C2    C3    A    
C5    C29   A    
C1    O2    A    
C25   H11   S    
C5    C6    S    
C19   C25   S    
C6    H7    S    
C9    N1    A    
C22   H8    S    
Cu1   O3    S    
C29   C30   A    
C20   H3    S    
C27   C28   A    
C3    C15   S    
C20   C21   A    
C7    H16   S    
Cu2   O4    S    
C18   C19   A    
C23   C26   A    
C21   C28   A    
C4    C23   S    
C15   O6    A    
C2    C31   A    
C8    C14   S    
C16   O8    A    
C17   H2    S    
C4    O4    A    
C1    O1    A    
C12   C21   A    
Cu1   N2    S    
C22   H10   S    
C9    H17   S    
Cu2   O8    S    
C24   N3    T    
C3    C5    A    
