data_mof_unit_65771.cif
_audit_creation_date              2012-12-10T17:17:18-0500
_audit_creation_method            fapswitch 2.2
_symmetry_space_group_name_H-M    P1
_symmetry_Int_Tables_number       1
_space_group_crystal_system       triclinic
_cell_length_a                    18.832479
_cell_length_b                    18.854681
_cell_length_c                    18.854535
_cell_angle_alpha                 109.539009
_cell_angle_beta                  109.556798
_cell_angle_gamma                 109.743217
_cell_volume                      5126.46952674

loop_
_atom_site_label
_atom_site_type_symbol
_atom_type_description
_atom_site_fract_x
_atom_site_fract_y
_atom_site_fract_z
_atom_type_partial_charge
C1    C     C_R   0.118326 0.119225 0.499392 0.788854
C2    C     C_R   0.261876 0.088385 0.766579 0.076092
C3    C     C_R   0.194893 0.009550 0.686678 -0.143487
C4    C     C_R   0.191353 0.930419 0.672268 -0.236412
C5    C     C_R   0.251442 0.925878 0.735069 0.138870
C6    C     C_R   0.314126 0.002084 0.816800 -0.110897
C7    C     C_R   0.195565 0.166961 0.425874 -0.173803
C8    C     C_R   0.259075 0.231347 0.425586 -0.184794
C9    C     C_R   0.313866 0.314827 0.499245 0.010387
C10   C     C_R   0.303459 0.335154 0.572056 -0.190438
C11   C     C_R   0.237653 0.271891 0.571033 -0.178441
C12   C     C_R   0.123000 0.004471 0.619053 0.848631
C13   C     C_R   0.184654 0.186870 0.498774 -0.022845
C14   C     C_R   0.751680 0.921842 0.233635 -0.207699
C15   C     C_R   0.686642 0.920613 0.168618 0.164683
C16   C     C_R   0.686081 0.998765 0.183945 -0.016563
C17   C     C_R   0.749522 0.076496 0.262854 -0.226346
C18   C     C_R   0.812599 0.076649 0.327778 -0.174500
C19   C     C_R   0.814107 0.999472 0.313267 -0.047518
C20   C     C_R   0.824228 0.745217 0.504833 -0.181108
C21   C     C_R   0.761103 0.682243 0.506959 -0.177275
C22   C     C_R   0.686397 0.686135 0.500679 -0.005271
C23   C     C_R   0.881199 0.881026 0.499943 0.779165
C24   C     C_R   0.676007 0.754297 0.494328 -0.180643
C25   C     C_R   0.740642 0.818983 0.495423 -0.174482
C26   C     C_R   0.814348 0.814003 0.499810 -0.004507
C27   C     C_R   0.500392 0.880752 0.881556 0.843998
C28   C     C_R   0.381036 0.999912 0.881471 0.779614
C29   C     C_R   0.499974 0.119302 0.119023 0.791873
C30   C     C_R   0.619002 0.999799 0.118455 0.795957
C31   C     C_R   0.500360 0.618929 0.618635 0.802325
C32   C     C_R   0.381080 0.381157 0.499672 0.776335
C33   C     C_R   0.500553 0.382199 0.381351 0.827229
C34   C     C_R   0.881058 0.999869 0.380859 0.790442
C35   C     C_R   0.619099 0.619034 0.500257 0.764887
C36   C     C_R   0.578295 0.830364 0.811768 0.118597
C37   C     C_R   0.577069 0.768087 0.743994 0.101399
C38   C     C_R   0.500135 0.685357 0.685103 -0.133761
C39   C     C_R   0.422938 0.665739 0.689904 0.075593
C40   C     C_R   0.423690 0.730454 0.755279 0.095192
C41   C     C_R   0.500741 0.812669 0.815042 -0.132413
C42   C     C_R   0.562670 0.274983 0.225013 -0.210922
C43   C     C_R   0.564015 0.340238 0.289460 0.115762
C44   C     C_R   0.500884 0.316156 0.314403 -0.035537
C45   C     C_R   0.278164 0.173183 0.781449 0.184313
C46   C     C_R   0.437699 0.228061 0.275437 0.132891
C47   C     C_R   0.437771 0.163951 0.211244 -0.203279
C48   C     C_R   0.500102 0.187010 0.186002 -0.095346
C49   C     C_R   0.336128 0.246029 0.865910 -0.171271
C50   C     C_R   0.381379 0.237291 0.934390 -0.169999
C51   C     C_R   0.373401 0.156913 0.918888 -0.150316
C52   C     C_R   0.316710 0.082335 0.834469 0.023422
Cu1   Cu    Cu3+1 0.999980 0.061790 0.561790 0.963137
Cu2   Cu    Cu3+1 0.000020 0.938210 0.438210 0.942312
Cu3   Cu    Cu3+1 0.438200 0.938230 0.000040 0.966767
Cu4   Cu    Cu3+1 0.561800 0.061850 0.000040 0.958403
Cu5   Cu    Cu3+1 0.438190 0.500100 0.438300 0.948194
Cu6   Cu    Cu3+1 0.561810 0.500080 0.561880 0.948911
H1    H     H_    0.140539 0.870750 0.611111 0.163107
H2    H     H_    0.228996 0.289322 0.627009 0.144446
H3    H     H_    0.753012 0.862215 0.222675 0.142182
H4    H     H_    0.749118 0.136661 0.274672 0.143231
H5    H     H_    0.860890 0.137185 0.388816 0.151498
H6    H     H_    0.881401 0.741313 0.508754 0.133939
H7    H     H_    0.769709 0.629767 0.511838 0.138042
H8    H     H_    0.618713 0.758138 0.489996 0.141293
H9    H     H_    0.732597 0.872019 0.491403 0.139065
H10   H     H_    0.610784 0.293127 0.205400 0.160859
H11   H     H_    0.389128 0.096067 0.181142 0.157810
H12   H     H_    0.347865 0.310482 0.878460 0.129973
H13   H     H_    0.425461 0.293814 0.999306 0.146470
H14   H     H_    0.411718 0.153822 0.973966 0.143275
H15   H     H_    0.154398 0.102135 0.368881 0.151132
H16   H     H_    0.266261 0.215862 0.368626 0.151905
H17   H     H_    0.345300 0.400082 0.628902 0.117059
O1    O     O_R   0.090150 0.142360 0.552170 -0.579428
O2    O     O_R   0.552230 0.962090 0.909900 -0.562298
O3    O     O_R   0.357630 0.947820 0.909860 -0.580966
O4    O     O_R   0.462000 0.052220 0.909860 -0.586152
O5    O     O_R   0.447770 0.037990 0.090190 -0.591626
O6    O     O_R   0.552150 0.142390 0.090190 -0.599619
O7    O     O_R   0.538000 0.947860 0.090220 -0.560167
O8    O     O_R   0.642370 0.052260 0.090230 -0.593229
O9    O     O_R   0.447810 0.590260 0.538090 -0.586549
O10   O     O_R   0.552200 0.590240 0.642450 -0.582101
O11   O     O_R   0.357640 0.409920 0.447920 -0.576163
O12   O     O_R   0.090180 0.037990 0.447810 -0.591337
O13   O     O_R   0.462030 0.409900 0.552280 -0.583316
O14   O     O_R   0.447800 0.409940 0.357730 -0.571717
O15   O     O_R   0.552190 0.409920 0.462090 -0.599468
O16   O     O_R   0.537970 0.590270 0.447900 -0.590636
O17   O     O_R   0.642360 0.590260 0.552260 -0.591168
O18   O     O_R   0.090170 0.052200 0.642360 -0.549919
O19   O     O_R   0.090200 0.947840 0.538010 -0.598469
O20   O     O_R   0.909820 0.962010 0.552190 -0.582540
O21   O     O_R   0.909850 0.857640 0.447830 -0.589059
O22   O     O_R   0.909800 0.052160 0.461990 -0.589646
O23   O     O_R   0.909830 0.947800 0.357640 -0.588677
O24   O     O_R   0.447850 0.857690 0.909890 -0.556115
N1    N     N_3   0.621964 0.841106 0.086974 -0.576325
H18   H     H_    0.629772 0.788945 0.087607 0.213261
H19   H     H_    0.633174 0.848569 0.038536 0.194071
N2    N     N_3   0.658348 0.911340 0.879472 -0.549126
H20   H     H_    0.711031 0.918224 0.869668 0.245800
H21   H     H_    0.674928 0.910266 0.937726 0.202120
N3    N     N_3   0.243574 0.187189 0.710444 -0.566213
H22   H     H_    0.255814 0.251188 0.733782 0.202375
H23   H     H_    0.277120 0.179433 0.676754 0.195664
N4    N     N_3   0.653834 0.791573 0.735241 -0.591067
H24   H     H_    0.648040 0.741091 0.684512 0.226161
H25   H     H_    0.661437 0.840404 0.718881 0.214224
C53   C     C_3   0.340677 0.575538 0.627002 -0.377568
C54   C     C_3   0.278196 0.571627 0.547019 -0.775768
H26   H     H_    0.248573 0.611424 0.564741 0.223885
H27   H     H_    0.312284 0.595555 0.514953 0.268970
H28   H     H_    0.224594 0.503022 0.499282 0.235805
H29   H     H_    0.357629 0.524582 0.604726 0.186885
H30   H     H_    0.305349 0.555322 0.659692 0.184812
N5    N     N_3   0.346783 0.713550 0.762454 -0.571769
H31   H     H_    0.294915 0.695192 0.703959 0.220837
H32   H     H_    0.331043 0.663951 0.777572 0.220289
C55   C     C_3   0.632714 0.434465 0.329710 -0.437076
C56   C     C_3   0.596870 0.478455 0.284730 -0.811920
H33   H     H_    0.574383 0.443015 0.214127 0.248989
H34   H     H_    0.541459 0.479731 0.292650 0.264807
H35   H     H_    0.649049 0.546690 0.314088 0.246573
H36   H     H_    0.656774 0.471211 0.400515 0.198276
H37   H     H_    0.690554 0.438209 0.323907 0.203218
N6    N     N_3   0.373923 0.204444 0.301624 -0.607171
H38   H     H_    0.406845 0.217162 0.365341 0.208244
H39   H     H_    0.328863 0.137427 0.263041 0.214184
C57   C     C_3   0.246148 0.838394 0.711825 -0.396291
C58   C     C_3   0.175772 0.780897 0.722611 -0.788033
H40   H     H_    0.172519 0.717063 0.704883 0.230744
H41   H     H_    0.190995 0.812603 0.791252 0.268898
H42   H     H_    0.110860 0.768946 0.679341 0.237653
H43   H     H_    0.230363 0.804512 0.643070 0.189300
H44   H     H_    0.309647 0.845853 0.751719 0.213000

loop_
_geom_bond_atom_site_label_1
_geom_bond_atom_site_label_2
_ccdc_geom_bond_type
C1    O12   A    
Cu3   Cu4   S    
C30   O7    A    
C31   O10   A    
Cu1   O20   S    
C25   H9    S    
C15   N1    S    
C50   H13   S    
C46   N6    S    
Cu6   O17   S    
C56   H33   S    
C7    H15   S    
Cu1   Cu2   S    
C23   O21   A    
N6    H39   S    
C22   C35   S    
C27   O24   A    
Cu4   O4    S    
Cu5   O14   S    
C36   N2    S    
C36   C37   A    
N6    H38   S    
N4    H25   S    
C38   C39   A    
C18   H5    S    
C56   H34   S    
N3    H22   S    
C57   H44   S    
C15   C16   A    
C32   O13   A    
C55   H36   S    
C34   O22   A    
Cu5   O11   S    
C18   C19   A    
C23   C26   S    
C30   O8    A    
C28   O4    A    
C47   H11   S    
C3    C12   S    
C9    C32   S    
C5    C57   S    
C6    C28   S    
C23   O20   A    
C16   C17   A    
C58   H42   S    
C28   O3    A    
C9    C10   A    
C37   N4    S    
C24   H8    S    
C54   H28   S    
C35   O17   A    
N3    H23   S    
C21   C22   A    
C42   H10   S    
C1    O1    A    
C12   O19   A    
C36   C41   A    
N1    H19   S    
C53   C54   S    
C44   C46   A    
C17   C18   A    
N5    H32   S    
C2    C45   A    
C29   C48   S    
Cu1   O18   S    
C51   C52   A    
C7    C8    A    
C24   C25   A    
C39   C40   A    
Cu3   O3    S    
C8    C9    A    
C56   H35   S    
Cu1   O22   S    
C57   H43   S    
C14   H3    S    
C31   O9    A    
C20   H6    S    
C43   C44   A    
C29   O6    A    
C37   C38   A    
C33   O14   A    
C17   H4    S    
C10   H17   S    
C27   C41   S    
C47   C48   A    
C45   C49   A    
C32   O11   A    
C8    H16   S    
C50   C51   A    
Cu5   O9    S    
N2    H21   S    
C42   C48   A    
Cu3   O7    S    
Cu6   O15   S    
C43   C55   S    
C2    C52   A    
Cu2   O12   S    
C39   C53   S    
C49   H12   S    
C58   H40   S    
C22   C24   A    
C12   O18   A    
Cu1   O1    S    
C1    C13   S    
C42   C43   A    
C3    C4    A    
Cu6   O10   S    
C45   N3    S    
Cu4   O8    S    
C54   H26   S    
C46   C47   A    
C40   C41   A    
Cu5   O16   S    
C21   H7    S    
C33   C44   S    
Cu2   O21   S    
C14   C19   A    
C4    C5    A    
C27   O2    A    
C19   C34   S    
Cu6   O13   S    
N5    H31   S    
C31   C38   S    
C53   H29   S    
C2    C3    A    
C25   C26   A    
N4    H24   S    
C53   H30   S    
Cu3   O5    S    
C11   C13   A    
Cu5   Cu6   S    
C5    C6    A    
C29   O5    A    
C20   C26   A    
C4    H1    S    
N1    H18   S    
C34   O23   A    
Cu4   O6    S    
C57   C58   S    
C55   H37   S    
Cu2   O19   S    
C10   C11   A    
Cu4   O2    S    
C7    C13   A    
C40   N5    S    
C20   C21   A    
C49   C50   A    
C51   H14   S    
Cu3   O24   S    
N2    H20   S    
C58   H41   S    
C14   C15   A    
Cu2   O23   S    
C6    C52   A    
C55   C56   S    
C33   O15   A    
C16   C30   S    
C11   H2    S    
C54   H27   S    
C35   O16   A    
