data_mof_unit_64684.cif
_audit_creation_date              2012-12-10T17:13:07-0500
_audit_creation_method            fapswitch 2.2
_symmetry_space_group_name_H-M    P1
_symmetry_Int_Tables_number       1
_space_group_crystal_system       triclinic
_cell_length_a                    30.45775
_cell_length_b                    30.673744
_cell_length_c                    24.530827
_cell_angle_alpha                 89.996738
_cell_angle_beta                  127.826174
_cell_angle_gamma                 90.000173
_cell_volume                      18102.3572078

loop_
_atom_site_label
_atom_site_type_symbol
_atom_type_description
_atom_site_fract_x
_atom_site_fract_y
_atom_site_fract_z
_atom_type_partial_charge
C1    C     C_R   0.692213 0.190103 0.504870 0.910874
C2    C     C_R   0.536748 0.249622 0.069602 0.300109
C3    C     C_R   0.740499 0.956129 0.630125 -0.299860
C4    C     C_R   0.817111 0.454745 0.419222 0.621365
C5    C     C_R   0.182892 0.454737 0.580783 0.621356
C6    C     C_R   0.317110 0.954744 0.419220 0.621484
C7    C     C_R   0.682890 0.954739 0.580776 0.621389
C8    C     C_R   0.844204 0.415453 0.455106 -0.104296
C9    C     C_R   0.155798 0.415448 0.544899 -0.104336
C10   C     C_R   0.344205 0.915453 0.455106 -0.104246
C11   C     C_R   0.655796 0.915449 0.544896 -0.104315
C12   C     C_R   0.811559 0.379419 0.446194 -0.099133
C13   C     C_R   0.963479 0.749278 0.930342 0.301546
C14   C     C_R   0.188442 0.379414 0.553810 -0.099032
C15   C     C_R   0.311560 0.879418 0.446194 -0.098989
C16   C     C_R   0.688442 0.879415 0.553807 -0.099030
C17   C     C_R   0.838672 0.343139 0.490812 -0.062146
C18   C     C_R   0.161330 0.343138 0.509191 -0.062312
C19   C     C_R   0.338673 0.843139 0.490814 -0.062201
C20   C     C_R   0.661330 0.843138 0.509191 -0.062191
C21   C     C_R   0.896447 0.340478 0.537150 -0.210445
C22   C     C_R   0.103554 0.340480 0.462856 -0.210465
C23   C     C_R   0.396448 0.840479 0.537153 -0.210250
C24   C     C_R   0.036482 0.749271 0.069666 0.301553
C25   C     C_R   0.603554 0.840478 0.462860 -0.210350
C26   C     C_R   0.928331 0.373852 0.541055 -0.212053
C27   C     C_R   0.071671 0.373853 0.458953 -0.211993
C28   C     C_R   0.428332 0.873852 0.541057 -0.211702
C29   C     C_R   0.571670 0.873851 0.458957 -0.211883
C30   C     C_R   0.902809 0.410864 0.500223 -0.060487
C31   C     C_R   0.097193 0.410863 0.499784 -0.060621
C32   C     C_R   0.402809 0.910864 0.500224 -0.060459
C33   C     C_R   0.597192 0.910862 0.499784 -0.060516
C34   C     C_R   0.061691 0.441607 0.499779 0.955966
C35   C     C_R   0.665660 0.194779 0.605014 -0.030829
C36   C     C_R   0.938310 0.441607 0.500223 0.955962
C37   C     C_R   0.561691 0.941607 0.499779 0.955872
C38   C     C_R   0.438310 0.941607 0.500223 0.955881
C39   C     C_R   0.817623 0.250443 0.634731 0.864672
C40   C     C_R   0.182377 0.250445 0.365268 0.864596
C41   C     C_R   0.317624 0.750444 0.634731 0.864717
C42   C     C_R   0.682377 0.750445 0.365268 0.864696
C43   C     C_R   0.558790 0.061166 0.499724 0.914135
C44   C     C_R   0.441208 0.061165 0.500273 0.914173
C45   C     C_R   0.058790 0.561166 0.499724 0.914253
C46   C     C_R   0.334332 0.194785 0.394976 -0.030602
C47   C     C_R   0.941208 0.561165 0.500273 0.914241
C48   C     C_R   0.650947 0.217192 0.254021 -0.255570
C49   C     C_R   0.349103 0.217079 0.745972 -0.236692
C50   C     C_R   0.150378 0.716726 0.254092 -0.255648
C51   C     C_R   0.849502 0.716800 0.745914 -0.255555
C52   C     C_R   0.615989 0.216744 0.181970 0.124830
C53   C     C_R   0.383938 0.216628 0.818170 0.134493
C54   C     C_R   0.115310 0.716165 0.182046 0.124878
C55   C     C_R   0.884556 0.716244 0.817960 0.124835
C56   C     C_R   0.575435 0.249599 0.145171 0.086736
C57   C     C_R   0.165669 0.694774 0.605023 -0.030754
C58   C     C_R   0.424478 0.249601 0.854782 0.071004
C59   C     C_R   0.075143 0.749269 0.145217 0.086770
C60   C     C_R   0.924823 0.749279 0.854788 0.086765
C61   C     C_R   0.571164 0.282656 0.181217 -0.216106
C62   C     C_R   0.428655 0.282698 0.818732 -0.206408
C63   C     C_R   0.071323 0.782658 0.181207 -0.215145
C64   C     C_R   0.928753 0.782599 0.818794 -0.215099
C65   C     C_R   0.605892 0.282690 0.252944 -0.128790
C66   C     C_R   0.393962 0.282723 0.747045 -0.130464
C67   C     C_R   0.106138 0.782794 0.252934 -0.128712
C68   C     C_R   0.834338 0.694788 0.394983 -0.030765
C69   C     C_R   0.893946 0.782732 0.747067 -0.128809
C70   C     C_R   0.641572 0.200908 0.638286 0.644540
C71   C     C_R   0.358413 0.200915 0.361696 0.644367
C72   C     C_R   0.141588 0.700901 0.638302 0.644541
C73   C     C_R   0.307787 0.190103 0.495128 0.911380
C74   C     C_R   0.858425 0.700920 0.361710 0.644550
C75   C     C_R   0.597843 0.174774 0.622033 -0.218132
C76   C     C_R   0.402139 0.174777 0.377943 -0.218712
C77   C     C_R   0.097858 0.674767 0.622051 -0.218521
C78   C     C_R   0.902152 0.674782 0.377959 -0.218461
C79   C     C_R   0.579706 0.140728 0.575476 -0.287013
C80   C     C_R   0.420279 0.140729 0.424503 -0.286901
C81   C     C_R   0.079715 0.640725 0.575488 -0.287047
C82   C     C_R   0.920287 0.640731 0.424514 -0.287050
C83   C     C_R   0.604053 0.133095 0.542447 0.050113
C84   C     C_R   0.192212 0.690103 0.504870 0.910803
C85   C     C_R   0.395937 0.133095 0.457539 0.050290
C86   C     C_R   0.104058 0.633093 0.542452 0.050196
C87   C     C_R   0.895941 0.633096 0.457545 0.050180
C88   C     C_R   0.643950 0.162556 0.552307 0.036332
C89   C     C_R   0.356043 0.162559 0.447684 0.036321
C90   C     C_R   0.143954 0.662554 0.552311 0.036319
C91   C     C_R   0.856047 0.662560 0.447688 0.036326
C92   C     C_R   0.661140 0.157303 0.510144 -0.067934
C93   C     C_R   0.338858 0.157304 0.489853 -0.068542
C94   C     C_R   0.161139 0.657303 0.510142 -0.067882
C95   C     C_R   0.807787 0.690103 0.495128 0.910838
C96   C     C_R   0.838858 0.657303 0.489853 -0.067897
C97   C     C_R   0.643777 0.121614 0.465920 -0.227203
C98   C     C_R   0.356224 0.121612 0.534079 -0.226021
C99   C     C_R   0.143770 0.621617 0.465911 -0.227143
C100  C     C_R   0.856220 0.621610 0.534075 -0.227161
C101  C     C_R   0.682780 0.249895 0.365295 0.946711
C102  C     C_R   0.317229 0.249881 0.634710 0.947434
C103  C     C_R   0.182765 0.749876 0.365304 0.946940
C104  C     C_R   0.817233 0.749875 0.634698 0.946967
C105  C     C_R   0.608821 0.091040 0.461516 -0.149850
C106  C     C_R   0.645887 0.249897 0.289774 -0.046009
C107  C     C_R   0.391177 0.091037 0.538481 -0.149016
C108  C     C_R   0.108815 0.591043 0.461508 -0.149811
C109  C     C_R   0.891173 0.591035 0.538477 -0.149824
C110  C     C_R   0.589487 0.096452 0.499729 -0.060180
C111  C     C_R   0.410507 0.096451 0.500261 -0.060567
C112  C     C_R   0.089486 0.596453 0.499729 -0.060221
C113  C     C_R   0.910506 0.596450 0.500262 -0.060178
C114  C     C_R   0.908199 0.231587 0.746446 -0.186494
C115  C     C_R   0.091810 0.231584 0.253555 -0.186375
C116  C     C_R   0.408197 0.731583 0.746446 -0.186337
C117  C     C_R   0.354115 0.249860 0.710248 -0.053637
C118  C     C_R   0.591810 0.731583 0.253555 -0.186394
C119  C     C_R   0.944347 0.232391 0.818266 -0.155140
C120  C     C_R   0.055664 0.232388 0.181735 -0.154950
C121  C     C_R   0.444345 0.732388 0.818266 -0.154929
C122  C     C_R   0.555664 0.732387 0.181735 -0.155005
C123  C     C_R   0.927927 0.252010 0.854805 0.081389
C124  C     C_R   0.072080 0.252013 0.145194 0.081361
C125  C     C_R   0.427927 0.752009 0.854805 0.081291
C126  C     C_R   0.572081 0.752012 0.145194 0.081320
C127  C     C_R   0.875390 0.271487 0.818796 -0.141448
C128  C     C_R   0.145784 0.749781 0.289797 -0.046511
C129  C     C_R   0.124610 0.271498 0.181201 -0.141623
C130  C     C_R   0.375392 0.771489 0.818796 -0.141197
C131  C     C_R   0.624611 0.771497 0.181201 -0.141300
C132  C     C_R   0.839772 0.271594 0.747010 -0.193505
C133  C     C_R   0.160226 0.271606 0.252988 -0.193545
C134  C     C_R   0.339774 0.771597 0.747010 -0.193286
C135  C     C_R   0.660227 0.771605 0.252988 -0.193453
C136  C     C_R   0.855648 0.251182 0.710324 -0.038538
C137  C     C_R   0.144355 0.251186 0.289676 -0.038531
C138  C     C_R   0.355648 0.751182 0.710324 -0.038624
C139  C     C_R   0.854204 0.749784 0.710206 -0.046430
C140  C     C_R   0.644355 0.751186 0.289676 -0.038598
C141  C     C_R   0.034607 0.252087 0.069739 0.281289
C142  C     C_R   0.965401 0.252084 0.930260 0.281278
C143  C     C_R   0.534608 0.752086 0.069739 0.281344
C144  C     C_R   0.465401 0.752084 0.930260 0.281397
C145  C     C_R   0.753294 0.380841 0.392677 0.621641
C146  C     C_R   0.246708 0.380831 0.607325 0.621170
C147  C     C_R   0.253295 0.880839 0.392676 0.621541
C148  C     C_R   0.746708 0.880835 0.607319 0.621569
C149  C     C_R   0.808235 0.309972 0.496163 0.964672
C150  C     C_R   0.463411 0.249617 0.930309 0.285077
C151  C     C_R   0.191766 0.309972 0.503837 0.964535
C152  C     C_R   0.308236 0.809972 0.496165 0.964774
C153  C     C_R   0.691765 0.809972 0.503837 0.964721
C154  C     C_R   0.727948 0.419007 0.355206 -0.306684
C155  C     C_R   0.272054 0.418993 0.644797 -0.307082
C156  C     C_R   0.227948 0.919004 0.355204 -0.306657
C157  C     C_R   0.772054 0.918998 0.644787 -0.306697
C158  C     C_R   0.759502 0.456137 0.369868 -0.300019
C159  C     C_R   0.240501 0.456125 0.630136 -0.300100
C160  C     C_R   0.259501 0.956135 0.369865 -0.299864
F1    F     F_    0.720768 0.345047 0.373248 -0.684969
F2    F     F_    0.338567 0.232050 0.312413 -0.674481
F3    F     F_    0.161437 0.732029 0.687590 -0.674117
F4    F     F_    0.838583 0.732056 0.312430 -0.674091
F5    F     F_    0.279233 0.345035 0.626753 -0.685468
F6    F     F_    0.220771 0.845044 0.373248 -0.685312
F7    F     F_    0.779234 0.845039 0.626749 -0.685209
F8    F     F_    0.845275 0.492623 0.433969 -0.674670
F9    F     F_    0.154728 0.492616 0.566037 -0.674671
F10   F     F_    0.345273 0.992622 0.433966 -0.674644
F11   F     F_    0.654725 0.992618 0.566029 -0.674638
F12   F     F_    0.661416 0.232039 0.687567 -0.673941
H1    H     H_    0.681940 0.191777 0.281811 0.159511
H2    H     H_    0.078486 0.215920 0.280759 0.157410
H3    H     H_    0.421523 0.715923 0.719243 0.157377
H4    H     H_    0.578486 0.715919 0.280759 0.157359
H5    H     H_    0.984727 0.217066 0.845232 0.150521
H6    H     H_    0.015289 0.217056 0.154771 0.150722
H7    H     H_    0.484724 0.717060 0.845232 0.150664
H8    H     H_    0.515289 0.717055 0.154771 0.150634
H9    H     H_    0.862174 0.287129 0.846139 0.157029
H10   H     H_    0.137823 0.287146 0.153856 0.156881
H11   H     H_    0.362177 0.787134 0.846140 0.157114
H12   H     H_    0.318044 0.191774 0.717725 0.155989
H13   H     H_    0.637824 0.787145 0.153856 0.157109
H14   H     H_    0.799618 0.287225 0.720330 0.163863
H15   H     H_    0.200376 0.287243 0.279666 0.163814
H16   H     H_    0.299621 0.787230 0.720330 0.163936
H17   H     H_    0.700376 0.787242 0.279666 0.163903
H18   H     H_    0.916980 0.312641 0.571140 0.154592
H19   H     H_    0.083021 0.312646 0.428865 0.154726
H20   H     H_    0.416981 0.812642 0.571144 0.154716
H21   H     H_    0.583021 0.812643 0.428873 0.154694
H22   H     H_    0.683431 0.419898 0.314934 0.195139
H23   H     H_    0.181079 0.691122 0.281921 0.159317
H24   H     H_    0.316572 0.419881 0.685068 0.195044
H25   H     H_    0.183431 0.919894 0.314931 0.195096
H26   H     H_    0.816571 0.919886 0.685056 0.195118
H27   H     H_    0.739243 0.486124 0.342307 0.199072
H28   H     H_    0.260760 0.486109 0.657697 0.199035
H29   H     H_    0.239241 0.986121 0.342302 0.199069
H30   H     H_    0.760758 0.986114 0.657684 0.199105
H31   H     H_    0.973205 0.370549 0.575527 0.155421
H32   H     H_    0.026796 0.370554 0.424482 0.155589
H33   H     H_    0.473206 0.870550 0.575530 0.155595
H34   H     H_    0.818723 0.691249 0.718089 0.159359
H35   H     H_    0.526796 0.870550 0.424489 0.155563
H36   H     H_    0.540204 0.308123 0.153836 0.161142
H37   H     H_    0.459579 0.308188 0.846125 0.161621
H38   H     H_    0.040663 0.808320 0.153781 0.161594
H39   H     H_    0.959491 0.808207 0.846217 0.161578
H40   H     H_    0.601520 0.308451 0.279505 0.181605
H41   H     H_    0.398266 0.308528 0.720479 0.182203
H42   H     H_    0.102133 0.808814 0.279471 0.182354
H43   H     H_    0.898038 0.808699 0.720530 0.182179
H44   H     H_    0.656842 0.117627 0.433856 0.161062
H45   H     H_    0.597290 0.062748 0.428768 0.164411
H46   H     H_    0.343163 0.117624 0.566147 0.161978
H47   H     H_    0.156830 0.617633 0.433843 0.160974
H48   H     H_    0.843156 0.617621 0.566140 0.160986
H49   H     H_    0.579036 0.180006 0.647271 0.179271
H50   H     H_    0.420941 0.180010 0.352698 0.178748
H51   H     H_    0.079056 0.679998 0.647295 0.178935
H52   H     H_    0.920958 0.680016 0.352719 0.178956
H53   H     H_    0.546203 0.120671 0.565303 0.162811
H54   H     H_    0.453780 0.120670 0.434672 0.162702
H55   H     H_    0.046211 0.620669 0.565315 0.162753
H56   H     H_    0.402712 0.062744 0.571233 0.164906
H57   H     H_    0.953788 0.620672 0.434684 0.162743
H58   H     H_    0.663480 0.185201 0.162859 0.190913
H59   H     H_    0.617660 0.153241 0.161614 0.190514
H60   H     H_    0.362041 0.198564 0.877504 0.189173
H61   H     H_    0.347834 0.160487 0.819675 0.182296
H62   H     H_    0.162295 0.683832 0.162848 0.190494
H63   H     H_    0.116164 0.652484 0.161853 0.190258
H64   H     H_    0.837455 0.684098 0.837147 0.190551
H65   H     H_    0.883491 0.652599 0.838163 0.190254
H66   H     H_    0.745296 0.210703 0.681481 0.204911
H67   H     H_    0.097279 0.562753 0.428755 0.164375
H68   H     H_    0.705879 0.251913 0.626896 0.235388
H69   H     H_    0.254694 0.210717 0.318518 0.204810
H70   H     H_    0.294117 0.251924 0.373095 0.235381
H71   H     H_    0.245308 0.710695 0.681483 0.204814
H72   H     H_    0.205889 0.751908 0.626907 0.235438
H73   H     H_    0.754703 0.710721 0.318519 0.204846
H74   H     H_    0.794122 0.751926 0.373103 0.235425
H75   H     H_    0.902705 0.562740 0.571226 0.164357
H76   H     H_    0.921526 0.215929 0.719242 0.157291
N1    N     N_R   0.517355 0.287746 0.034251 -0.176206
N2    N     N_R   0.055302 0.252197 0.034065 -0.166675
N3    N     N_R   0.444706 0.752188 0.965934 -0.166443
N4    N     N_R   0.555302 0.752195 0.034065 -0.166374
N5    N     N_R   0.978737 0.251970 0.034525 -0.169417
N6    N     N_R   0.021271 0.251978 0.965474 -0.169748
N7    N     N_R   0.478737 0.751971 0.034525 -0.169438
N8    N     N_R   0.521271 0.751976 0.965474 -0.169341
N9    N     N_3   0.622753 0.183532 0.146587 -0.442545
N10   N     N_3   0.377541 0.183461 0.854251 -0.437456
N11   N     N_3   0.121582 0.682585 0.146689 -0.444078
N12   N     N_R   0.481517 0.287750 0.965724 -0.174937
N13   N     N_3   0.878166 0.682742 0.853317 -0.444028
N14   N     N_3   0.714867 0.218724 0.629579 -0.435470
N15   N     N_3   0.285127 0.218735 0.370417 -0.435568
N16   N     N_3   0.214876 0.718719 0.629584 -0.435523
N17   N     N_3   0.785133 0.718737 0.370420 -0.435497
N18   N     N_R   0.017900 0.787405 0.034266 -0.176281
N19   N     N_R   0.982225 0.787408 0.965731 -0.176294
N20   N     N_R   0.482800 0.211547 0.965678 -0.137518
N21   N     N_R   0.518727 0.211550 0.034118 -0.139814
N22   N     N_R   0.982013 0.711199 0.965784 -0.140019
N23   N     N_R   0.017785 0.711196 0.034236 -0.140027
N24   N     N_R   0.944706 0.252187 0.965934 -0.166353
O1    O     O_R   0.678340 0.230070 0.500020 -0.616049
O2    O     O_R   0.482930 0.045810 0.557520 -0.650871
O3    O     O_R   0.017070 0.545810 0.442480 -0.651207
O4    O     O_R   0.982930 0.545810 0.557520 -0.651246
O5    O     O_R   0.574570 0.045820 0.557490 -0.569383
O6    O     O_R   0.425430 0.045820 0.442510 -0.569558
O7    O     O_R   0.074570 0.545820 0.557490 -0.569481
O8    O     O_R   0.925430 0.545820 0.442510 -0.569442
O9    O     O_R   0.730080 0.178340 0.500000 -0.627608
O10   O     O_R   0.269920 0.178340 0.500000 -0.627436
O11   O     O_R   0.230080 0.678340 0.500000 -0.627734
O12   O     O_R   0.321660 0.230070 0.499980 -0.615875
O13   O     O_R   0.769920 0.678340 0.500000 -0.627718
O14   O     O_R   0.673200 0.275870 0.398140 -0.585947
O15   O     O_R   0.326800 0.275870 0.601860 -0.585188
O16   O     O_R   0.173200 0.775870 0.398140 -0.585877
O17   O     O_R   0.826800 0.775870 0.601860 -0.585866
O18   O     O_R   0.724950 0.224150 0.398130 -0.635460
O19   O     O_R   0.275050 0.224150 0.601870 -0.635913
O20   O     O_R   0.224950 0.724150 0.398130 -0.635411
O21   O     O_R   0.775050 0.724150 0.601870 -0.635440
O22   O     O_R   0.769940 0.321680 0.500000 -0.582335
O23   O     O_R   0.178340 0.730070 0.500020 -0.615968
O24   O     O_R   0.230060 0.321680 0.500000 -0.582273
O25   O     O_R   0.269940 0.821680 0.500000 -0.582195
O26   O     O_R   0.730060 0.821680 0.500000 -0.582299
O27   O     O_R   0.821690 0.269960 0.499980 -0.634985
O28   O     O_R   0.178310 0.269960 0.500020 -0.635151
O29   O     O_R   0.321690 0.769960 0.499980 -0.634992
O30   O     O_R   0.678310 0.769960 0.500020 -0.634968
O31   O     O_R   0.775070 0.275880 0.601870 -0.632148
O32   O     O_R   0.224930 0.275880 0.398130 -0.632217
O33   O     O_R   0.275070 0.775880 0.601870 -0.632060
O34   O     O_R   0.821660 0.730070 0.499980 -0.615978
O35   O     O_R   0.724930 0.775880 0.398130 -0.632119
O36   O     O_R   0.826820 0.224150 0.601850 -0.624890
O37   O     O_R   0.173180 0.224150 0.398150 -0.624888
O38   O     O_R   0.326820 0.724150 0.601850 -0.624916
O39   O     O_R   0.673180 0.724150 0.398150 -0.624906
O40   O     O_R   0.017100 0.454190 0.442490 -0.639173
O41   O     O_R   0.982900 0.454190 0.557510 -0.639308
O42   O     O_R   0.517100 0.954190 0.442490 -0.639228
O43   O     O_R   0.482900 0.954190 0.557510 -0.639004
O44   O     O_R   0.074600 0.454200 0.557500 -0.586163
O45   O     O_R   0.925400 0.454200 0.442500 -0.585993
O46   O     O_R   0.574600 0.954200 0.557500 -0.585996
O47   O     O_R   0.425400 0.954200 0.442500 -0.586111
O48   O     O_R   0.517070 0.045810 0.442480 -0.651295
Zn1   Zn    Zn3+2 0.715460 0.284550 0.500010 1.001878
Zn2   Zn    Zn3+2 0.038380 0.500000 0.576800 1.009035
Zn3   Zn    Zn3+2 0.461620 0.000000 0.423200 1.009285
Zn4   Zn    Zn3+2 0.538380 0.000000 0.576800 1.010256
Zn5   Zn    Zn3+2 0.284540 0.284550 0.499990 1.002313
Zn6   Zn    Zn3+2 0.215460 0.784550 0.500010 1.002359
Zn7   Zn    Zn3+2 0.784540 0.784550 0.499990 1.002144
Zn8   Zn    Zn3+2 0.784560 0.215470 0.499990 0.965572
Zn9   Zn    Zn3+2 0.215440 0.215470 0.500010 0.965893
Zn10  Zn    Zn3+2 0.284560 0.715470 0.499990 0.965558
Zn11  Zn    Zn3+2 0.715440 0.715470 0.500010 0.965530
Zn12  Zn    Zn3+2 0.961620 0.500000 0.423200 1.009445

loop_
_geom_bond_atom_site_label_1
_geom_bond_atom_site_label_2
_ccdc_geom_bond_type
C73   O10   A    
C69   C139  A    
C44   O2    A    
C105  C110  A    
C133  C137  A    
O40   Zn12  S    
C87   C91   A    
C73   C93   S    
O32   Zn5   S    
C21   C26   A    
C51   H34   S    
C13   C60   S    
O3    Zn12  S    
C154  C158  A    
C115  H2    S    
C125  C144  S    
C36   O45   A    
C29   C33   A    
C126  C143  S    
O10   Zn9   S    
C91   C96   A    
C153  O30   A    
C77   H51   S    
N2    N6    A    
C43   C110  S    
H74   N17   S    
C81   C86   A    
C97   C105  A    
C1    O9    A    
C83   C88   A    
O44   Zn2   S    
C100  C109  A    
C130  C134  A    
C118  C140  A    
C101  O18   A    
C39   C136  S    
C25   C29   A    
O47   Zn3   S    
C57   C90   A    
C27   C31   A    
O48   Zn3   S    
C134  H16   S    
C28   C32   A    
C86   C90   A    
C160  H29   S    
N22   N23   A    
C104  O21   A    
C155  C159  A    
C17   C21   A    
C149  O22   A    
C4    F8    S    
C19   C23   A    
O34   Zn7   S    
C49   H12   S    
C50   H23   S    
C78   C82   A    
C11   C33   A    
C16   C20   A    
C37   O46   A    
C152  O25   A    
C68   N17   S    
O20   Zn10  S    
C129  C133  A    
C73   O12   A    
C159  H28   S    
C82   H57   S    
C105  H45   S    
C22   C27   A    
C98   H46   S    
C63   H38   S    
C2    N21   A    
C53   N10   S    
H73   N17   S    
H68   N14   S    
C6    C160  A    
C53   C58   A    
O13   Zn11  S    
C119  C123  A    
C59   C63   A    
C30   C36   S    
C42   O35   A    
C60   C64   A    
C66   H41   S    
C26   H31   S    
C141  N5    A    
C74   F4    S    
C145  F1    S    
C49   C53   A    
O26   Zn7   S    
O23   Zn6   S    
C51   C55   A    
O28   Zn9   S    
C87   C113  A    
C61   H36   S    
C61   C65   A    
C48   C52   A    
H69   N15   S    
C148  F7    S    
C114  C136  A    
C119  H5    S    
C75   C79   A    
O31   Zn1   S    
C82   C87   A    
C78   H52   S    
C102  O19   A    
C15   C147  A    
C57   N16   S    
O27   Zn8   S    
C156  H25   S    
C103  O20   A    
C46   C89   A    
C5    C9    A    
C99   C108  A    
H59   N9    S    
O7    Zn2   S    
O4    Zn2   S    
C130  H11   S    
N5    N24   A    
C68   C74   A    
C157  H26   S    
C118  C122  A    
C70   F12   S    
C155  H24   S    
O38   Zn10  S    
C52   C56   A    
C72   F3    S    
C49   C117  A    
C115  C137  A    
C45   O7    A    
C97   H44   S    
C101  O14   A    
C108  H67   S    
O11   Zn10  S    
C114  C119  A    
C8    C12   A    
O21   Zn11  S    
C118  H4    S    
C143  N7    A    
C23   H20   S    
C92   C97   A    
C54   C59   A    
C84   O11   A    
C114  H76   S    
C31   C34   S    
C20   C153  S    
C62   C66   A    
H65   N13   S    
C156  C160  A    
C2    N1    A    
C47   O4    A    
C46   N15   S    
C23   C28   A    
C12   C145  A    
C121  C125  A    
C44   O6    A    
O43   Zn4   S    
C123  C127  A    
C43   O5    A    
H58   N9    S    
C132  C136  A    
C83   C110  A    
O9    Zn8   S    
C64   C69   A    
C102  C117  S    
C145  C154  A    
C131  H13   S    
C146  F5    S    
C26   C30   A    
C124  C141  S    
N1    N12   A    
C28   H33   S    
C150  N20   A    
C6    F10   S    
C101  C106  S    
C3    H30   S    
O19   Zn9   S    
C116  H3    S    
C24   N18   A    
C18   C22   A    
C107  C111  A    
C144  N3    A    
O37   Zn9   S    
C76   C80   A    
H61   N10   S    
O1    Zn1   S    
C37   O42   A    
C29   H35   S    
O46   Zn4   S    
C39   O36   A    
C2    C56   S    
C67   C128  A    
C34   O44   A    
C24   C59   S    
C96   C100  A    
C148  C157  A    
C89   C93   A    
O6    Zn3   S    
C133  H15   S    
C58   C150  S    
H64   N13   S    
C109  H75   S    
C70   C75   A    
C3    C157  A    
C67   H42   S    
C80   H54   S    
C22   H19   S    
C51   C139  A    
C58   C62   A    
C129  H10   S    
C54   N11   S    
C7    F11   S    
C42   O39   A    
O12   Zn5   S    
O41   Zn2   S    
C121  H7    S    
C15   C19   A    
C144  N8    A    
C50   C54   A    
C3    C7    A    
C71   C76   A    
C20   C25   A    
C104  O17   A    
C120  H6    S    
C65   H40   S    
C48   C106  A    
C146  C155  A    
C66   C117  A    
C12   C17   A    
H72   N16   S    
O39   Zn11  S    
H60   N10   S    
C55   C60   A    
C141  N2    A    
H62   N11   S    
O35   Zn7   S    
O30   Zn11  S    
C90   C94   A    
C135  C140  A    
C41   O38   A    
C143  N4    A    
C38   O43   A    
C42   C140  S    
C40   O37   A    
C116  C121  A    
C84   O23   A    
C85   C89   A    
O8    Zn12  S    
O16   Zn6   S    
C95   O13   A    
C33   C37   S    
C98   C107  A    
C108  C112  A    
C9    C14   A    
C80   C85   A    
O36   Zn8   S    
C11   C16   A    
N3    N7    A    
O22   Zn1   S    
C77   C81   A    
C40   C137  S    
C158  H27   S    
C84   C94   S    
C147  C156  A    
C46   C71   A    
C122  H8    S    
C99   H47   S    
C1    C92   S    
O5    Zn4   S    
H66   N14   S    
C50   C128  A    
C18   C151  S    
C25   H21   S    
C47   O8    A    
C35   N14   S    
C47   C113  S    
C151  O28   A    
C85   C111  A    
C142  N6    A    
C6    C10   A    
C104  C139  S    
C8    C30   A    
C45   O3    A    
C79   C83   A    
C34   O40   A    
C52   N9    S    
C123  C142  S    
C41   O33   A    
C124  C129  A    
C57   C72   A    
C103  O16   A    
O14   Zn1   S    
O17   Zn7   S    
C44   C111  S    
O42   Zn3   S    
O15   Zn5   S    
N20   N21   A    
H63   N11   S    
C36   O41   A    
C74   C78   A    
C5    F9    S    
C56   C61   A    
C153  O26   A    
C71   F2    S    
C14   C18   A    
C95   C96   S    
C69   H43   S    
C4    C8    A    
C45   C112  S    
C7    C11   A    
C126  C131  A    
C38   O47   A    
C131  C135  A    
C10   C15   A    
O2    Zn4   S    
C68   C91   A    
C39   O31   A    
C40   O32   A    
C127  C132  A    
C135  H17   S    
C150  N12   A    
C125  C130  A    
C149  O27   A    
C4    C158  A    
C88   C92   A    
C35   C70   A    
C5    C159  A    
H70   N15   S    
C64   H39   S    
C32   C38   S    
C95   O34   A    
C1    O1    A    
C109  C113  A    
N4    N8    A    
C152  O29   A    
C13   N19   A    
C116  C138  A    
C151  O24   A    
O45   Zn12  S    
C63   C67   A    
C24   N23   A    
C27   H32   S    
C132  H14   S    
C76   H50   S    
O29   Zn10  S    
C102  O15   A    
C122  C126  A    
C86   C112  A    
C72   C77   A    
C147  F6    S    
C35   C88   A    
C107  H56   S    
C19   C152  S    
C41   C138  S    
C103  C128  S    
C100  H48   S    
O33   Zn6   S    
C127  H9    S    
H71   N16   S    
O18   Zn8   S    
C65   C106  A    
C48   H1    S    
C81   H55   S    
C55   N13   S    
C17   C149  S    
C134  C138  A    
C14   C146  A    
C16   C148  A    
C13   N22   A    
C21   H18   S    
C94   C99   A    
C62   H37   S    
C43   O48   A    
C142  N24   A    
N18   N19   A    
C9    C31   A    
C154  H22   S    
C10   C32   A    
C75   H49   S    
C115  C120  A    
O24   Zn5   S    
C93   C98   A    
C79   H53   S    
C120  C124  A    
O25   Zn6   S    
