data_mof_unit_34154.cif
_audit_creation_date              2012-12-10T17:18:20-0500
_audit_creation_method            fapswitch 2.2
_symmetry_space_group_name_H-M    P1
_symmetry_Int_Tables_number       1
_space_group_crystal_system       triclinic
_cell_length_a                    10.270501
_cell_length_b                    10.657451
_cell_length_c                    14.911221
_cell_angle_alpha                 91.565364
_cell_angle_beta                  82.181086
_cell_angle_gamma                 94.57194
_cell_volume                      1611.59944376

loop_
_atom_site_label
_atom_site_type_symbol
_atom_type_description
_atom_site_fract_x
_atom_site_fract_y
_atom_site_fract_z
_atom_type_partial_charge
C1    C     C_R   0.554321 0.732759 0.490062 0.904949
C2    C     C_2   0.076662 0.518550 0.478359 0.595359
C3    C     C_R   0.501084 0.500699 0.672644 0.839362
C4    C     C_R   0.499127 0.499618 0.327365 0.856645
C5    C     C_R   0.567021 0.411056 0.178620 -0.147636
C6    C     C_R   0.434324 0.590598 0.821374 -0.150808
C7    C     C_R   0.498333 0.499469 0.231928 -0.070194
C8    C     C_R   0.503428 0.502485 0.768011 -0.098939
C9    C     C_R   0.433059 0.589953 0.194612 -0.209206
C10   C     C_R   0.572851 0.414965 0.805079 -0.193140
C11   C     C_R   0.435276 0.593367 0.101511 -0.023665
C12   C     C_R   0.444823 0.267103 0.502545 0.925683
C13   C     C_R   0.570649 0.411565 0.898177 -0.022125
C14   C     C_R   0.502305 0.501835 0.046565 -0.048399
C15   C     C_R   0.502811 0.502541 0.953166 -0.051694
C16   C     C_R   0.569360 0.410074 0.085319 -0.007219
C17   C     C_R   0.434532 0.593429 0.914502 -0.004976
C18   C     C_R   0.372181 0.686825 0.062785 0.441650
C19   C     C_R   0.633969 0.318236 0.936890 0.450329
C20   C     C_3   0.396308 0.882230 0.125451 -0.211273
C21   C     C_3   0.610508 0.122860 0.874030 -0.213178
C22   C     C_3   0.112557 0.555942 0.326932 -0.198077
C23   C     C_R   0.368316 0.684495 0.969458 0.281974
C24   C     C_3   0.841723 0.642829 0.623955 -0.128502
C25   C     C_3   0.166038 0.703827 0.640157 -0.122933
C26   C     C_3   0.809652 0.259472 0.395653 -0.081949
C27   C     C_R   0.636393 0.319585 0.030346 0.278409
C28   C     C_2   0.581508 0.864750 0.469601 -0.344991
C29   C     C_2   0.412383 0.133654 0.494122 -0.334352
C30   C     C_2   0.481232 0.929707 0.454037 -0.159043
C31   C     C_2   0.499883 0.063638 0.447073 -0.170119
C32   C     C_2   0.927211 0.530231 0.496978 0.540949
Cl1   Cl    Cl    0.278899 0.797053 0.923905 -0.610354
Cl2   Cl    Cl    0.725175 0.206609 0.076039 -0.599756
H1    H     H_    0.616366 0.342464 0.211198 0.182445
H2    H     H_    0.344622 0.953602 0.169283 0.199347
H3    H     H_    0.431470 0.926044 0.058766 0.188715
H4    H     H_    0.662582 0.051557 0.830369 0.192917
H5    H     H_    0.525149 0.147058 0.840959 0.144985
H6    H     H_    0.575017 0.078999 0.940651 0.187226
H7    H     H_    0.006681 0.559995 0.319734 0.172906
H8    H     H_    0.161760 0.521015 0.261234 0.209732
H9    H     H_    0.158049 0.652036 0.339649 0.132590
H10   H     H_    0.903276 0.712350 0.659321 0.168356
H11   H     H_    0.841031 0.549044 0.655590 0.167492
H12   H     H_    0.382919 0.657697 0.788987 0.181318
H13   H     H_    0.742144 0.677805 0.636850 0.167397
H14   H     H_    0.158423 0.773679 0.587297 0.125844
H15   H     H_    0.270137 0.697050 0.648705 0.196376
H16   H     H_    0.116689 0.739815 0.705519 0.166019
H17   H     H_    0.733476 0.295176 0.359272 0.183022
H18   H     H_    0.770872 0.208612 0.458793 0.153206
H19   H     H_    0.860519 0.190293 0.349266 0.159506
H20   H     H_    0.383010 0.658770 0.238632 0.173602
H21   H     H_    0.625259 0.347683 0.760960 0.188251
H22   H     H_    0.591592 0.104113 0.411472 0.159103
H23   H     H_    0.380990 0.886862 0.457011 0.184942
H24   H     H_    0.319110 0.092104 0.528127 0.158800
H25   H     H_    0.680994 0.908906 0.467787 0.164821
H26   H     H_    0.481849 0.857858 0.158261 0.146254
N1    N     N_2   0.842700 0.448880 0.462930 0.025924
N2    N     N_2   0.157300 0.551120 0.537070 0.031693
O1    O     O_R   0.431060 0.692470 0.507460 -0.653778
O2    O     O_3   0.699481 0.229023 0.882924 -0.569599
O3    O     O_3   0.130934 0.472206 0.395080 -0.581693
O4    O     O_3   0.886166 0.645712 0.530008 -0.651518
O5    O     O_3   0.102763 0.586275 0.620157 -0.585627
O6    O     O_3   0.902575 0.354964 0.414702 -0.567277
O7    O     O_R   0.568940 0.307530 0.492540 -0.649228
O8    O     O_R   0.651120 0.659650 0.483670 -0.561961
O9    O     O_R   0.348880 0.340350 0.516330 -0.572788
O10   O     O_R   0.389960 0.516440 0.644050 -0.593920
O11   O     O_R   0.610040 0.483560 0.355950 -0.631190
O12   O     O_R   0.610030 0.483620 0.620260 -0.642945
O13   O     O_R   0.389970 0.516380 0.379740 -0.575941
O14   O     O_3   0.307032 0.776259 0.116753 -0.581751
Zn1   Zn    Zn3+2 0.353060 0.521920 0.515880 1.017500
Zn2   Zn    Zn3+2 0.646940 0.478080 0.484120 0.976146

loop_
_geom_bond_atom_site_label_1
_geom_bond_atom_site_label_2
_ccdc_geom_bond_type
C12   O7    A    
C11   C18   A    
C12   C29   S    
O8    Zn2   S    
N2    Zn1   S    
C25   O5    S    
C2    O3    S    
C17   C23   A    
N2    O5    S    
C24   H11   S    
C2    C32   S    
C32   N1    D    
C30   C31   S    
C11   C14   A    
C22   H7    S    
C30   H23   S    
C20   O14   S    
C7    C9    A    
C3    O12   A    
C25   H16   S    
C21   O2    S    
C21   H4    S    
C5    C16   A    
C1    C28   S    
O11   Zn2   S    
C31   H22   S    
C20   H26   S    
C19   C27   A    
C19   O2    S    
C24   O4    S    
C16   C27   A    
O7    Zn2   S    
C4    O13   A    
C4    C7    S    
C1    O1    A    
C27   Cl2   S    
C13   C19   A    
C18   C23   A    
C3    C8    S    
C5    C7    A    
C6    C8    A    
C23   Cl1   S    
C22   O3    S    
O10   Zn1   S    
C26   H18   S    
O13   Zn1   S    
C22   H9    S    
C21   H5    S    
N1    Zn2   S    
C10   H21   S    
C9    C11   A    
C25   H14   S    
C4    O11   A    
C12   O9    A    
C13   C15   A    
C24   H10   S    
C14   C16   A    
C26   H19   S    
O9    Zn1   S    
C32   O4    S    
O1    Zn1   S    
C28   H25   S    
C15   C17   A    
C6    C17   A    
C18   O14   S    
C6    H12   S    
C24   H13   S    
C10   C13   A    
C1    O8    A    
C26   O6    S    
C28   C30   D    
C3    O10   A    
C29   C31   D    
C26   H17   S    
C20   H3    S    
N1    O6    S    
C22   H8    S    
C21   H6    S    
C5    H1    S    
C25   H15   S    
C20   H2    S    
C29   H24   S    
C8    C10   A    
O12   Zn2   S    
C14   C15   A    
C9    H20   S    
C2    N2    D    
