data_mof_unit_29046.cif
_audit_creation_date              2012-12-10T18:47:07-0500
_audit_creation_method            fapswitch 2.2
_symmetry_space_group_name_H-M    P1
_symmetry_Int_Tables_number       1
_space_group_crystal_system       triclinic
_cell_length_a                    10.717926
_cell_length_b                    9.82193
_cell_length_c                    15.015369
_cell_angle_alpha                 89.919776
_cell_angle_beta                  90.094202
_cell_angle_gamma                 89.982163
_cell_volume                      1580.67492583

loop_
_atom_site_label
_atom_site_type_symbol
_atom_type_description
_atom_site_fract_x
_atom_site_fract_y
_atom_site_fract_z
_atom_type_partial_charge
C1    C     C_R   0.259817 0.500016 0.499929 0.875828
C2    C     C_R   0.127406 0.500032 0.499908 -0.018107
C3    C     C_R   0.573135 0.071861 0.558437 -0.068302
C4    C     C_R   0.426864 0.928139 0.441563 -0.068303
C5    C     C_R   0.426866 0.072174 0.441558 -0.065995
C6    C     C_R   0.573134 0.927826 0.558442 -0.065993
C7    C     C_R   0.499262 0.500073 0.326541 0.902679
C8    C     C_R   0.500738 0.499927 0.673459 0.902679
C9    C     C_R   0.528831 0.620514 0.814742 -0.205909
C10   C     C_R   0.471172 0.379485 0.185258 -0.205911
C11   C     C_R   0.503471 0.499759 0.769298 -0.108730
C12   C     C_R   0.740183 0.499984 0.500071 0.875827
C13   C     C_R   0.496531 0.500240 0.230701 -0.108728
C14   C     C_R   0.480137 0.379071 0.815026 -0.225042
C15   C     C_R   0.519867 0.620928 0.184974 -0.225043
C16   C     C_R   0.477592 0.378906 0.906970 0.133195
C17   C     C_R   0.522415 0.621093 0.093030 0.133196
C18   C     C_R   0.502799 0.500377 0.953646 0.034238
C19   C     C_R   0.497208 0.499621 0.046354 0.034239
C20   C     C_R   0.533112 0.622309 0.907427 0.093384
C21   C     C_R   0.466893 0.377690 0.092573 0.093382
C22   C     C_R   0.446853 0.259229 0.952098 -0.307302
C23   C     C_R   0.437808 0.257381 0.044570 -0.004842
C24   C     C_R   0.553155 0.740769 0.047902 -0.307306
C25   C     C_2   0.393877 0.128478 0.085914 0.374459
C26   C     C_2   0.606130 0.871521 0.914087 0.374460
C27   C     C_R   0.562199 0.742618 0.955430 -0.004843
C28   C     C_R   0.063902 0.378722 0.482546 -0.179238
C29   C     C_R   0.936098 0.621278 0.517454 -0.179238
C30   C     C_R   0.936088 0.378683 0.482663 -0.184745
C31   C     C_R   0.063912 0.621317 0.517337 -0.184745
C32   C     C_R   0.872594 0.499968 0.500092 -0.018107
H1    H     H_    0.542581 0.712701 0.776866 0.207713
H2    H     H_    0.112608 0.715559 0.531407 0.161350
H3    H     H_    0.631563 0.126452 0.605096 0.141312
H4    H     H_    0.368437 0.873548 0.394904 0.141312
H5    H     H_    0.368446 0.127011 0.394887 0.147407
H6    H     H_    0.631554 0.872989 0.605113 0.147408
H7    H     H_    0.414028 0.032150 0.053681 0.052099
H8    H     H_    0.585986 0.967848 0.946324 0.052100
H9    H     H_    0.457419 0.287299 0.223133 0.207710
H10   H     H_    0.460149 0.285843 0.779042 0.166591
H11   H     H_    0.539855 0.714156 0.220958 0.166590
H12   H     H_    0.425582 0.167619 0.914670 0.139642
H13   H     H_    0.574427 0.832379 0.085330 0.139641
H14   H     H_    0.112589 0.284507 0.468382 0.159864
H15   H     H_    0.887411 0.715492 0.531618 0.159864
H16   H     H_    0.887392 0.284441 0.468593 0.161350
N1    N     N_R   0.500000 0.857200 0.500000 -0.089585
N2    N     N_R   0.500000 0.142800 0.500000 -0.089585
O1    O     O_R   0.316770 0.614620 0.499990 -0.627419
O2    O     O_2   0.672102 0.871821 0.847913 -0.582140
O3    O     O_R   0.683230 0.385380 0.500010 -0.627418
O4    O     O_R   0.683230 0.614620 0.500010 -0.627120
O5    O     O_R   0.316770 0.385380 0.499990 -0.627120
O6    O     O_R   0.499980 0.614680 0.367850 -0.624861
O7    O     O_R   0.500020 0.385320 0.632150 -0.624861
O8    O     O_R   0.500020 0.614680 0.632150 -0.627058
O9    O     O_R   0.499980 0.385320 0.367850 -0.627058
O10   O     O_2   0.327897 0.128179 0.152083 -0.582137
Zn1   Zn    Zn3+2 0.500000 0.653120 0.500000 0.956636
Zn2   Zn    Zn3+2 0.500000 0.346880 0.500000 0.956636

loop_
_geom_bond_atom_site_label_1
_geom_bond_atom_site_label_2
_ccdc_geom_bond_type
C30   H16   S    
C9    H1    S    
C6    H6    S    
O4    Zn1   S    
C26   O2    D    
C8    O7    A    
C9    C11   A    
O3    Zn2   S    
C25   H7    S    
C9    C20   A    
C12   O3    A    
O1    Zn1   S    
C24   C27   A    
C3    H3    S    
C4    N1    A    
C14   H10   S    
C3    C6    A    
C28   H14   S    
O8    Zn1   S    
C4    H4    S    
C1    O5    A    
C31   H2    S    
C15   H11   S    
O7    Zn2   S    
C29   C31   A    
C12   C32   S    
C10   H9    S    
C30   C32   A    
C1    O1    A    
C26   H8    S    
C26   C27   S    
C7    O6    A    
C29   H15   S    
C8    C11   S    
C24   H13   S    
C28   C30   A    
C20   C27   A    
C3    N2    A    
C1    C2    S    
C29   C32   A    
C18   C20   A    
C13   C15   A    
C10   C21   A    
N2    Zn2   S    
C11   C14   A    
C22   H12   S    
C5    N2    A    
C17   C24   A    
N1    Zn1   S    
C5    H5    S    
O5    Zn2   S    
C7    C13   S    
C23   C25   S    
C8    O8    A    
C16   C18   A    
C18   C19   A    
C7    O9    A    
C15   C17   A    
C22   C23   A    
C2    C31   A    
O9    Zn2   S    
C2    C28   A    
C17   C19   A    
C14   C16   A    
O6    Zn1   S    
C21   C23   A    
C25   O10   D    
C12   O4    A    
C6    N1    A    
C16   C22   A    
C4    C5    A    
C19   C21   A    
C10   C13   A    
