data_mof_unit_7952.cif
_audit_creation_date              2012-12-11T15:52:31-0500
_audit_creation_method            fapswitch 2.2
_symmetry_space_group_name_H-M    P1
_symmetry_Int_Tables_number       1
_space_group_crystal_system       triclinic
_cell_length_a                    8.288724
_cell_length_b                    19.098561
_cell_length_c                    19.031603
_cell_angle_alpha                 98.94201
_cell_angle_beta                  94.627123
_cell_angle_gamma                 91.841595
_cell_volume                      2963.38273567

loop_
_atom_site_label
_atom_site_type_symbol
_atom_type_description
_atom_site_fract_x
_atom_site_fract_y
_atom_site_fract_z
_atom_type_partial_charge
Ba1   Ba    Ba6+2 0.152000 0.534910 0.469330 1.690947
Ba2   Ba    Ba6+2 0.658180 0.465080 0.530610 1.714402
C1    C     C_3   0.327125 0.731436 0.216377 0.262897
C2    C     C_R   0.984462 0.273491 0.475364 0.013556
C3    C     C_R   0.131540 0.188826 0.566463 -0.168392
C4    C     C_3   0.837511 0.722955 0.283724 0.289439
C5    C     C_R   0.199317 0.256278 0.563375 0.030304
C6    C     C_R   0.667237 0.812203 0.439200 -0.159466
C7    C     C_R   0.599186 0.745756 0.445891 0.009199
C8    C     C_R   0.862996 0.801019 0.537177 -0.144368
C9    C     C_R   0.826009 0.726801 0.525686 0.059613
C10   C     C_R   0.014056 0.155200 0.512022 0.004727
C11   C     C_R   0.114197 0.300334 0.523495 -0.176058
C12   C     C_3   0.360803 0.700547 0.285044 0.514093
C13   C     C_R   0.791965 0.845789 0.489878 0.002135
C14   C     C_R   0.687549 0.700971 0.482971 -0.237344
C15   C     C_R   0.231134 0.038762 0.547893 -0.084263
C16   C     C_3   0.897677 0.799688 0.287944 -0.321924
C17   C     C_R   0.329935 0.988610 0.572281 -0.077847
C18   C     C_R   0.282085 0.917782 0.555552 -0.066145
C19   C     C_R   0.131648 0.898825 0.519127 -0.078674
C20   C     C_R   0.012508 0.948795 0.512727 0.017606
C21   C     C_R   0.065784 0.022431 0.523239 0.041102
C22   C     C_R   0.847140 0.925323 0.493100 -0.013774
C23   C     C_3   0.512437 0.680545 0.639140 0.308623
C24   C     C_R   0.737614 0.979183 0.478216 0.036010
C25   C     C_R   0.791547 0.052824 0.486184 0.009178
C26   C     C_R   0.957060 0.076099 0.507381 -0.012236
C27   C     C_R   0.571234 0.962747 0.456628 -0.073397
C28   C     C_3   0.773372 0.377984 0.309733 0.242436
C29   C     C_R   0.470043 0.011722 0.431778 -0.070270
C30   C     C_R   0.518971 0.082405 0.443830 -0.035522
C31   C     C_R   0.672797 0.102717 0.475954 -0.062237
C32   C     C_R   0.605396 0.534006 0.303315 -0.272718
C33   C     C_R   0.456921 0.498750 0.278583 0.079468
C34   C     C_3   0.528503 0.760881 0.658663 -0.375031
C35   C     C_R   0.399279 0.494976 0.206586 -0.123068
C36   C     C_R   0.492139 0.524780 0.158758 -0.015712
C37   C     C_R   0.645530 0.557101 0.184151 -0.147597
C38   C     C_R   0.702368 0.560817 0.256018 -0.019544
C39   C     C_R   0.450948 0.577700 0.046123 -0.114889
C40   C     C_3   0.692908 0.351793 0.234285 -0.272898
C41   C     C_R   0.393357 0.574245 0.973854 -0.023666
C42   C     C_R   0.322502 0.509180 0.935169 0.020288
C43   C     C_R   0.303431 0.451357 0.972009 -0.081213
C44   C     C_R   0.356733 0.456482 0.044267 -0.050285
C45   C     C_3   0.898231 0.272336 0.682285 0.351090
C46   C     C_R   0.432680 0.519431 0.081974 0.042946
C47   C     C_R   0.128252 0.462014 0.827312 -0.192149
C48   C     C_R   0.086558 0.451168 0.753342 0.019357
C49   C     C_R   0.336543 0.513573 0.735938 -0.016236
C50   C     C_R   0.380983 0.522767 0.809431 -0.125266
C51   C     C_R   0.276064 0.498351 0.856357 0.028837
C52   C     C_3   0.002994 0.621969 0.692966 0.282580
C53   C     C_R   0.191930 0.475881 0.708290 0.094675
C54   C     C_3   0.965622 0.635348 0.770723 -0.348323
C55   C     C_3   0.256585 0.312716 0.336971 0.213028
C56   C     C_3   0.859909 0.199737 0.701920 -0.344580
C57   C     C_3   0.152177 0.259385 0.282657 -0.357704
C58   C     C_2   0.812616 0.327274 0.181361 0.897704
C59   C     C_2   0.369995 0.274444 0.380918 0.838642
C60   C     C_2   0.401644 0.640541 0.942264 0.859083
C61   C     C_3   0.415746 0.331275 0.731665 0.345710
C62   C     C_3   0.461446 0.321144 0.808236 -0.314016
C63   C     C_R   0.951504 0.199233 0.462431 -0.160436
H1    H     H_    0.301329 0.646607 0.277916 0.008398
H2    H     H_    0.194551 0.734299 0.204386 0.104273
H3    H     H_    0.065160 0.288314 0.252555 0.181675
H4    H     H_    0.085291 0.221746 0.309991 0.074538
H5    H     H_    0.225442 0.229213 0.243071 0.121054
H6    H     H_    0.493972 0.695959 0.293958 -0.265299
H7    H     H_    0.373470 0.696098 0.171019 -0.038683
H8    H     H_    0.630302 0.660727 0.623102 -0.000478
H9    H     H_    0.418722 0.667329 0.593499 0.075537
H10   H     H_    0.625229 0.776227 0.702777 0.132613
H11   H     H_    0.559982 0.784744 0.611716 0.051664
H12   H     H_    0.603634 0.307714 0.236603 0.132038
H13   H     H_    0.411925 0.781812 0.675732 0.128930
H14   H     H_    0.794971 0.835306 0.294783 0.071175
H15   H     H_    0.832928 0.274899 0.629415 0.069730
H16   H     H_    0.030728 0.278478 0.679635 -0.061855
H17   H     H_    0.728493 0.193173 0.708013 0.158234
H18   H     H_    0.892747 0.157321 0.659407 0.065948
H19   H     H_    0.929698 0.194082 0.752907 0.117287
H20   H     H_    0.281790 0.332087 0.723472 -0.098834
H21   H     H_    0.471676 0.382462 0.723097 0.054990
H22   H     H_    0.420247 0.366056 0.845497 0.059259
H23   H     H_    0.626228 0.394806 0.214278 -0.020064
H24   H     H_    0.594932 0.318931 0.817941 0.157586
H25   H     H_    0.784226 0.717756 0.334369 0.006238
H26   H     H_    0.403341 0.271040 0.818775 0.112587
H27   H     H_    0.869974 0.177340 0.416452 0.093659
H28   H     H_    0.175023 0.163088 0.610559 0.066856
H29   H     H_    0.617440 0.837200 0.395650 0.084722
H30   H     H_    0.951687 0.822201 0.580695 0.071310
H31   H     H_    0.157454 0.354262 0.524648 0.084567
H32   H     H_    0.642860 0.646954 0.482056 0.055271
H33   H     H_    0.293502 0.087909 0.544741 0.079643
H34   H     H_    0.134229 0.614905 0.690296 0.033133
H35   H     H_    0.452389 0.003769 0.595076 0.079834
H36   H     H_    0.366532 0.877712 0.565597 0.090622
H37   H     H_    0.743534 0.709869 0.238058 0.002507
H38   H     H_    0.108501 0.844739 0.495408 0.133192
H39   H     H_    0.510244 0.914291 0.462767 0.075896
H40   H     H_    0.346078 0.996004 0.411666 0.092182
H41   H     H_    0.433397 0.121877 0.433254 0.131780
H42   H     H_    0.695513 0.158196 0.493367 0.134417
H43   H     H_    0.495261 0.550309 0.829983 0.082691
H44   H     H_    0.505731 0.627033 0.075434 0.102576
H45   H     H_    0.933066 0.573042 0.666763 0.102731
H46   H     H_    0.284299 0.467195 0.187657 0.115093
H47   H     H_    0.250225 0.401094 0.944341 0.079220
H48   H     H_    0.989538 0.814391 0.334179 0.146067
H49   H     H_    0.342483 0.410339 0.070216 0.088524
H50   H     H_    0.044634 0.443466 0.862012 0.095718
H51   H     H_    0.722581 0.577430 0.147906 0.082353
H52   H     H_    0.651339 0.535672 0.358432 0.063390
H53   H     H_    0.952610 0.806967 0.238119 0.137345
H54   H     H_    0.678613 0.401043 0.342909 0.027518
H55   H     H_    0.868430 0.419940 0.308425 0.026992
H56   H     H_    0.028835 0.685375 0.798437 0.153175
H57   H     H_    0.910511 0.425667 0.183654 0.274415
H58   H     H_    0.462262 0.214007 0.297456 0.277948
H59   H     H_    0.516612 0.794104 0.218996 0.299529
H60   H     H_    0.300843 0.700446 0.873583 0.316702
H61   H     H_    0.231324 0.437255 0.614791 0.296106
H62   H     H_    0.005946 0.591084 0.798083 0.101501
H63   H     H_    0.833056 0.639947 0.773942 0.130749
H64   H     H_    0.173861 0.344164 0.371599 0.004708
O1    O     O_2   0.116570 0.673370 0.549300 -0.454761
O2    O     O_2   0.753364 0.452026 0.743591 -0.490718
O3    O     O_3   0.848275 0.324730 0.734959 -0.599217
O4    O     O_3   0.869340 0.584760 0.542960 -0.482762
O5    O     O_3   0.436600 0.464450 0.413780 -0.479913
O6    O     O_2   0.628980 0.533090 0.672420 -0.468049
O7    O     O_3   0.468327 0.651472 0.698533 -0.632629
O8    O     O_2   0.525946 0.237063 0.553669 -0.465180
O9    O     O_3   0.474293 0.275224 0.685763 -0.600136
O10   O     O_3   0.352540 0.630870 0.419750 -0.475978
O11   O     O_2   0.284272 0.754908 0.481249 -0.506257
O12   O     O_3   0.350437 0.354668 0.300554 -0.659602
O13   O     O_3   0.961462 0.681671 0.662487 -0.643516
O14   O     O_3   0.298233 0.744385 0.342004 -0.571402
O15   O     O_2   0.181320 0.466870 0.327560 -0.458316
O16   O     O_3   0.937730 0.595370 0.381630 -0.463936
O17   O     O_2   0.035425 0.545539 0.254530 -0.493899
O18   O     O_2   0.810616 0.264796 0.154696 -0.553512
O19   O     O_R   0.924540 0.374935 0.161001 -0.731092
O20   O     O_2   0.382611 0.292609 0.444807 -0.581130
O21   O     O_R   0.469008 0.221809 0.351317 -0.736643
O22   O     O_3   0.399101 0.799906 0.223385 -0.692934
O23   O     O_3   0.967661 0.678558 0.273095 -0.587171
O24   O     O_2   0.512404 0.684783 0.962454 -0.598517
O25   O     O_R   0.280661 0.653686 0.891065 -0.770713
O26   O     O_3   0.147249 0.466355 0.636695 -0.724258
O27   O     O_2   0.693730 0.326590 0.450680 -0.406014
O28   O     O_3   0.940960 0.415230 0.456980 -0.480470
O29   O     O_3   0.457750 0.369120 0.580200 -0.452227
O30   O     O_3   0.842032 0.320639 0.337186 -0.636678
O31   O     O_3   0.373690 0.535540 0.586160 -0.453809
O32   O     O_3   0.872560 0.404620 0.618320 -0.434676
P1    P     P_3+3 0.945400 0.662120 0.569160 0.998816
P2    P     P_3+3 0.355390 0.445380 0.336430 1.003312
P3    P     P_3+3 0.909298 0.594271 0.289513 0.954805
P4    P     P_3+3 0.864900 0.337880 0.430780 1.014214
P5    P     P_3+3 0.891321 0.408275 0.712260 0.994481
P6    P     P_3+3 0.384531 0.720945 0.421356 0.967180
P7    P     P_3+3 0.451211 0.558993 0.675578 0.971084
P8    P     P_3+3 0.410726 0.284081 0.598018 0.986614

loop_
_geom_bond_atom_site_label_1
_geom_bond_atom_site_label_2
_ccdc_geom_bond_type
C63   H27   S    
C29   H40   S    
C12   H6    S    
Ba1   O16   S    
C17   C18   A    
C31   H42   S    
O4    P1    S    
C43   H47   S    
C43   C44   A    
C25   C31   A    
C53   O26   S    
C24   C25   A    
C15   C21   A    
C10   C26   S    
C32   C38   A    
C62   H24   S    
C55   H64   S    
C33   C35   A    
C7    C14   A    
O3    P5    S    
C38   P3    S    
C8    C13   A    
C56   H17   S    
C36   C37   A    
C32   C33   A    
C14   H32   S    
C55   C57   S    
C28   H54   S    
C2    P4    S    
C52   H45   S    
Ba1   Ba2   S    
C54   H62   S    
C2    C11   A    
C23   O7    S    
C54   H63   S    
C34   H11   S    
C42   C51   S    
O2    P5    D    
C16   H14   S    
C48   P5    S    
O6    P7    D    
C58   O18   D    
H57   O19   S    
C59   O21   S    
C16   H53   S    
C62   H22   S    
C36   C46   S    
O32   P5    S    
Ba1   O10   S    
C4    O23   S    
H61   O26   S    
O1    P1    D    
O11   P6    D    
C4    H37   S    
H58   O21   S    
C39   H44   S    
C19   C20   A    
C61   H20   S    
O9    P8    S    
C39   C41   A    
C49   P7    S    
C45   H15   S    
Ba1   O4    S    
Ba2   O32   S    
C23   H8    S    
C44   C46   A    
C28   O30   S    
C4    C16   S    
C52   C54   S    
Ba2   O4    S    
C44   H49   S    
C11   H31   S    
C49   C50   A    
C7    P6    S    
C6    H29   S    
C3    C10   A    
Ba1   O1    S    
O28   P4    S    
C37   C38   A    
C3    C5    A    
C6    C7    A    
C45   H16   S    
C18   H36   S    
O7    P7    S    
C4    H25   S    
O17   P3    D    
C9    P1    S    
C33   P2    S    
O30   P4    S    
C27   H39   S    
O5    P2    S    
C41   C42   A    
C35   C36   A    
C34   H10   S    
C56   H19   S    
C57   H3    S    
C9    C14   A    
C29   C30   A    
Ba2   O29   S    
C12   H1    S    
Ba2   O5    S    
C50   C51   A    
O10   P6    S    
Ba2   P4    S    
O14   P6    S    
O23   P3    S    
C1    C12   S    
C57   H4    S    
Ba2   O31   S    
C13   C22   S    
C47   H50   S    
H59   O22   S    
Ba1   P1    S    
O12   P2    S    
C6    C13   A    
C5    P8    S    
C61   H21   S    
C61   O9    S    
C20   C22   A    
C52   H34   S    
C40   H23   S    
C21   C26   A    
C40   C58   S    
Ba1   O5    S    
H60   O25   S    
C15   H33   S    
C12   O14   S    
Ba2   O27   S    
C52   O13   S    
C23   C34   S    
C20   C21   A    
O8    P8    D    
Ba1   O31   S    
C1    H2    S    
C42   C43   A    
Ba2   O6    S    
C22   C24   A    
O13   P1    S    
C3    H28   S    
C17   H35   S    
O29   P8    S    
C55   C59   S    
O16   P3    S    
C10   C63   A    
C1    O22   S    
C48   C53   A    
C60   O24   D    
C55   O12   S    
C45   O3    S    
C23   H9    S    
C30   C31   A    
Ba1   O28   S    
C1    H7    S    
O15   P2    D    
Ba1   O15   S    
C34   H13   S    
C56   H18   S    
C54   H56   S    
C45   C56   S    
C2    C63   A    
C28   H55   S    
C8    H30   S    
C32   H52   S    
Ba2   O28   S    
C47   C51   A    
C15   C17   A    
C39   C46   A    
C49   C53   A    
O31   P7    S    
O27   P4    D    
C35   H46   S    
C8    C9    A    
C57   H5    S    
C61   C62   S    
C19   H38   S    
C60   O25   S    
C5    C11   A    
C18   C19   A    
Ba1   P2    S    
C24   C27   A    
C27   C29   A    
C47   C48   A    
C25   C26   A    
C37   H51   S    
C16   H48   S    
C40   H12   S    
C28   C40   S    
C50   H43   S    
C30   H41   S    
C58   O19   S    
C62   H26   S    
C59   O20   D    
C41   C60   S    
