data_mof_unit_27242.cif
_audit_creation_date              2012-12-10T18:10:45-0500
_audit_creation_method            fapswitch 2.2
_symmetry_space_group_name_H-M    P1
_symmetry_Int_Tables_number       1
_space_group_crystal_system       triclinic
_cell_length_a                    12.627424
_cell_length_b                    13.144924
_cell_length_c                    15.754509
_cell_angle_alpha                 90.668069
_cell_angle_beta                  102.864149
_cell_angle_gamma                 81.942898
_cell_volume                      2523.7176878

loop_
_atom_site_label
_atom_site_type_symbol
_atom_type_description
_atom_site_fract_x
_atom_site_fract_y
_atom_site_fract_z
_atom_type_partial_charge
C1    C     C_R   0.438020 0.691556 0.486826 0.901685
C2    C     C_R   0.599242 0.199546 0.507016 -0.049286
C3    C     C_R   0.295368 0.841709 0.496008 0.210594
C4    C     C_R   0.501173 0.500154 0.661504 0.897618
C5    C     C_R   0.273575 0.946013 0.512028 -0.220851
C6    C     C_R   0.351682 0.009960 0.510831 -0.217990
C7    C     C_R   0.451756 0.972515 0.487220 0.039811
C8    C     C_R   0.467091 0.870457 0.458576 0.003901
C9    C     C_R   0.535167 0.034283 0.488070 0.084127
C10   C     C_R   0.626800 0.997578 0.452442 0.137499
C11   C     C_R   0.633401 0.901526 0.414584 -0.331539
C12   C     C_3   0.464368 0.390015 0.039026 0.062012
C13   C     C_R   0.551648 0.839962 0.413098 0.242915
C14   C     C_R   0.528519 0.133160 0.521282 -0.246949
C15   C     C_R   0.691644 0.162714 0.474644 -0.209428
C16   C     C_R   0.561544 0.308754 0.509836 0.851560
C17   C     C_R   0.396876 0.802072 0.475770 -0.158281
C18   C     C_R   0.089840 0.343862 0.380321 -0.314256
C19   C     C_R   0.804222 0.633350 0.600460 0.261364
C20   C     C_R   0.903545 0.670556 0.607027 -0.266894
C21   C     C_R   0.979164 0.623933 0.563376 -0.256703
C22   C     C_R   0.958501 0.536707 0.513886 0.024486
C23   C     C_3   0.491969 0.494350 0.081726 0.207292
C24   C     C_R   0.852728 0.505797 0.501218 0.203059
C25   C     C_R   0.039227 0.480362 0.475970 -0.010261
C26   C     C_R   0.011064 0.399050 0.419407 0.193647
C27   C     C_R   0.905230 0.373040 0.403583 -0.295817
C28   C     C_R   0.499454 0.498080 0.338700 0.919949
C29   C     C_R   0.827761 0.424799 0.444913 -0.204030
C30   C     C_R   0.148711 0.499671 0.494388 -0.057873
C31   C     C_R   0.195823 0.368713 0.399172 0.010728
C32   C     C_3   0.455344 0.399569 0.939518 -0.404586
C33   C     C_3   0.423330 0.597894 0.938941 -0.079705
C34   C     C_3   0.609344 0.505952 0.070880 -0.512362
C35   C     C_3   0.411995 0.590168 0.035462 0.060582
C36   C     C_1   0.497638 0.494467 0.249566 -0.204378
C37   C     C_3   0.496971 0.499403 0.916645 0.268302
C38   C     C_3   0.349988 0.252040 0.035335 -0.844109
C39   C     C_3   0.142776 0.764034 0.417099 -0.757690
C40   C     C_3   0.464307 0.773113 0.276715 -0.843576
C41   C     C_3   0.733830 0.683857 0.659782 -0.386690
C42   C     C_3   0.779744 0.645608 0.754269 -0.357135
C43   C     C_3   0.712319 0.699527 0.815247 -0.906222
C44   C     C_3   0.316363 0.639691 0.870704 -0.383379
C45   C     C_3   0.614243 0.499137 0.973793 -0.468498
C46   C     C_3   0.238718 0.561996 0.833073 -0.305139
C47   C     C_3   0.131634 0.616517 0.777588 -0.916827
C48   C     C_3   0.259802 0.652422 0.108658 -0.835417
C49   C     C_1   0.495173 0.493279 0.173859 -0.108350
C50   C     C_1   0.502238 0.499919 0.826018 -0.092519
C51   C     C_1   0.503487 0.500196 0.750890 -0.201211
C52   C     C_R   0.706702 0.060865 0.449206 -0.188000
H1    H     H_    0.505480 0.331294 0.918675 0.149507
H2    H     H_    0.370174 0.397058 0.903307 0.179480
H3    H     H_    0.257794 0.326875 0.369463 0.137587
H4    H     H_    0.882841 0.310831 0.360517 0.147682
H5    H     H_    0.069903 0.281928 0.336265 0.142537
H6    H     H_    0.179183 0.555902 0.540147 0.146180
H7    H     H_    0.053220 0.657978 0.570197 0.148564
H8    H     H_    0.923585 0.735269 0.647830 0.156645
H9    H     H_    0.749190 0.399456 0.431757 0.207254
H10   H     H_    0.473531 0.661384 0.938677 0.106332
H11   H     H_    0.441593 0.660031 0.068141 0.119670
H12   H     H_    0.535161 0.329955 0.066301 0.143215
H13   H     H_    0.668130 0.427643 0.963360 0.191844
H14   H     H_    0.651802 0.564991 0.955710 0.183784
H15   H     H_    0.671312 0.444868 0.108798 0.191644
H16   H     H_    0.353620 0.373453 0.119041 0.245390
H17   H     H_    0.269773 0.237556 0.046946 0.245978
H18   H     H_    0.416087 0.197403 0.076500 0.238445
H19   H     H_    0.349304 0.238139 0.965616 0.250574
H20   H     H_    0.171440 0.798520 0.547885 0.203820
H21   H     H_    0.085180 0.710075 0.424534 0.230578
H22   H     H_    0.190950 0.731586 0.369574 0.255217
H23   H     H_    0.632236 0.581054 0.096572 0.187328
H24   H     H_    0.094206 0.838806 0.391409 0.223087
H25   H     H_    0.622600 0.722852 0.345637 0.237629
H26   H     H_    0.468316 0.705176 0.234794 0.241961
H27   H     H_    0.478240 0.840188 0.240399 0.240485
H28   H     H_    0.381178 0.787368 0.290783 0.249201
H29   H     H_    0.711680 0.783976 0.811893 0.261702
H30   H     H_    0.626634 0.682227 0.797369 0.264143
H31   H     H_    0.749354 0.672344 0.883193 0.245602
H32   H     H_    0.778751 0.561383 0.758447 0.240361
H33   H     H_    0.865987 0.660523 0.776538 0.218840
H34   H     H_    0.747988 0.213635 0.464021 0.146912
H35   H     H_    0.732467 0.768583 0.656304 0.173168
H36   H     H_    0.648114 0.673157 0.641380 0.260254
H37   H     H_    0.087219 0.668714 0.818100 0.259895
H38   H     H_    0.148516 0.661835 0.724273 0.258827
H39   H     H_    0.078555 0.558671 0.748750 0.262789
H40   H     H_    0.277506 0.507446 0.790864 0.223639
H41   H     H_    0.218221 0.518076 0.885147 0.224801
H42   H     H_    0.270654 0.703903 0.900316 0.220549
H43   H     H_    0.340288 0.674638 0.814980 0.184296
H44   H     H_    0.263582 0.524879 0.028100 0.257168
H45   H     H_    0.698894 0.876698 0.381416 0.144511
H46   H     H_    0.169089 0.658449 0.096567 0.244764
H47   H     H_    0.281299 0.731389 0.107285 0.243815
H48   H     H_    0.295459 0.616102 0.173783 0.256027
H49   H     H_    0.776633 0.033736 0.421625 0.132874
H50   H     H_    0.464849 0.163387 0.554027 0.144340
H51   H     H_    0.328626 0.089280 0.524951 0.146896
H52   H     H_    0.196294 0.977492 0.527541 0.142307
N1    N     N_R   0.222200 0.444690 0.455710 -0.101588
N2    N     N_R   0.776960 0.554780 0.543830 -0.142499
N3    N     N_2   0.365990 0.356905 0.057588 -0.314131
N4    N     N_2   0.214753 0.777651 0.500568 -0.298370
N5    N     N_2   0.547405 0.754420 0.356659 -0.272741
N6    N     N_2   0.298202 0.590890 0.041836 -0.290226
O1    O     O_R   0.366740 0.627160 0.478850 -0.583703
O2    O     O_R   0.544830 0.662520 0.507140 -0.630419
O3    O     O_R   0.410920 0.482310 0.608710 -0.611146
O4    O     O_R   0.589010 0.517670 0.637000 -0.627444
O5    O     O_R   0.455170 0.337480 0.492860 -0.616746
O6    O     O_R   0.633260 0.372840 0.521150 -0.637044
O7    O     O_R   0.410990 0.482330 0.363000 -0.616846
O8    O     O_R   0.589080 0.517690 0.391290 -0.623730
Zn1   Zn    Zn3+2 0.381090 0.476390 0.481110 0.942427
Zn2   Zn    Zn3+2 0.618910 0.523610 0.518890 0.918929

loop_
_geom_bond_atom_site_label_1
_geom_bond_atom_site_label_2
_ccdc_geom_bond_type
C48   N6    S    
C38   H18   S    
C8    C13   A    
C27   C29   A    
C14   H50   S    
C43   H31   S    
C41   C42   S    
C19   C20   A    
C18   C26   A    
C10   C52   A    
C7    C8    A    
C12   C23   S    
C26   C27   A    
C4    O4    A    
C21   H7    S    
C28   O7    A    
O7    Zn1   S    
C1    O2    A    
C5    C6    A    
C12   H12   S    
C23   C49   S    
C46   H40   S    
O1    Zn1   S    
C46   C47   S    
C39   H22   S    
C38   N3    S    
C48   H47   S    
C24   C29   A    
C13   N5    S    
O3    Zn1   S    
H20   N4    S    
C33   H10   S    
C22   C25   A    
C40   H28   S    
H16   N3    S    
C20   H8    S    
C2    C16   S    
C9    C10   A    
C34   H23   S    
C38   H17   S    
C21   C22   A    
C12   C32   S    
C31   N1    A    
C39   H24   S    
C41   H35   S    
C16   O6    A    
C32   H2    S    
C44   C46   S    
C39   N4    S    
C48   H48   S    
C29   H9    S    
C52   H49   S    
C32   C37   S    
C4    C51   S    
C4    O3    A    
C42   H32   S    
C34   C45   S    
C27   H4    S    
C25   C26   A    
C15   C52   A    
H44   N6    S    
C33   C37   S    
O6    Zn2   S    
C9    C14   A    
C18   H5    S    
C23   C34   S    
C50   C51   T    
C40   H27   S    
C42   H33   S    
C6    H51   S    
C20   C21   A    
H25   N5    S    
C2    C15   A    
C40   N5    S    
C35   N6    S    
C15   H34   S    
C47   H37   S    
C23   C35   S    
C30   N1    A    
C45   H13   S    
C43   H29   S    
C47   H38   S    
C40   H26   S    
C24   N2    A    
C42   C43   S    
C37   C45   S    
C16   O5    A    
C32   H1    S    
O2    Zn2   S    
C25   C30   A    
C7    C9    A    
C41   H36   S    
C38   H19   S    
N2    Zn2   S    
C33   C44   S    
C47   H39   S    
C3    C5    A    
C34   H15   S    
C12   N3    S    
C6    C7    A    
C3    N4    S    
C48   H46   S    
O5    Zn1   S    
C8    C17   A    
C11   H45   S    
C44   H43   S    
C28   O8    A    
C1    O1    A    
C37   C50   S    
C11   C13   A    
C46   H41   S    
C30   H6    S    
C33   C35   S    
C3    C17   A    
C22   C24   A    
C39   H21   S    
C2    C14   A    
O8    Zn2   S    
C5    H52   S    
C44   H42   S    
C10   C11   A    
C19   N2    A    
C1    C17   S    
C28   C36   S    
C45   H14   S    
C43   H30   S    
N1    Zn1   S    
C35   H11   S    
C18   C31   A    
C31   H3    S    
O4    Zn2   S    
C36   C49   T    
C19   C41   S    
