data_mof_unit_39913.cif
_audit_creation_date              2012-12-10T18:06:40-0500
_audit_creation_method            fapswitch 2.2
_symmetry_space_group_name_H-M    P1
_symmetry_Int_Tables_number       1
_space_group_crystal_system       triclinic
_cell_length_a                    12.59808
_cell_length_b                    13.160208
_cell_length_c                    15.415419
_cell_angle_alpha                 83.123278
_cell_angle_beta                  98.922876
_cell_angle_gamma                 97.20056
_cell_volume                      2491.78277219

loop_
_atom_site_label
_atom_site_type_symbol
_atom_type_description
_atom_site_fract_x
_atom_site_fract_y
_atom_site_fract_z
_atom_type_partial_charge
C1    C     C_R   0.444568 0.307523 0.514141 0.856109
C2    C     C_R   0.428044 0.458598 0.103590 0.024270
C3    C     C_R   0.315138 0.437972 0.075154 0.084743
C4    C     C_R   0.502622 0.434748 0.051671 0.066411
C5    C     C_R   0.467390 0.422934 0.962311 0.012318
C6    C     C_R   0.355380 0.406065 0.932719 -0.236200
C7    C     C_R   0.278161 0.408986 0.988983 0.154414
C8    C     C_R   0.610581 0.419232 0.087055 -0.187114
C9    C     C_R   0.686133 0.410917 0.032146 -0.247214
C10   C     C_R   0.656234 0.421749 0.940883 0.184595
C11   C     C_R   0.546298 0.428820 0.905449 0.105879
C12   C     C_R   0.434977 0.512007 0.335978 0.875552
C13   C     C_R   0.734740 0.428737 0.884455 -0.205172
C14   C     C_R   0.705805 0.449009 0.793523 -0.204920
C15   C     C_R   0.519683 0.451193 0.814602 -0.266487
C16   C     C_R   0.734138 0.931577 0.549454 -0.201087
C17   C     C_R   0.596555 0.799343 0.496681 -0.048336
C18   C     C_R   0.300600 0.155384 0.519307 0.010740
C19   C     C_R   0.272292 0.050375 0.515269 -0.190946
C20   C     C_R   0.351001 0.985820 0.515573 -0.216763
C21   C     C_R   0.461706 0.024065 0.525811 0.092246
C22   C     C_R   0.491610 0.126827 0.544114 0.079404
C23   C     C_R   0.557433 0.691519 0.491103 0.861810
C24   C     C_R   0.543827 0.962209 0.521028 0.085647
C25   C     C_R   0.653609 0.996252 0.549560 0.170569
C26   C     C_R   0.680510 0.092762 0.580206 -0.262199
C27   C     C_R   0.600553 0.157102 0.578082 -0.183292
C28   C     C_R   0.519084 0.867088 0.487970 -0.256997
C29   C     C_R   0.705311 0.832052 0.524974 -0.198216
C30   C     C_R   0.411435 0.195876 0.528788 -0.172031
C31   C     C_R   0.142449 0.638179 0.628938 0.077936
C32   C     C_R   0.758597 0.379638 0.395527 0.083120
C33   C     C_R   0.855355 0.357524 0.371682 0.094361
C34   C     C_R   0.564002 0.484763 0.664146 0.845492
C35   C     C_R   0.951622 0.408102 0.409782 -0.234354
C36   C     C_R   0.952785 0.477838 0.472967 0.004819
C37   C     C_R   0.853308 0.497066 0.494867 0.206991
C38   C     C_R   0.049066 0.526968 0.516463 -0.022036
C39   C     C_R   0.045263 0.593081 0.582775 0.153373
C40   C     C_R   0.944768 0.612150 0.600875 -0.302950
C41   C     C_R   0.850837 0.565443 0.557043 -0.210179
C42   C     C_R   0.149976 0.511139 0.497424 -0.050278
C43   C     C_R   0.239394 0.614262 0.608343 -0.052621
C44   C     C_R   0.391397 0.503034 0.243202 -0.100373
C45   C     C_R   0.598266 0.462693 0.758753 -0.052526
C46   C     C_R   0.242534 0.447387 0.134128 -0.213392
C47   C     C_R   0.280924 0.474784 0.218668 -0.197975
C48   C     C_R   0.462678 0.506280 0.181668 -0.048378
H1    H     H_    0.818688 0.421544 0.910775 0.135458
H2    H     H_    0.766718 0.779874 0.531740 0.153666
H3    H     H_    0.763391 0.118808 0.605391 0.153668
H4    H     H_    0.818215 0.956235 0.571967 0.136711
H5    H     H_    0.438368 0.842091 0.457745 0.152896
H6    H     H_    0.323060 0.905296 0.511964 0.141105
H7    H     H_    0.188192 0.018255 0.509421 0.142885
H8    H     H_    0.624796 0.229542 0.605826 0.174223
H9    H     H_    0.315922 0.645335 0.642702 0.145432
H10   H     H_    0.438277 0.465382 0.786714 0.161688
H11   H     H_    0.936832 0.662467 0.649440 0.165633
H12   H     H_    0.162116 0.466740 0.446452 0.139927
H13   H     H_    0.023994 0.389274 0.389501 0.149818
H14   H     H_    0.777188 0.583684 0.574046 0.212101
H15   H     H_    0.767599 0.456028 0.750858 0.161253
H16   H     H_    0.768943 0.401692 0.060887 0.140720
H17   H     H_    0.156137 0.430061 0.117290 0.131464
H18   H     H_    0.224142 0.472743 0.265088 0.155658
H19   H     H_    0.328305 0.384952 0.866986 0.166091
H20   H     H_    0.637077 0.412254 0.157466 0.154743
N1    N     N_R   0.239390 0.551900 0.544730 -0.118956
N2    N     N_R   0.759950 0.448600 0.455730 -0.164549
O1    O     O_R   0.374950 0.371210 0.521360 -0.597466
O2    O     O_R   0.542050 0.338030 0.492790 -0.609100
O3    O     O_R   0.368720 0.526070 0.390200 -0.618767
O4    O     O_R   0.535820 0.492890 0.361630 -0.597456
O5    O     O_R   0.457950 0.661970 0.507210 -0.613055
O6    O     O_R   0.625050 0.628790 0.478640 -0.628477
O7    O     O_R   0.464180 0.507110 0.638370 -0.615331
O8    O     O_R   0.631280 0.473930 0.609800 -0.645384
Zn1   Zn    Zn3+2 0.388420 0.522150 0.519080 0.941055
Zn2   Zn    Zn3+2 0.611580 0.477850 0.480920 0.937959
C49   C     C_3   0.157159 0.385754 0.957738 -0.419183
C50   C     C_3   0.125045 0.351779 0.864782 -0.878367
H21   H     H_    0.151053 0.413394 0.814291 0.262281
H22   H     H_    0.160578 0.280042 0.859517 0.264540
H23   H     H_    0.035682 0.335860 0.851092 0.251398
H24   H     H_    0.123553 0.323073 0.004089 0.207788
H25   H     H_    0.117044 0.455708 0.960270 0.206347
C51   C     C_1   0.212899 0.217229 0.515483 0.184118
N3    N     N_1   0.141616 0.265398 0.513150 -0.230656
C52   C     C_3   0.146800 0.709772 0.699796 -0.432508
C53   C     C_3   0.128540 0.649528 0.788213 -0.854601
H26   H     H_    0.050446 0.599614 0.782313 0.261020
H27   H     H_    0.195249 0.600913 0.812130 0.263605
H28   H     H_    0.127607 0.704048 0.837684 0.251777
H29   H     H_    0.227196 0.755951 0.709178 0.205418
H30   H     H_    0.087411 0.766757 0.679561 0.202825
C54   C     C_1   0.657595 0.329880 0.354983 0.254140
N4    N     N_1   0.577399 0.289085 0.321738 -0.214765
C55   C     C_3   0.858302 0.279694 0.307264 -0.429312
C56   C     C_3   0.845379 0.169897 0.352364 -0.818469
H31   H     H_    0.911542 0.159273 0.408276 0.261680
H32   H     H_    0.766487 0.152718 0.377610 0.262603
H33   H     H_    0.849110 0.114504 0.304250 0.248813
H34   H     H_    0.793873 0.289283 0.249815 0.200147
H35   H     H_    0.936262 0.292010 0.280161 0.205327
C57   C     C_1   0.564967 0.571467 0.193497 0.168773
N5    N     N_1   0.646220 0.623502 0.203015 -0.199114

loop_
_geom_bond_atom_site_label_1
_geom_bond_atom_site_label_2
_ccdc_geom_bond_type
C12   O4    A    
C9    H16   S    
C17   C29   A    
C19   C20   A    
C23   O6    A    
C4    C8    A    
O1    Zn1   S    
C54   N4    T    
C52   H29   S    
C26   C27   A    
C17   C23   S    
C31   C43   A    
C36   C37   A    
C5    C11   A    
C3    C7    A    
C34   O7    A    
C5    C6    A    
O8    Zn2   S    
C57   N5    T    
C32   C54   S    
C18   C19   A    
C1    C30   S    
C11   C15   A    
C48   C57   S    
C35   C36   A    
C8    C9    A    
C18   C30   A    
C9    C10   A    
C47   H18   S    
C49   H24   S    
C44   C47   A    
C55   H34   S    
C43   N1    A    
C40   H11   S    
O4    Zn2   S    
C13   C14   A    
C41   H14   S    
C12   O3    A    
C49   C50   S    
C14   C45   A    
C29   H2    S    
O7    Zn1   S    
C55   H35   S    
C1    O2    A    
N2    Zn2   S    
C16   H4    S    
C24   C25   A    
C46   H17   S    
C20   H6    S    
C42   H12   S    
C39   C40   A    
C27   H8    S    
C32   N2    A    
C2    C48   A    
C16   C29   A    
C42   N1    A    
C18   C51   S    
C33   C55   S    
C2    C4    A    
C53   H27   S    
C55   C56   S    
C31   C52   S    
C56   H32   S    
O3    Zn1   S    
C35   H13   S    
C34   C45   S    
C1    O1    A    
C20   C21   A    
C49   H25   S    
C13   H1    S    
C6    H19   S    
C7    C49   S    
C8    H20   S    
C50   H22   S    
C22   C27   A    
C15   H10   S    
N1    Zn1   S    
O6    Zn2   S    
C15   C45   A    
C53   H26   S    
C19   H7    S    
C16   C25   A    
C46   C47   A    
C40   C41   A    
C22   C30   A    
C17   C28   A    
C24   C28   A    
C23   O5    A    
C4    C5    A    
C10   C13   A    
C28   H5    S    
C52   H30   S    
C6    C7    A    
C50   H23   S    
C3    C46   A    
C37   N2    A    
C32   C33   A    
C36   C38   A    
C2    C3    A    
C25   C26   A    
O2    Zn2   S    
C26   H3    S    
C34   O8    A    
C53   H28   S    
C52   C53   S    
C38   C39   A    
C14   H15   S    
C56   H31   S    
C33   C35   A    
C31   C39   A    
C56   H33   S    
C37   C41   A    
C10   C11   A    
C43   H9    S    
C38   C42   A    
C51   N3    T    
C12   C44   S    
C50   H21   S    
C21   C24   A    
C21   C22   A    
O5    Zn1   S    
C44   C48   A    
