data_mof_unit_28991.cif
_audit_creation_date              2012-12-11T15:36:27-0500
_audit_creation_method            fapswitch 2.2
_symmetry_space_group_name_H-M    P1
_symmetry_Int_Tables_number       1
_space_group_crystal_system       triclinic
_cell_length_a                    15.061635
_cell_length_b                    15.06262
_cell_length_c                    34.807128
_cell_angle_alpha                 91.13424
_cell_angle_beta                  91.508974
_cell_angle_gamma                 60.024126
_cell_volume                      6837.75596199

loop_
_atom_site_label
_atom_site_type_symbol
_atom_type_description
_atom_site_fract_x
_atom_site_fract_y
_atom_site_fract_z
_atom_type_partial_charge
C1    C     C_R   0.611627 0.301165 0.444247 0.562607
C2    C     C_R   0.581083 0.113308 0.764566 -0.106445
C3    C     C_R   0.051515 0.778139 0.877466 -0.114545
C4    C     C_R   0.066479 0.763447 0.838014 -0.065134
C5    C     C_R   0.085642 0.670688 0.820841 0.063573
C6    C     C_R   0.097963 0.589859 0.843731 -0.109636
C7    C     C_R   0.083411 0.604240 0.883177 -0.119394
C8    C     C_R   0.185625 0.581492 0.763908 -0.140016
C9    C     C_R   0.204723 0.575371 0.724537 0.043563
C10   C     C_R   0.128489 0.650430 0.700127 -0.021631
C11   C     C_R   0.032533 0.721452 0.714555 -0.095333
C12   C     C_R   0.013035 0.726092 0.753820 0.067218
C13   C     C_R   0.588549 0.182496 0.790351 0.036275
C14   C     C_R   0.657468 0.761694 0.164915 -0.149939
C15   C     C_R   0.093076 0.658447 0.778881 -0.025620
C16   C     C_R   0.191042 0.718475 0.648490 0.138227
C17   C     C_R   0.234155 0.702761 0.611747 0.089252
C18   C     C_R   0.181821 0.576216 0.597357 -0.126179
C19   C     C_R   0.139145 0.591854 0.633377 -0.119243
C20   C     C_R   0.148273 0.658089 0.659638 0.008819
C21   C     C_R   0.234565 0.626590 0.586750 0.009620
C22   C     C_R   0.672433 0.081592 0.906579 0.023609
C23   C     C_R   0.592858 0.073375 0.888013 -0.123102
C24   C     C_R   0.541882 0.205041 0.642111 -0.111875
C25   C     C_R   0.560608 0.111588 0.850859 -0.112771
C26   C     C_2   0.886739 0.520883 0.363084 0.576170
C27   C     C_2   0.478726 0.222736 0.405214 0.593931
C28   C     C_2   0.483069 0.623891 0.725623 0.587722
C29   C     C_2   0.499613 0.815140 0.600350 0.581089
C30   C     C_2   0.305411 0.491430 0.710550 0.567844
C31   C     C_2   0.908758 0.801396 0.767393 0.559279
C32   C     C_2   0.196758 0.793409 0.675698 0.599779
C33   C     C_2   0.694293 0.845388 0.310273 0.560494
C34   C     C_R   0.824897 0.608275 0.159336 0.120104
C35   C     C_R   0.546374 0.225550 0.603506 -0.112171
C36   C     C_R   0.690678 0.250466 0.618244 -0.113625
C37   C     C_R   0.685445 0.231006 0.656840 -0.108521
C38   C     C_R   0.608793 0.211713 0.669242 0.023491
C39   C     C_R   0.618416 0.252199 0.591484 0.024625
C40   C     C_R   0.044268 0.739617 0.048992 0.542229
C41   C     C_R   0.742589 0.678183 0.182236 0.058582
C42   C     C_R   0.747169 0.746362 0.064064 0.544949
C43   C     C_R   0.751154 0.040196 0.050784 0.540882
C44   C     C_R   0.015798 0.722654 0.939337 0.547502
C45   C     C_R   0.717362 0.730110 0.954890 0.545578
C46   C     C_R   0.822782 0.627482 0.119859 -0.101285
C47   C     C_R   0.721413 0.024695 0.942101 0.545533
C48   C     C_R   0.761997 0.578962 0.241658 -0.094246
C49   C     C_R   0.755346 0.574979 0.281339 -0.113346
C50   C     C_R   0.731590 0.661209 0.304499 0.044442
C51   C     C_R   0.718076 0.751923 0.287494 0.074488
C52   C     C_R   0.607284 0.158768 0.831864 0.032701
C53   C     C_R   0.724948 0.754659 0.247509 -0.141212
C54   C     C_R   0.745099 0.669353 0.224448 0.001607
C55   C     C_R   0.602954 0.722492 0.355206 -0.110615
C56   C     C_R   0.593279 0.610141 0.449308 0.553353
C57   C     C_R   0.568061 0.710792 0.390246 -0.117444
C58   C     C_R   0.738382 0.572156 0.406179 -0.129426
C59   C     C_R   0.775509 0.584861 0.371252 0.066556
C60   C     C_R   0.705434 0.658607 0.344902 0.041482
C61   C     C_R   0.634507 0.633234 0.415420 -0.003167
C62   C     C_R   0.095516 0.731733 0.086564 0.019786
C63   C     C_R   0.681939 0.172762 0.851643 -0.112230
C64   C     C_R   0.134950 0.640493 0.107582 -0.125326
C65   C     C_R   0.152028 0.640710 0.147092 -0.088541
C66   C     C_R   0.131428 0.731606 0.166119 0.044217
C67   C     C_R   0.101944 0.820427 0.144873 -0.131047
C68   C     C_R   0.303526 0.591971 0.442462 0.538658
C69   C     C_R   0.083967 0.820604 0.105242 -0.128726
C70   C     C_R   0.208835 0.747172 0.227816 -0.138556
C71   C     C_R   0.219199 0.738112 0.267677 -0.120154
C72   C     C_R   0.154319 0.715977 0.288692 0.007787
C73   C     C_R   0.075503 0.708157 0.269478 -0.077947
C74   C     C_R   0.713923 0.134846 0.888567 -0.119035
C75   C     C_R   0.063741 0.718302 0.229365 0.118327
C76   C     C_R   0.133416 0.734425 0.208387 0.051056
C77   C     C_R   0.181123 0.604412 0.345065 -0.097554
C78   C     C_R   0.217264 0.573905 0.382632 -0.104306
C79   C     C_R   0.232310 0.725827 0.391701 -0.124473
C80   C     C_R   0.605245 0.300969 0.553877 0.551030
C81   C     C_R   0.197043 0.755735 0.354156 -0.116021
C82   C     C_R   0.174374 0.693656 0.330136 0.031720
C83   C     C_R   0.246549 0.632633 0.405864 0.015499
C84   C     C_R   0.723546 0.098011 0.087276 0.022618
C85   C     C_R   0.592010 0.266930 0.775662 -0.078401
C86   C     C_R   0.795492 0.115344 0.107542 -0.126643
C87   C     C_R   0.780284 0.145247 0.146110 -0.128081
C88   C     C_R   0.692649 0.159180 0.164645 0.022515
C89   C     C_R   0.617552 0.148874 0.143788 -0.118853
C90   C     C_R   0.632393 0.119420 0.105287 -0.126113
C91   C     C_R   0.606454 0.256119 0.224829 0.101734
C92   C     C_R   0.588312 0.607026 0.558878 0.564745
C93   C     C_R   0.601165 0.259044 0.264809 -0.076506
C94   C     C_R   0.674953 0.177753 0.287069 0.000227
C95   C     C_R   0.755915 0.091717 0.268951 0.114071
C96   C     C_R   0.596374 0.277322 0.736201 -0.063007
C97   C     C_R   0.760397 0.088210 0.228938 -0.073264
C98   C     C_R   0.686464 0.169520 0.206673 -0.000237
C99   C     C_R   0.740944 0.200190 0.350120 -0.124273
C100  C     C_R   0.725951 0.227150 0.388727 -0.134974
C101  C     C_R   0.566843 0.221715 0.386769 0.051378
C102  C     C_R   0.582106 0.196798 0.347475 -0.127394
C103  C     C_R   0.667750 0.187977 0.329067 -0.011358
C104  C     C_R   0.298250 0.589192 0.552032 0.542370
C105  C     C_R   0.636476 0.244033 0.407174 0.004136
C106  C     C_R   0.692617 0.690804 0.919496 0.000994
C107  C     C_R   0.595600 0.204490 0.710644 0.048558
C108  C     C_R   0.768503 0.600741 0.902037 -0.132229
C109  C     C_R   0.756532 0.578241 0.863927 -0.142827
C110  C     C_R   0.668481 0.644988 0.842615 0.063243
C111  C     C_R   0.588028 0.731555 0.860767 0.115064
C112  C     C_R   0.600464 0.752923 0.899307 -0.105007
C113  C     C_R   0.582334 0.628410 0.782879 -0.097746
C114  C     C_R   0.574631 0.624071 0.742696 0.045796
C115  C     C_R   0.653857 0.620535 0.720325 -0.008778
C116  C     C_R   0.739999 0.714931 0.103191 -0.002031
C117  C     C_R   0.739399 0.617639 0.738458 -0.138113
C118  C     C_R   0.584288 0.124434 0.724980 -0.088834
C119  C     C_R   0.745486 0.622254 0.778326 -0.117735
C120  C     C_R   0.666141 0.629539 0.800718 0.004443
C121  C     C_R   0.708640 0.534007 0.657137 -0.110892
C122  C     C_R   0.695233 0.533044 0.617504 -0.140421
C123  C     C_R   0.567805 0.715151 0.618954 0.053971
C124  C     C_R   0.580382 0.713945 0.659103 -0.067986
C125  C     C_R   0.648090 0.623099 0.678158 0.030688
C126  C     C_R   0.621081 0.621455 0.598010 -0.000807
C127  C     C_R   0.056161 0.699837 0.900177 0.022095
C128  C     C_R   0.655948 0.779765 0.125853 -0.137400
Cr1   Cr    Cr6+3 0.426010 0.422500 0.497000 1.065033
Cr2   Cr    Cr6+3 0.651300 0.426310 0.501970 1.030944
Cr3   Cr    Cr6+3 0.422670 0.651170 0.501050 1.043709
Cr4   Cr    Cr6+3 0.905130 0.911420 0.992650 1.014691
Cr5   Cr    Cr6+3 0.911860 0.682710 0.002320 1.013218
Cr6   Cr    Cr6+3 0.682710 0.906840 0.004710 1.012831
H1    H     H_    0.590841 0.847504 0.113841 0.137487
H2    H     H_    0.024077 0.693059 0.285699 0.135497
H3    H     H_    0.887958 0.576659 0.102578 0.121481
H4    H     H_    0.164400 0.555065 0.326962 0.121037
H5    H     H_    0.227259 0.501856 0.392726 0.167572
H6    H     H_    0.086453 0.891004 0.159286 0.107198
H7    H     H_    0.253382 0.773347 0.408936 0.133162
H8    H     H_    0.866742 0.098767 0.094517 0.124671
H9    H     H_    0.575685 0.106494 0.090446 0.123648
H10   H     H_    0.526715 0.185111 0.330948 0.143943
H11   H     H_    0.540124 0.326109 0.278707 0.142238
H12   H     H_    0.487528 0.758622 0.396576 0.139019
H13   H     H_    0.839271 0.152212 0.162067 0.110163
H14   H     H_    0.821515 0.021150 0.215054 0.132904
H15   H     H_    0.806587 0.195424 0.336116 0.122278
H16   H     H_    0.781793 0.241764 0.403345 0.153861
H17   H     H_    0.550696 0.156852 0.157915 0.111955
H18   H     H_    0.840207 0.551128 0.916936 0.131635
H19   H     H_    0.541303 0.822624 0.912460 0.122234
H20   H     H_    0.537178 0.783643 0.675776 0.153462
H21   H     H_    0.763792 0.505854 0.293903 0.116447
H22   H     H_    0.522728 0.631503 0.800590 0.181787
H23   H     H_    0.790269 0.513807 0.426123 0.160266
H24   H     H_    0.818402 0.511164 0.850410 0.109781
H25   H     H_    0.800288 0.614696 0.721587 0.125611
H26   H     H_    0.810610 0.623595 0.791681 0.151053
H27   H     H_    0.762401 0.463774 0.671664 0.114022
H28   H     H_    0.738511 0.460508 0.602561 0.136368
H29   H     H_    0.030891 0.852454 0.889751 0.128809
H30   H     H_    0.776032 0.512924 0.224280 0.149310
H31   H     H_    0.088003 0.542255 0.899965 0.128166
H32   H     H_    0.105564 0.546374 0.641868 0.122112
H33   H     H_    0.245253 0.528960 0.783491 0.156580
H34   H     H_    0.145080 0.570706 0.094077 0.125062
H35   H     H_    0.059418 0.825599 0.820620 0.132360
H36   H     H_    0.973667 0.774845 0.694953 0.171663
H37   H     H_    0.114572 0.517232 0.830839 0.109811
H38   H     H_    0.592918 0.814943 0.181995 0.120094
H39   H     H_    0.178587 0.519684 0.578556 0.141614
H40   H     H_    0.559555 0.032598 0.901277 0.124196
H41   H     H_    0.774994 0.142857 0.902263 0.128010
H42   H     H_    0.739067 0.234598 0.677287 0.115821
H43   H     H_    0.601738 0.341625 0.725617 0.124781
H44   H     H_    0.594977 0.323076 0.794752 0.105129
H45   H     H_    0.053167 0.892249 0.089940 0.127234
H46   H     H_    0.501975 0.100874 0.836479 0.107934
H47   H     H_    0.583123 0.067686 0.705694 0.118946
H48   H     H_    0.579333 0.046924 0.774942 0.106490
H49   H     H_    0.482383 0.189978 0.651097 0.127829
H50   H     H_    0.489654 0.226399 0.583497 0.138064
H51   H     H_    0.720665 0.207289 0.837762 0.106276
H52   H     H_    0.746772 0.271114 0.609944 0.128920
H53   H     H_    0.714017 0.823812 0.234043 0.151757
H54   H     H_    0.548413 0.778479 0.335143 0.121334
H55   H     H_    0.963301 0.475050 0.155288 0.221919
H56   H     H_    0.191028 0.825564 0.343391 0.113785
H57   H     H_    0.950391 0.547579 0.194181 0.255582
H58   H     H_    0.939251 0.697475 0.229301 0.231399
H59   H     H_    0.932885 0.782680 0.197617 0.238837
H60   H     H_    0.570690 0.367968 0.186023 0.239437
H61   H     H_    0.488882 0.321310 0.186016 0.230995
H62   H     H_    0.008503 0.503698 0.333844 0.336655
H63   H     H_    0.876078 0.031136 0.306710 0.230186
H64   H     H_    0.797730 0.981020 0.308985 0.271912
H65   H     H_    0.424811 0.187487 0.451506 0.338909
H66   H     H_    0.337656 0.655672 0.733124 0.359765
H67   H     H_    0.281046 0.743710 0.281921 0.114633
H68   H     H_    0.519425 0.840061 0.820147 0.237976
H69   H     H_    0.443565 0.857600 0.857346 0.222856
H70   H     H_    0.374301 0.955647 0.604417 0.342373
H71   H     H_    0.414101 0.437266 0.669992 0.351903
H72   H     H_    0.776540 0.932985 0.757418 0.338985
H73   H     H_    0.277355 0.859126 0.695989 0.350409
H74   H     H_    0.245011 0.801093 0.575392 0.240048
H75   H     H_    0.357958 0.714961 0.597993 0.286360
H76   H     H_    0.625770 0.999588 0.311586 0.337331
H77   H     H_    0.262243 0.760070 0.211947 0.114517
H78   H     H_    0.176288 0.571186 0.163187 0.127359
N1    N     N_3   0.911726 0.520818 0.176394 -0.638764
N2    N     N_3   0.982417 0.711118 0.209703 -0.640236
N3    N     N_3   0.532024 0.343276 0.203537 -0.636103
N4    N     N_3   0.833288 0.006523 0.290308 -0.620635
N5    N     N_3   0.497861 0.801737 0.839221 -0.626214
N6    N     N_3   0.279082 0.762967 0.601048 -0.539224
O1    O     O_R   0.324990 0.503440 0.453910 -0.501644
O2    O     O_R   0.675430 0.831160 0.051290 -0.517084
O3    O     O_R   0.698870 0.998880 0.039560 -0.502398
O4    O     O_R   0.522030 0.339050 0.458320 -0.457617
O5    O     O_R   0.811290 0.006780 0.950620 -0.517574
O6    O     O_R   0.980960 0.812920 0.953200 -0.499189
O7    O     O_R   0.001480 0.656720 0.955830 -0.519868
O8    O     O_R   0.809240 0.683250 0.968050 -0.499436
O9    O     O_R   0.652500 0.818540 0.967340 -0.520560
O10   O     O_R   0.677620 0.987170 0.961730 -0.501663
O11   O     O_3   0.833240 0.833660 0.999890 -0.235071
O12   O     O_R   0.639980 0.519500 0.542640 -0.509127
O13   O     O_R   0.676180 0.324490 0.458320 -0.521491
O14   O     O_R   0.643570 0.521510 0.464260 -0.501904
O15   O     O_R   0.504630 0.675350 0.460920 -0.502004
O16   O     O_R   0.339850 0.642450 0.459830 -0.507332
O17   O     O_R   0.321120 0.501280 0.538470 -0.510791
O18   O     O_R   0.518440 0.337050 0.536710 -0.491065
O19   O     O_R   0.672300 0.322330 0.542880 -0.518304
O20   O     O_2   0.939254 0.440413 0.380227 -0.524073
O21   O     O_R   0.932451 0.553493 0.336556 -0.688583
O22   O     O_2   0.397288 0.254497 0.387565 -0.527692
O23   O     O_R   0.500750 0.673190 0.545480 -0.478739
O24   O     O_R   0.490008 0.183339 0.442193 -0.668857
O25   O     O_2   0.483954 0.592938 0.692818 -0.477774
O26   O     O_R   0.395430 0.658073 0.747694 -0.696997
O27   O     O_2   0.519684 0.833264 0.568645 -0.494560
O28   O     O_R   0.414359 0.890475 0.619840 -0.679721
O29   O     O_2   0.354791 0.414612 0.730032 -0.530723
O30   O     O_R   0.345081 0.499397 0.675751 -0.675633
O31   O     O_2   0.876695 0.786939 0.797181 -0.529239
O32   O     O_R   0.845681 0.888025 0.745372 -0.699084
O33   O     O_2   0.126380 0.844264 0.697493 -0.527159
O34   O     O_R   0.336260 0.640450 0.538210 -0.517335
O35   O     O_R   0.282446 0.806477 0.676238 -0.617292
O36   O     O_2   0.722682 0.838776 0.343867 -0.490015
O37   O     O_R   0.639654 0.941624 0.293024 -0.718816
O38   O     O_3   0.499990 0.499990 0.500010 -0.254559
O39   O     O_R   0.834210 0.019400 0.034570 -0.521867
O40   O     O_R   0.002210 0.824620 0.031030 -0.502231
O41   O     O_R   0.024400 0.669340 0.039790 -0.518896
O42   O     O_R   0.830490 0.694950 0.045870 -0.502648

loop_
_geom_bond_atom_site_label_1
_geom_bond_atom_site_label_2
_ccdc_geom_bond_type
C119  H26   S    
C99   C103  A    
C87   C88   A    
Cr2   O19   S    
C93   C94   A    
C104  O34   A    
C124  H20   S    
C117  H25   S    
C18   C21   A    
C115  C117  A    
C29   O28   S    
C80   O18   A    
C91   N3    S    
C19   C20   A    
H71   O30   S    
H64   N4    S    
C78   H5    S    
H76   O37   S    
C81   C82   A    
C2    C118  A    
C25   H46   S    
C14   C128  A    
C123  C124  A    
C44   C127  S    
C23   H40   S    
C106  C112  A    
C77   C78   A    
C68   O16   A    
C48   C54   A    
C99   H15   S    
C32   O33   D    
C31   O31   D    
C100  C105  A    
C101  C102  A    
C87   H13   S    
Cr1   O17   S    
H75   N6    S    
C77   C82   A    
H68   N5    S    
C36   C37   A    
C43   O3    A    
Cr1   O4    S    
Cr5   O7    S    
C30   O30   S    
C42   O2    A    
C117  C119  A    
C2    H48   S    
C5    C6    A    
C31   O32   S    
C85   C96   A    
C3    C127  A    
H65   O24   S    
Cr2   O12   S    
C62   C64   A    
C13   C52   S    
C97   C98   A    
C40   C62   S    
C108  C109  A    
C56   O14   A    
C18   C19   A    
C45   O9    A    
Cr6   O11   S    
C38   C107  S    
C2    C13   A    
C1    O13   A    
C110  C111  A    
C65   H78   S    
C42   O42   A    
C108  H18   S    
C21   C104  S    
C26   O21   S    
C104  O17   A    
C47   O10   A    
C111  C112  A    
C10   C20   S    
C16   C17   A    
C63   H51   S    
C32   O35   S    
C24   C38   A    
Cr1   O38   S    
C93   H11   S    
C70   C71   A    
C44   O6    A    
C19   H32   S    
Cr2   O14   S    
C96   H43   S    
C9    C10   A    
H66   O26   S    
C107  C118  A    
H61   N3    S    
C90   H9    S    
C3    H29   S    
C58   C61   A    
C66   C67   A    
C7    H31   S    
C66   C76   S    
C59   C60   A    
Cr4   O6    S    
C57   H12   S    
Cr4   O11   S    
C24   H49   S    
H74   N6    S    
C95   N4    S    
C73   C75   A    
C94   C95   A    
C34   C41   A    
C84   C90   A    
C109  H24   S    
C78   C83   A    
H58   N2    S    
C40   O41   A    
C27   O22   D    
C114  C115  A    
C6    H37   S    
Cr5   O42   S    
Cr3   O16   S    
C101  C105  A    
C41   C54   S    
C24   C35   A    
C30   O29   D    
H69   N5    S    
Cr1   O18   S    
C7    C127  A    
C11   C12   A    
H59   N2    S    
C68   O1    A    
Cr5   O8    S    
C69   H45   S    
C14   H38   S    
Cr3   O23   S    
C128  H1    S    
C43   C84   S    
H60   N3    S    
C79   C81   A    
C40   O40   A    
C86   C87   A    
C8    C9    A    
C123  C126  A    
Cr4   O40   S    
C100  H16   S    
C35   H50   S    
C53   C54   A    
C4    C5    A    
C58   H23   S    
C17   C21   A    
C33   O37   S    
C28   C114  S    
C1    O4    A    
C67   C69   A    
Cr6   O10   S    
C80   O19   A    
C122  C126  A    
C35   C39   A    
C75   C76   A    
C18   H39   S    
C121  C125  A    
C37   C38   A    
C8    H33   S    
C91   C93   A    
C113  C120  A    
C92   O23   A    
C26   O20   D    
C99   C100  A    
C102  H10   S    
C73   H2    S    
C92   O12   A    
C16   C20   A    
Cr6   O3    S    
C121  H27   S    
C50   C51   A    
H70   O28   S    
C55   H54   S    
C77   H4    S    
C67   H6    S    
C121  C122  A    
C6    C7    A    
H63   N4    S    
H55   N1    S    
C9    C30   S    
C14   C41   A    
C34   C46   A    
Cr4   O5    S    
C42   C116  S    
C48   C49   A    
C28   O25   D    
C96   C107  A    
C94   C103  S    
C65   C66   A    
C8    C15   A    
C112  H19   S    
C46   H3    S    
C12   C31   S    
C70   C76   A    
C45   C106  S    
C97   H14   S    
C56   O15   A    
C58   C59   A    
C33   C51   S    
C22   C74   A    
C113  H22   S    
C110  C120  S    
C3    C4    A    
C27   O24   S    
C43   O39   A    
Cr3   O34   S    
C86   H8    S    
C113  C114  A    
C44   O7    A    
C118  H47   S    
C70   H77   S    
C71   H67   S    
C47   O5    A    
C33   O36   D    
Cr5   O41   S    
Cr3   O38   S    
C68   C83   S    
C29   O27   D    
C49   H21   S    
C36   C39   A    
C84   C86   A    
C72   C73   A    
C52   C63   A    
C92   C126  S    
H57   N1    S    
H73   O35   S    
C119  C120  A    
C95   C97   A    
C57   C61   A    
Cr4   O39   S    
C48   H30   S    
C63   C74   A    
C16   C32   S    
C111  N5    S    
C75   N2    S    
C34   N1    S    
C46   C116  A    
C122  H28   S    
C50   C60   S    
Cr6   O9    S    
C55   C57   A    
C12   C15   A    
C85   H44   S    
C25   C52   A    
C74   H41   S    
Cr1   O1    S    
C109  C110  A    
C39   C80   S    
C37   H42   S    
C79   C83   A    
C22   C23   A    
C79   H7    S    
C106  C108  A    
Cr2   O13   S    
Cr6   O2    S    
C115  C125  S    
C29   C123  S    
C64   C65   A    
C27   C101  S    
C22   C47   S    
C36   H52   S    
C45   O8    A    
C23   C25   A    
C91   C98   A    
C53   H53   S    
C102  C103  A    
H72   O32   S    
Cr5   O11   S    
C81   H56   S    
C5    C15   S    
C10   C11   A    
C88   C98   S    
C71   C72   A    
C88   C89   A    
C62   C69   A    
C11   H36   S    
C64   H34   S    
C49   C50   A    
C116  C128  A    
C89   H17   S    
C13   C85   A    
Cr3   O15   S    
C56   C61   S    
C26   C59   S    
C28   O26   S    
C51   C53   A    
C89   C90   A    
C55   C60   A    
C72   C82   S    
C17   N6    S    
C4    H35   S    
C1    C105  S    
C124  C125  A    
H62   O21   S    
Cr2   O38   S    
