data_mof_unit_19566.cif
_audit_creation_date              2012-12-10T17:18:55-0500
_audit_creation_method            fapswitch 2.2
_symmetry_space_group_name_H-M    P1
_symmetry_Int_Tables_number       1
_space_group_crystal_system       triclinic
_cell_length_a                    10.183174
_cell_length_b                    10.715993
_cell_length_c                    13.638986
_cell_angle_alpha                 91.862565
_cell_angle_beta                  100.488625
_cell_angle_gamma                 96.19161
_cell_volume                      1452.84897384

loop_
_atom_site_label
_atom_site_type_symbol
_atom_type_description
_atom_site_fract_x
_atom_site_fract_y
_atom_site_fract_z
_atom_type_partial_charge
Br1   Br    Br    0.740271 0.056993 0.511581 -0.470582
Br2   Br    Br    0.244065 0.939958 0.452914 -0.465378
C1    C     C_R   0.055298 0.733532 0.497244 0.880684
C2    C     C_2   0.030526 0.072032 0.551272 -0.184218
C3    C     C_2   0.431111 0.511790 0.508301 -0.109965
C4    C     C_2   0.568880 0.488407 0.491476 -0.106522
C5    C     C_R   0.093366 0.510926 0.685845 0.855445
C6    C     C_R   0.905073 0.483983 0.314249 0.889514
C7    C     C_R   0.138744 0.502098 0.792876 -0.056330
C8    C     C_R   0.847003 0.453226 0.209233 -0.064569
C9    C     C_R   0.111221 0.528376 0.964319 -0.204771
C10   C     C_R   0.847000 0.348928 0.049234 -0.196028
C11   C     C_R   0.061926 0.535929 0.862747 -0.190745
C12   C     C_R   0.948034 0.267120 0.510064 0.879354
C13   C     C_R   0.914752 0.391831 0.144758 -0.202533
C14   C     C_R   0.260837 0.455032 0.824542 -0.258924
C15   C     C_R   0.712832 0.471111 0.177873 -0.245139
C16   C     C_R   0.311240 0.444466 0.925616 0.096290
C17   C     C_R   0.640235 0.419510 0.086585 0.097275
C18   C     C_R   0.236770 0.485855 0.996330 0.168253
C19   C     C_R   0.710150 0.363051 0.019475 0.167303
C20   C     C_R   0.439553 0.404840 0.957865 0.064196
C21   C     C_R   0.501188 0.428975 0.058965 0.070085
C22   C     C_R   0.422142 0.462442 0.128947 -0.207372
C23   C     C_R   0.509771 0.345213 0.892413 -0.219847
C24   C     C_R   0.290811 0.488314 0.097812 -0.227167
C25   C     C_R   0.642496 0.322588 0.923729 -0.220647
C26   C     C_2   0.093295 0.868274 0.507912 0.093587
C27   C     C_2   0.923046 0.134921 0.528026 0.092717
C28   C     C_2   0.016560 0.937161 0.552799 -0.180990
H1    H     H_    0.234016 0.516393 0.153094 0.156004
H2    H     H_    0.463176 0.312119 0.817257 0.158469
H3    H     H_    0.132115 0.119732 0.560562 0.203668
H4    H     H_    0.932984 0.893040 0.583648 0.200684
H5    H     H_    0.577617 0.414297 0.437690 0.175724
H6    H     H_    0.422368 0.586043 0.561950 0.176500
H7    H     H_    0.665487 0.623415 0.589532 0.176634
H8    H     H_    0.334501 0.376564 0.410475 0.180141
H9    H     H_    0.693484 0.277044 0.871820 0.162016
H10   H     H_    0.665931 0.526703 0.226003 0.164395
H11   H     H_    0.319014 0.432743 0.769161 0.162631
H12   H     H_    0.018562 0.375488 0.168480 0.162882
H13   H     H_    0.965850 0.570833 0.839122 0.164426
H14   H     H_    0.053314 0.559418 0.017800 0.156835
H15   H     H_    0.900901 0.303687 0.999189 0.153425
H16   H     H_    0.459103 0.467246 0.208545 0.149287
N1    N     N_2   0.322180 0.446120 0.460900 -0.187572
N2    N     N_2   0.677820 0.553880 0.539100 -0.183840
O1    O     O_R   0.935190 0.693030 0.507870 -0.614538
O2    O     O_R   0.064810 0.306970 0.492130 -0.616652
O3    O     O_R   0.142080 0.658430 0.482770 -0.568963
O4    O     O_R   0.857920 0.341570 0.517230 -0.572473
O5    O     O_R   0.969700 0.527180 0.651960 -0.615462
O6    O     O_R   0.030300 0.472820 0.348040 -0.607124
O7    O     O_R   0.176600 0.492580 0.626860 -0.617413
O8    O     O_R   0.823400 0.507420 0.373140 -0.605952
Zn1   Zn    Zn3+2 0.861850 0.523100 0.516760 0.972882
Zn2   Zn    Zn3+2 0.138150 0.476900 0.483240 0.970410

loop_
_geom_bond_atom_site_label_1
_geom_bond_atom_site_label_2
_ccdc_geom_bond_type
C17   C21   A    
C21   C22   A    
C23   C25   A    
C3    N1    D    
C2    C27   D    
C10   C13   A    
C5    O7    A    
C11   H13   S    
C22   H16   S    
C6    O8    A    
C23   H2    S    
Br1   C27   S    
C19   C25   A    
N2    Zn1   S    
O3    Zn2   S    
C16   C20   A    
C4    H5    S    
H7    N2    S    
C9    C11   A    
H8    N1    S    
C12   O2    A    
C18   C24   A    
C10   C19   A    
C26   C28   D    
C1    C26   S    
C17   C19   A    
C7    C14   A    
C22   C24   A    
C16   C18   A    
C8    C13   A    
C1    O1    A    
C3    C4    S    
C7    C11   A    
C12   O4    A    
C9    C18   A    
O4    Zn1   S    
C28   H4    S    
C12   C27   S    
O2    Zn2   S    
C3    H6    S    
C9    H14   S    
O1    Zn1   S    
O8    Zn1   S    
O5    Zn1   S    
C6    C8    S    
O6    Zn2   S    
O7    Zn2   S    
C6    O6    A    
C5    C7    S    
C1    O3    A    
C5    O5    A    
C2    H3    S    
Br2   C26   S    
C8    C15   A    
C15   C17   A    
C20   C21   A    
C24   H1    S    
C14   H11   S    
C15   H10   S    
C14   C16   A    
C2    C28   S    
C13   H12   S    
C25   H9    S    
C10   H15   S    
N1    Zn2   S    
C20   C23   A    
C4    N2    D    
