data_mof_unit_42400.cif
_audit_creation_date              2013-03-05T16:04:39-0500
_audit_creation_method            fapswitch 2.2
_symmetry_space_group_name_H-M    P1
_symmetry_Int_Tables_number       1
_space_group_crystal_system       triclinic
_cell_length_a                    9.546322
_cell_length_b                    10.800898
_cell_length_c                    15.435234
_cell_angle_alpha                 89.301307
_cell_angle_beta                  74.633579
_cell_angle_gamma                 89.436875
_cell_volume                      1534.46414364

loop_
_atom_site_label
_atom_site_type_symbol
_atom_site_description
_atom_site_fract_x
_atom_site_fract_y
_atom_site_fract_z
_atom_type_partial_charge
O1    O     O_R   0.118740 0.319660 0.500000 -0.501514
O2    O     O_R   0.881260 0.680340 0.500000 -0.501510
O3    O     O_R   0.881170 0.319630 0.500010 -0.602937
O4    O     O_R   0.118830 0.680370 0.499990 -0.602941
C1    C     C_R   0.001392 0.262352 0.498328 0.861504
C2    C     C_R   0.998608 0.737648 0.501672 0.861503
O5    O     O_R   0.055570 0.500030 0.629830 -0.549027
O6    O     O_R   0.944430 0.499970 0.370170 -0.549039
O7    O     O_R   0.818000 0.500000 0.629840 -0.588973
O8    O     O_R   0.182000 0.500000 0.370160 -0.588970
C3    C     C_R   0.918474 0.501692 0.672108 0.807516
C4    C     C_R   0.081526 0.498310 0.327892 0.807520
Cu1   Cu    Cu3+1 0.140660 0.500020 0.500000 1.049302
Cu2   Cu    Cu3+1 0.859340 0.499980 0.500000 1.049300
C5    C     C_R   0.873461 0.515140 0.769951 -0.024957
C6    C     C_R   0.126538 0.484874 0.230048 -0.024985
C7    C     C_R   0.907080 0.607539 0.904242 -0.091287
C8    C     C_R   0.092904 0.392513 0.095748 -0.091270
C9    C     C_R   0.961537 0.576078 0.814495 -0.085965
C10   C     C_R   0.038452 0.423962 0.185498 -0.085955
C11   C     C_R   0.733359 0.479921 0.816875 -0.170162
C12   C     C_R   0.266645 0.520085 0.183126 -0.170174
C13   C     C_R   0.675080 0.508966 0.908271 0.082988
C14   C     C_R   0.324915 0.491058 0.091727 0.082988
C15   C     C_R   0.763774 0.576643 0.951851 0.016107
C16   C     C_R   0.236215 0.423396 0.048143 0.016115
C17   C     C_R   0.529202 0.478242 0.955567 0.012113
C18   C     C_R   0.470792 0.521784 0.044429 0.012101
C19   C     C_R   0.560126 0.594394 0.083503 -0.224329
C20   C     C_R   0.439864 0.405636 0.916492 -0.224335
C21   C     C_R   0.704924 0.618560 0.039976 0.306006
C22   C     C_R   0.295064 0.381479 0.960018 0.306021
H1    H     H_    0.329714 0.564833 0.221728 0.143269
H2    H     H_    0.670302 0.435148 0.778277 0.143255
H3    H     H_    0.930189 0.394548 0.221271 0.175919
H4    H     H_    0.069794 0.605501 0.778719 0.175905
H5    H     H_    0.976793 0.660890 0.934235 0.195751
H6    H     H_    0.023183 0.339182 0.065747 0.195744
H7    H     H_    0.521372 0.634948 0.148804 0.184841
H8    H     H_    0.478610 0.365081 0.851190 0.184819
C23   C     C_R   0.878167 0.066753 0.547113 -0.226759
C24   C     C_R   0.121833 0.933247 0.452887 -0.226759
H9    H     H_    0.784329 0.118427 0.584938 0.197838
H10   H     H_    0.215671 0.881573 0.415062 0.197838
C25   C     C_R   0.874695 0.938557 0.549934 0.422299
C26   C     C_R   0.125305 0.061443 0.450066 0.422303
C27   C     C_R   0.997352 0.871493 0.502066 -0.168203
C28   C     C_R   0.002648 0.128507 0.497934 -0.168206
C29   C     C_R   0.550876 0.426497 0.558420 -0.113552
C30   C     C_R   0.449125 0.573501 0.441579 -0.113547
H11   H     H_    0.588113 0.367562 0.605127 0.166741
H12   H     H_    0.411888 0.632435 0.394871 0.166744
C31   C     C_R   0.402294 0.426115 0.558699 0.442504
C32   C     C_R   0.597706 0.573883 0.441299 0.442503
N1    N     N_R   0.352080 0.500030 0.499980 -0.241341
N2    N     N_R   0.647920 0.499970 0.500020 -0.241340
N3    N     N_R   0.788718 0.690425 0.085784 0.139040
O9    O     O_R   0.732355 0.789241 0.129274 -0.276213
O10   O     O_R   0.910668 0.646997 0.096485 -0.337027
N4    N     N_R   0.211272 0.309605 0.914217 0.139033
O11   O     O_R   0.089348 0.353050 0.903481 -0.337006
O12   O     O_R   0.267586 0.210717 0.870805 -0.276242
Cl1   Cl    Cl    0.718006 0.866994 0.618207 -0.528324
Cl2   Cl    Cl    0.281993 0.133006 0.381793 -0.528315
N5    N     N_R   0.305514 0.347803 0.621614 0.140862
O13   O     O_R   0.300226 0.230962 0.603453 -0.292146
O14   O     O_R   0.260386 0.382777 0.704737 -0.321853
N6    N     N_R   0.694490 0.652183 0.378377 0.140869
O15   O     O_R   0.699816 0.769020 0.396537 -0.292131
O16   O     O_R   0.739577 0.617212 0.295252 -0.321867

loop_
_geom_bond_atom_site_label_1
_geom_bond_atom_site_label_2
_geom_bond_distance
_ccdc_geom_bond_type
C15   C21   1.405650 A    
O5    Cu1   1.952681 S    
Cu2   N2    2.018202 S    
O7    Cu2   1.937278 S    
C29   C31   1.417315 A    
C16   C22   1.405638 A    
C13   C17   1.430656 A    
C29   N2    1.361977 A    
C31   N5    1.425440 S    
O7    C3    1.295472 A    
C30   H12   1.082356 S    
C30   N1    1.361976 A    
N5    O14   1.300046 A    
C6    C10   1.393258 A    
O6    C4    1.298546 A    
C7    C15   1.411769 A    
C21   N3    1.437924 S    
Cu1   N1    2.018201 S    
C25   C27   1.406962 A    
C8    H6    1.080096 S    
C20   H8    1.074540 S    
C19   C21   1.393153 A    
C30   C32   1.417315 A    
Cu1   Cu2   2.685577 S    
C17   C20   1.415411 A    
C20   C22   1.393145 A    
C23   H9    1.084332 S    
C19   H7    1.074535 S    
N3    O9    1.301548 A    
O2    C2    1.291544 A    
O3    Cu2   1.957023 S    
C24   H10   1.084332 S    
O1    C1    1.291544 A    
O8    C4    1.295474 A    
C12   C14   1.410479 A    
O4    C2    1.292754 A    
C18   C19   1.415401 A    
C7    C9    1.389614 A    
C23   C28   1.399424 A    
C14   C16   1.424675 A    
O5    C3    1.298546 A    
C8    C10   1.389617 A    
C24   C27   1.399424 A    
C31   N1    1.376121 A    
C11   C13   1.410482 A    
N4    O12   1.301562 A    
O2    Cu2   1.961301 S    
C1    C28   1.445648 S    
C32   N2    1.376120 A    
N3    O10   1.300728 A    
O1    Cu1   1.961301 S    
C2    C27   1.445648 S    
C22   N4    1.437909 S    
C26   C28   1.406962 A    
C4    C6    1.465170 S    
C5    C11   1.395697 A    
C13   C15   1.424686 A    
C32   N6    1.425440 S    
N6    O16   1.300036 A    
N5    O13   1.300427 A    
C24   C26   1.385234 A    
C26   Cl2   1.764317 S    
C17   C18   1.420791 A    
C12   H1    1.074231 S    
C23   C25   1.385234 A    
N4    O11   1.300749 A    
C7    H5    1.080093 S    
C11   H2    1.074231 S    
O6    Cu2   1.952681 S    
O3    C1    1.292755 A    
C9    H4    1.083375 S    
C5    C9    1.393255 A    
C10   H3    1.083375 S    
C3    C5    1.465168 S    
C25   Cl1   1.764318 S    
C14   C18   1.430653 A    
O4    Cu1   1.957023 S    
C6    C12   1.395702 A    
N6    O15   1.300426 A    
C29   H11   1.082355 S    
O8    Cu1   1.937279 S    
C8    C16   1.411765 A    
