data_mof_unit_30459.cif
_audit_creation_date              2012-12-10T16:51:17-0500
_audit_creation_method            fapswitch 2.2
_symmetry_space_group_name_H-M    P1
_symmetry_Int_Tables_number       1
_space_group_crystal_system       triclinic
_cell_length_a                    27.799603
_cell_length_b                    8.688068
_cell_length_c                    7.512754
_cell_angle_alpha                 103.227217
_cell_angle_beta                  95.049086
_cell_angle_gamma                 94.176358
_cell_volume                      1751.41944458

loop_
_atom_site_label
_atom_site_type_symbol
_atom_type_description
_atom_site_fract_x
_atom_site_fract_y
_atom_site_fract_z
_atom_type_partial_charge
C1    C     C_R   0.498218 0.199654 0.452961 0.858298
C2    C     C_R   0.501211 0.800189 0.546985 0.858660
C3    C     C_R   0.103849 0.534367 0.513383 -0.090463
C4    C     C_R   0.899771 0.518074 0.487647 -0.085151
C5    C     C_R   0.124470 0.414911 0.392213 0.003433
C6    C     C_R   0.877362 0.659437 0.536808 -0.000188
C7    C     C_R   0.094447 0.294991 0.267945 -0.205007
C8    C     C_R   0.905699 0.803604 0.601154 -0.173258
C9    C     C_R   0.134224 0.648650 0.647417 -0.139325
C10   C     C_R   0.871028 0.370763 0.441652 -0.139719
C11   C     C_R   0.355432 0.503448 0.505420 -0.201029
C12   C     C_R   0.645735 0.508466 0.493733 -0.174102
C13   C     C_R   0.972716 0.385934 0.414984 -0.097177
C14   C     C_R   0.031905 0.672595 0.594507 -0.112453
C15   C     C_R   0.980124 0.672030 0.567438 0.072562
C16   C     C_R   0.022950 0.401800 0.395379 0.094581
C17   C     C_R   0.950990 0.525134 0.489885 0.014834
C18   C     C_R   0.052715 0.536609 0.502057 -0.003024
C19   C     C_R   0.944283 0.235582 0.370412 0.420386
C20   C     C_R   0.064267 0.799926 0.709142 0.426589
C21   C     C_R   0.894220 0.229037 0.393045 0.054605
C22   C     C_R   0.113361 0.778755 0.751691 0.074432
C23   C     C_R   0.407738 0.495562 0.500357 0.877330
C24   C     C_R   0.592541 0.503739 0.498995 0.861333
C25   C     C_R   0.044554 0.288214 0.270759 -0.172711
C26   C     C_R   0.955750 0.810014 0.617177 -0.165875
C27   C     C_2   0.496869 0.031178 0.427048 -0.367895
C28   C     C_2   0.501980 0.968505 0.572772 -0.355040
C29   C     C_R   0.174864 0.420564 0.394820 0.582794
C30   C     C_R   0.826780 0.654115 0.522011 0.581977
C31   C     C_R   0.184513 0.629862 0.666120 0.567189
C32   C     C_R   0.820252 0.371671 0.454414 0.616307
C33   C     C_R   0.285448 0.656403 0.515952 0.117148
C34   C     C_R   0.715887 0.428272 0.332666 0.110699
C35   C     C_R   0.335941 0.649196 0.513674 0.078970
C36   C     C_R   0.665213 0.419760 0.338927 0.007767
C37   C     C_R   0.325088 0.366694 0.504431 0.283997
C38   C     C_R   0.677341 0.605727 0.639975 0.312262
C39   C     C_R   0.276878 0.380874 0.542384 0.104415
C40   C     C_R   0.727633 0.591371 0.646166 0.044510
C41   C     C_R   0.255997 0.522875 0.537478 0.233509
C42   C     C_R   0.747167 0.509373 0.489028 0.287747
Cu1   Cu    Cu3+1 0.505380 0.517380 0.684380 1.030155
Cu2   Cu    Cu3+1 0.494620 0.482620 0.315620 1.025925
H1    H     H_    0.109389 0.203916 0.170120 0.209717
H2    H     H_    0.889317 0.912737 0.647057 0.175628
H3    H     H_    0.023088 0.198731 0.166308 0.189336
H4    H     H_    0.973332 0.927397 0.662556 0.220297
H5    H     H_    0.491714 0.958489 0.287032 0.206556
H6    H     H_    0.507208 0.041164 0.712763 0.215399
N1    N     N_R   0.204043 0.524806 0.533236 -0.425666
N2    N     N_R   0.799188 0.511695 0.487164 -0.413337
N3    N     N_2   0.486510 0.456430 0.038510 0.133281
N4    N     N_2   0.513490 0.543570 0.961490 0.120887
O1    O     O_R   0.503500 0.286120 0.619780 -0.535003
O2    O     O_R   0.496500 0.713880 0.380220 -0.532855
O3    O     O_R   0.494410 0.256780 0.308360 -0.590977
O4    O     O_R   0.505590 0.743220 0.691640 -0.598991
O5    O     O_R   0.434810 0.514700 0.655690 -0.563076
O6    O     O_R   0.565190 0.485300 0.344310 -0.544786
O7    O     O_R   0.425720 0.485350 0.344280 -0.638346
O8    O     O_R   0.574280 0.514650 0.655720 -0.607792
O9    O     O_2   0.194590 0.322307 0.260176 -0.566032
O10   O     O_2   0.805263 0.790551 0.542323 -0.567342
O11   O     O_2   0.791811 0.235319 0.435416 -0.558049
O12   O     O_2   0.213719 0.713640 0.814583 -0.573629
O13   O     O_3   0.341134 0.217773 0.451629 -0.605512
C43   C     C_3   0.329408 0.164874 0.258617 0.067910
H7    H     H_    0.346533 0.248866 0.185926 0.128110
H8    H     H_    0.289511 0.153901 0.219587 0.183320
C44   C     C_3   0.347127 0.002699 0.190170 -0.805144
H9    H     H_    0.386077 0.004608 0.239437 0.243166
H10   H     H_    0.325091 0.912269 0.238883 0.267002
H11   H     H_    0.342531 0.969209 0.037639 0.222500
O14   O     O_3   0.658936 0.716698 0.774084 -0.608357
C45   C     C_3   0.673547 0.873260 0.758758 0.048036
H12   H     H_    0.694271 0.878595 0.638934 0.173227
H13   H     H_    0.697029 0.936294 0.885564 0.160670
C46   C     C_3   0.629598 0.965855 0.742248 -0.842905
H14   H     H_    0.613767 0.995266 0.874864 0.238695
H15   H     H_    0.640609 0.078986 0.705168 0.222264
H16   H     H_    0.601868 0.895116 0.634001 0.243696
O15   O     O_3   0.471163 0.313465 0.928332 -0.476862
C47   C     C_3   0.423144 0.276378 0.958944 0.161150
H17   H     H_    0.400917 0.377811 0.956090 0.138764
H18   H     H_    0.422255 0.242023 0.091539 0.171706
C48   C     C_3   0.400971 0.135245 0.808019 -0.818040
H19   H     H_    0.417129 0.025950 0.826433 0.249981
H20   H     H_    0.361169 0.119300 0.813035 0.212231
H21   H     H_    0.408122 0.154924 0.671612 0.294970
O16   O     O_3   0.532062 0.681430 0.076361 -0.496779
C49   C     C_3   0.579557 0.712968 0.036399 0.244819
H22   H     H_    0.578475 0.759767 0.911703 0.204850
H23   H     H_    0.599660 0.604873 0.017269 0.161909
C50   C     C_3   0.606907 0.838219 0.195238 -0.867640
H24   H     H_    0.609952 0.791382 0.320773 0.245181
H25   H     H_    0.643995 0.868642 0.161711 0.230259
H26   H     H_    0.587590 0.947348 0.221596 0.246847
N5    N     N_3   0.248319 0.249983 0.580236 -0.550529
H27   H     H_    0.246307 0.152154 0.468329 0.256784
H28   H     H_    0.266158 0.219283 0.693756 0.226567
N6    N     N_3   0.759171 0.657482 0.812209 -0.556802
H29   H     H_    0.760855 0.781115 0.841004 0.244543
H30   H     H_    0.744628 0.619761 0.920381 0.232255
N7    N     N_3   0.633430 0.319925 0.189418 -0.556725
H31   H     H_    0.642141 0.202928 0.173779 0.216339
H32   H     H_    0.638740 0.356032 0.068554 0.222118
N8    N     N_3   0.368097 0.787484 0.517173 -0.590279
H33   H     H_    0.349960 0.889941 0.538545 0.279121
H34   H     H_    0.381279 0.772344 0.388886 0.226339
N9    N     N_3   0.736101 0.354332 0.168558 -0.558983
H35   H     H_    0.725032 0.232692 0.135303 0.237317
H36   H     H_    0.722604 0.402461 0.061133 0.208564
N10   N     N_3   0.264439 0.795572 0.485409 -0.606252
H37   H     H_    0.251030 0.854762 0.605084 0.252345
H38   H     H_    0.235957 0.761398 0.379684 0.231316
N11   N     N_3   0.868458 0.076319 0.374295 -0.568476
H39   H     H_    0.841683 0.054521 0.262427 0.258932
H40   H     H_    0.853168 0.073627 0.495625 0.284363
N12   N     N_3   0.141301 0.899171 0.893871 -0.543928
H41   H     H_    0.169894 0.950809 0.839063 0.247271
H42   H     H_    0.154490 0.848145 0.999340 0.264645
O17   O     O_3   0.967558 0.096598 0.349141 -0.591745
C51   C     C_3   0.952784 0.990500 0.175685 0.062538
H43   H     H_    0.949736 0.053235 0.061836 0.127137
H44   H     H_    0.917690 0.921657 0.175560 0.196895
C52   C     C_3   0.989611 0.868658 0.136053 -0.760661
H45   H     H_    0.991236 0.799074 0.242894 0.240893
H46   H     H_    0.978701 0.785659 0.000073 0.225307
H47   H     H_    0.026305 0.927697 0.135325 0.265520
O18   O     O_3   0.048974 0.944981 0.789107 -0.603510
C53   C     C_3   0.062848 0.054809 0.685007 0.053621
H48   H     H_    0.046728 0.013772 0.539013 0.182657
H49   H     H_    0.102966 0.072924 0.687643 0.168295
C54   C     C_3   0.045204 0.214808 0.765316 -0.746548
H50   H     H_    0.061235 0.260309 0.909064 0.241868
H51   H     H_    0.057459 0.301072 0.687632 0.225325
H52   H     H_    0.005022 0.205495 0.759017 0.240323

loop_
_geom_bond_atom_site_label_1
_geom_bond_atom_site_label_2
_ccdc_geom_bond_type
C31   O12   S    
C48   H19   S    
C29   O9    S    
C30   O10   S    
C54   H52   S    
C8    C26   A    
C14   C18   A    
C50   H24   S    
C34   C42   A    
C47   C48   S    
Cu1   Cu2   S    
N10   H37   S    
C50   H26   S    
O17   C51   S    
C39   C41   A    
N3    N4    D    
C22   N12   S    
N7    H32   S    
C19   O17   S    
C33   N10   S    
C7    H1    S    
C49   H22   S    
C19   C21   A    
C47   H18   S    
N11   H40   S    
C9    C22   A    
N8    H33   S    
C3    C18   A    
C54   H51   S    
C11   C37   A    
C32   N2    A    
C21   N11   S    
C35   N8    S    
Cu1   O4    S    
C28   H6    S    
Cu2   N3    S    
N9    H35   S    
C43   H7    S    
C45   C46   S    
C12   C36   A    
C25   H3    S    
C26   H4    S    
C40   C42   A    
C34   N9    S    
N12   H42   S    
C5    C29   A    
C38   O14   S    
C10   C21   A    
C13   C19   A    
C45   H13   S    
O13   C43   S    
C14   C20   A    
C54   H50   S    
C47   H17   S    
C4    C6    A    
O16   C49   S    
C5    C7    A    
C53   H48   S    
C15   C26   A    
C6    C8    A    
C49   C50   S    
C23   O5    A    
O14   C45   S    
C52   H46   S    
C3    C9    A    
C1    O3    A    
C44   H11   S    
Cu2   O2    S    
Cu1   N4    S    
C39   N5    S    
O15   C47   S    
C23   O7    A    
Cu2   O3    S    
C24   O6    A    
C49   H23   S    
N9    H36   S    
C16   C18   A    
C45   H12   S    
N6    H30   S    
C51   C52   S    
C4    C17   A    
Cu1   O1    S    
C6    C30   A    
C20   C22   A    
C48   H20   S    
C48   H21   S    
C20   O18   S    
C4    C10   A    
C52   H45   S    
N12   H41   S    
C51   H44   S    
C29   N1    A    
C16   C25   A    
C15   C17   A    
C30   N2    A    
C50   H25   S    
C24   O8    A    
N5    H28   S    
C36   N7    S    
C31   N1    A    
C3    C5    A    
O18   C53   S    
C46   H16   S    
N10   H38   S    
C2    O4    A    
Cu1   O5    S    
Cu2   O7    S    
N7    H31   S    
C12   C24   S    
C46   H15   S    
C7    C25   A    
N5    H27   S    
C13   C17   A    
N3    O15   S    
C33   C41   A    
C11   C35   A    
C1    O1    A    
C52   H47   S    
N4    O16   S    
C37   C39   A    
C2    O2    A    
N11   H39   S    
C38   C40   A    
Cu2   O6    S    
C43   C44   S    
C37   O13   S    
C11   C23   S    
C53   C54   S    
C33   C35   A    
N8    H34   S    
C34   C36   A    
C12   C38   A    
N6    H29   S    
C8    H2    S    
C9    C31   A    
C40   N6    S    
C46   H14   S    
C10   C32   A    
C44   H9    S    
C53   H49   S    
C13   C16   A    
C44   H10   S    
C27   C28   D    
C1    C27   S    
C43   H8    S    
C14   C15   A    
C51   H43   S    
C2    C28   S    
C41   N1    S    
C27   H5    S    
Cu1   O8    S    
C42   N2    S    
C32   O11   S    
