data_mof_unit_29704.cif
_audit_creation_date              2012-12-10T18:49:20-0500
_audit_creation_method            fapswitch 2.2
_symmetry_space_group_name_H-M    P1
_symmetry_Int_Tables_number       1
_space_group_crystal_system       triclinic
_cell_length_a                    10.002818
_cell_length_b                    10.685073
_cell_length_c                    13.56311
_cell_angle_alpha                 91.55518
_cell_angle_beta                  82.561165
_cell_angle_gamma                 88.474
_cell_volume                      1436.2418362

loop_
_atom_site_label
_atom_site_type_symbol
_atom_type_description
_atom_site_fract_x
_atom_site_fract_y
_atom_site_fract_z
_atom_type_partial_charge
C1    C     C_R   0.498228 0.739441 0.499587 0.919048
C2    C     C_R   0.501229 0.260942 0.501153 0.925033
C3    C     C_R   0.503441 0.128467 0.501677 -0.156112
C4    C     C_R   0.494666 0.872302 0.496175 -0.177491
C5    C     C_R   0.475270 0.500672 0.685510 0.888266
C6    C     C_R   0.524725 0.499537 0.314490 0.871299
C7    C     C_R   0.944378 0.457640 0.418498 -0.072197
C8    C     C_R   0.055784 0.539258 0.582538 -0.075051
C9    C     C_R   0.086909 0.453676 0.419713 -0.032656
C10   C     C_R   0.913221 0.545091 0.580864 -0.035389
C11   C     C_1   0.544155 0.497443 0.210237 -0.119686
C12   C     C_1   0.455894 0.500907 0.789726 -0.122926
C13   C     C_2   0.558512 0.493824 0.017848 -0.141716
C14   C     C_2   0.441441 0.500238 0.982023 -0.175004
C15   C     C_1   0.444014 0.500739 0.877900 0.026095
C16   C     C_1   0.556013 0.495446 0.122018 0.022566
C17   C     C_R   0.585179 0.930704 0.424980 0.103533
C18   C     C_R   0.418495 0.069436 0.575572 0.108173
C19   C     C_R   0.583017 0.060828 0.424232 0.163824
C20   C     C_R   0.405024 0.941377 0.566871 0.126823
H1    H     H_    0.345424 0.506120 0.029981 0.181366
H2    H     H_    0.654534 0.488350 0.969849 0.200166
N1    N     N_R   0.142790 0.500030 0.500020 -0.158099
N2    N     N_R   0.857210 0.499970 0.499980 -0.161015
O1    O     O_R   0.385380 0.683250 0.500010 -0.593426
O2    O     O_R   0.614620 0.316750 0.499990 -0.593037
O3    O     O_R   0.614710 0.683220 0.500000 -0.582595
O4    O     O_R   0.385290 0.316780 0.500000 -0.605653
O5    O     O_R   0.368830 0.499990 0.640350 -0.600658
O6    O     O_R   0.631170 0.500010 0.359650 -0.600857
O7    O     O_R   0.598160 0.499960 0.640350 -0.604015
O8    O     O_R   0.401840 0.500040 0.359650 -0.609466
Zn1   Zn    Zn3+2 0.346870 0.500020 0.500000 1.001912
Zn2   Zn    Zn3+2 0.653130 0.499980 0.500000 1.004760
C21   C     C_2   0.893068 0.419297 0.326094 1.001511
O9    O     O_2   0.881100 0.496736 0.262819 -0.607561
O10   O     O_R   0.872628 0.293107 0.306590 -0.807277
H3    H     H_    0.849119 0.277486 0.236927 0.335627
C22   C     C_2   0.107406 0.563068 0.677784 0.989530
O11   O     O_2   0.160300 0.661628 0.694079 -0.636084
O12   O     O_R   0.093366 0.472029 0.750181 -0.776664
H4    H     H_    0.131931 0.498452 0.812821 0.343995
C23   C     C_2   0.172733 0.388176 0.336606 0.979275
O13   O     O_2   0.227591 0.287753 0.350120 -0.627271
O14   O     O_R   0.186454 0.438609 0.241920 -0.798023
H5    H     H_    0.246483 0.384202 0.190988 0.331448
C24   C     C_2   0.827657 0.610079 0.664530 0.961001
O15   O     O_2   0.814437 0.564755 0.746942 -0.617372
O16   O     O_R   0.765404 0.725365 0.649817 -0.793221
H6    H     H_    0.709435 0.760981 0.712450 0.331868
N3    N     N_2   0.667377 0.859985 0.347934 -0.311773
H7    H     H_    0.625472 0.781378 0.320340 0.226980
C25   C     C_3   0.808696 0.844007 0.359968 -0.650264
H8    H     H_    0.871101 0.859946 0.287908 0.236147
H9    H     H_    0.830079 0.747125 0.382532 0.264206
H10   H     H_    0.838730 0.910998 0.416769 0.235382
N4    N     N_2   0.344241 0.136811 0.658185 -0.311188
H11   H     H_    0.286064 0.212275 0.641558 0.271762
C26   C     C_3   0.420355 0.161549 0.739832 -0.765895
H12   H     H_    0.353464 0.208259 0.802586 0.251991
H13   H     H_    0.505079 0.223787 0.716274 0.230301
H14   H     H_    0.460938 0.072389 0.766114 0.249322
N5    N     N_2   0.652839 0.123929 0.342674 -0.266244
H15   H     H_    0.744285 0.082561 0.314024 0.278586
C27   C     C_3   0.570694 0.152927 0.265476 -0.732732
H16   H     H_    0.630369 0.205033 0.206169 0.227002
H17   H     H_    0.481838 0.212609 0.296102 0.265743
H18   H     H_    0.536293 0.065313 0.232023 0.244960
N6    N     N_2   0.296342 0.883746 0.625205 -0.251721
H19   H     H_    0.290296 0.905663 0.700211 0.259467
C28   C     C_3   0.168261 0.904299 0.587667 -0.600784
H20   H     H_    0.145235 0.006012 0.582129 0.221009
H21   H     H_    0.085004 0.865515 0.638690 0.252505
H22   H     H_    0.170784 0.857817 0.513137 0.238646

loop_
_geom_bond_atom_site_label_1
_geom_bond_atom_site_label_2
_ccdc_geom_bond_type
C13   H2    S    
C28   H22   S    
C6    O8    A    
C23   O13   D    
N5    C27   S    
C3    C19   A    
O10   H3    S    
C8    C22   S    
C11   C16   T    
C18   N4    S    
C18   C20   A    
C21   O9    D    
C27   H17   S    
C12   C15   T    
C1    C4    S    
C10   N2    A    
O8    Zn1   S    
C27   H18   S    
O1    Zn1   S    
C2    C3    S    
C13   C16   S    
O7    Zn2   S    
N6    C28   S    
C26   H12   S    
C2    O2    A    
O14   H5    S    
C1    O1    A    
C23   O14   S    
C17   N3    S    
N4    H11   S    
C5    O7    A    
C5    C12   S    
C4    C17   A    
C14   H1    S    
C8    C10   A    
C17   C19   A    
O4    Zn1   S    
O16   H6    S    
C5    O5    A    
C25   H9    S    
O3    Zn2   S    
N6    H19   S    
C20   N6    S    
C26   H13   S    
N4    C26   S    
C9    C23   S    
O6    Zn2   S    
C22   O11   D    
C7    N2    A    
C4    C20   A    
C24   O15   D    
O5    Zn1   S    
C28   H21   S    
C28   H20   S    
C8    N1    A    
N3    H7    S    
C22   O12   S    
C3    C18   A    
C24   O16   S    
C27   H16   S    
O12   H4    S    
C25   H10   S    
C21   O10   S    
C6    C11   S    
C1    O3    A    
C7    C9    A    
C14   C15   S    
C9    N1    A    
C26   H14   S    
C2    O4    A    
C6    O6    A    
C13   C14   D    
C10   C24   S    
C7    C21   S    
O2    Zn2   S    
N2    Zn2   S    
N1    Zn1   S    
N5    H15   S    
C25   H8    S    
C19   N5    S    
N3    C25   S    
