data_mof_unit_48969.cif
_audit_creation_date              2012-12-11T15:52:01-0500
_audit_creation_method            fapswitch 2.2
_symmetry_space_group_name_H-M    P1
_symmetry_Int_Tables_number       1
_space_group_crystal_system       triclinic
_cell_length_a                    8.258349
_cell_length_b                    19.088764
_cell_length_c                    19.028442
_cell_angle_alpha                 98.40054
_cell_angle_beta                  94.561705
_cell_angle_gamma                 91.951504
_cell_volume                      2954.91723508

loop_
_atom_site_label
_atom_site_type_symbol
_atom_type_description
_atom_site_fract_x
_atom_site_fract_y
_atom_site_fract_z
_atom_type_partial_charge
Ba1   Ba    Ba6+2 0.152000 0.534910 0.469330 1.668684
Ba2   Ba    Ba6+2 0.658180 0.465080 0.530610 1.662859
C1    C     C_3   0.292245 0.780786 0.231856 -0.198005
C2    C     C_3   0.370394 0.741399 0.289675 0.351571
C3    C     C_3   0.381660 0.697631 0.703954 0.189632
C4    C     C_3   0.338875 0.704261 0.781684 -0.377395
C5    C     C_3   0.920530 0.270926 0.681125 0.361222
C6    C     C_3   0.879042 0.195724 0.695738 -0.192971
C7    C     C_3   0.411268 0.277967 0.716205 0.238528
C8    C     C_3   0.501887 0.277444 0.789369 -0.152508
C9    C     C_R   0.951559 0.199165 0.462676 -0.153044
C10   C     C_R   0.985744 0.273456 0.475085 0.056342
C11   C     C_R   0.145252 0.187180 0.561484 -0.168962
C12   C     C_3   0.850873 0.724602 0.302145 0.380726
C13   C     C_R   0.210818 0.254671 0.557092 -0.023410
C14   C     C_R   0.667111 0.813038 0.438555 -0.160336
C15   C     C_R   0.599883 0.745838 0.443673 -0.015418
C16   C     C_R   0.863109 0.800929 0.536401 -0.093254
C17   C     C_R   0.825423 0.726886 0.525333 0.072823
C18   C     C_R   0.021934 0.154132 0.510128 0.005209
C19   C     C_R   0.121155 0.299751 0.520202 -0.238172
C20   C     C_R   0.792405 0.845838 0.488930 0.021218
C21   C     C_R   0.688469 0.700968 0.481286 -0.217338
C22   C     C_R   0.238712 0.035453 0.545977 -0.068763
C23   C     C_3   0.881146 0.798191 0.282754 -0.356111
C24   C     C_R   0.336597 0.984086 0.568801 -0.047261
C25   C     C_R   0.287058 0.913724 0.550404 -0.044041
C26   C     C_R   0.134993 0.896078 0.514701 -0.098543
C27   C     C_R   0.016805 0.947034 0.510203 0.016484
C28   C     C_R   0.072565 0.020455 0.521511 0.045855
C29   C     C_R   0.849962 0.924798 0.491293 -0.012150
C30   C     C_R   0.741819 0.979479 0.476957 0.044352
C31   C     C_R   0.797912 0.052795 0.487961 0.014020
C32   C     C_R   0.964575 0.075060 0.507152 -0.012602
C33   C     C_R   0.575218 0.964817 0.452894 -0.081897
C34   C     C_3   0.788890 0.380346 0.310170 0.308690
C35   C     C_R   0.477555 0.016226 0.429837 -0.089067
C36   C     C_R   0.527941 0.086548 0.447590 -0.065723
C37   C     C_R   0.680228 0.103810 0.483108 -0.080446
C38   C     C_R   0.610214 0.530664 0.301516 -0.286877
C39   C     C_R   0.463952 0.493672 0.276195 0.073295
C40   C     C_R   0.409725 0.487876 0.203877 -0.113852
C41   C     C_R   0.504658 0.517132 0.155880 -0.008610
C42   C     C_R   0.656684 0.551063 0.182028 -0.140502
C43   C     C_R   0.709237 0.557050 0.254444 -0.012381
C44   C     C_R   0.486260 0.564349 0.038932 -0.083715
C45   C     C_3   0.771449 0.363393 0.229222 -0.375246
C46   C     C_R   0.432753 0.558867 0.966759 -0.078692
C47   C     C_R   0.341436 0.498476 0.931607 0.047173
C48   C     C_R   0.301740 0.444863 0.971577 -0.041894
C49   C     C_R   0.354798 0.450521 0.043888 -0.053291
C50   C     C_R   0.447900 0.510486 0.078677 0.055665
C51   C     C_R   0.143196 0.454787 0.824284 -0.090498
C52   C     C_R   0.098596 0.447184 0.750784 -0.000565
C53   C     C_R   0.343173 0.515724 0.735076 0.033585
C54   C     C_R   0.391304 0.520945 0.807696 -0.123356
C55   C     C_R   0.291580 0.490851 0.853553 -0.004083
C56   C     C_3   0.975240 0.615747 0.692408 0.361406
C57   C     C_R   0.201573 0.475773 0.706594 -0.258882
C58   C     C_3   0.924616 0.628184 0.768317 -0.347124
C59   C     C_3   0.298625 0.322133 0.372088 0.318264
C60   C     C_3   0.286171 0.241995 0.351423 -0.387242
H1    H     H_    0.380412 0.684563 0.267662 0.010782
H2    H     H_    0.683435 0.317656 0.211938 0.132803
H3    H     H_    0.727001 0.409537 0.205602 0.064769
H4    H     H_    0.891164 0.350151 0.209286 0.131274
H5    H     H_    0.101889 0.600199 0.693751 -0.102080
H6    H     H_    0.899735 0.570807 0.662527 0.092856
H7    H     H_    0.997477 0.673172 0.800552 0.103694
H8    H     H_    0.943057 0.580032 0.793761 0.061944
H9    H     H_    0.794407 0.640623 0.767980 0.147710
H10   H     H_    0.179999 0.340703 0.388012 -0.000344
H11   H     H_    0.392100 0.335330 0.417747 0.084704
H12   H     H_    0.193024 0.746765 0.199691 0.124662
H13   H     H_    0.187939 0.226709 0.307980 0.126236
H14   H     H_    0.258364 0.216451 0.398040 0.059088
H15   H     H_    0.403401 0.222775 0.333102 0.127912
H16   H     H_    0.493408 0.765682 0.306004 -0.065749
H17   H     H_    0.276047 0.677388 0.666737 0.023944
H18   H     H_    0.447886 0.722640 0.818680 0.131080
H19   H     H_    0.241899 0.742575 0.791158 0.127011
H20   H     H_    0.293511 0.652750 0.794109 0.061631
H21   H     H_    0.237355 0.829051 0.258129 0.101931
H22   H     H_    0.892867 0.794805 0.224653 0.112614
H23   H     H_    0.866719 0.274660 0.626408 0.048125
H24   H     H_    0.054477 0.279588 0.683747 -0.086946
H25   H     H_    0.923883 0.156726 0.653558 0.015179
H26   H     H_    0.745639 0.185768 0.693139 0.093012
H27   H     H_    0.311227 0.236501 0.708293 0.044440
H28   H     H_    0.360964 0.331327 0.715191 0.005740
H29   H     H_    0.594447 0.322105 0.800268 0.122612
H30   H     H_    0.868853 0.728164 0.361004 0.025184
H31   H     H_    0.564667 0.226876 0.789150 0.108589
H32   H     H_    0.863731 0.178022 0.418895 0.071792
H33   H     H_    0.192301 0.161773 0.605323 0.078982
H34   H     H_    0.620103 0.838817 0.395219 0.050005
H35   H     H_    0.953083 0.821890 0.579379 0.078086
H36   H     H_    0.163303 0.354428 0.522841 0.063120
H37   H     H_    0.644141 0.646794 0.480206 0.067555
H38   H     H_    0.303055 0.084292 0.543533 0.069524
H39   H     H_    0.460014 0.998162 0.591366 0.092210
H40   H     H_    0.371820 0.873328 0.558657 0.159602
H41   H     H_    0.723915 0.706318 0.282844 -0.099729
H42   H     H_    0.109763 0.842256 0.490317 0.123662
H43   H     H_    0.510186 0.916350 0.455980 0.072923
H44   H     H_    0.353924 0.002276 0.407502 0.074835
H45   H     H_    0.444256 0.127381 0.438886 0.093668
H46   H     H_    0.706398 0.157409 0.507231 0.128773
H47   H     H_    0.505016 0.549313 0.827952 0.067381
H48   H     H_    0.462163 0.602537 0.938890 0.059041
H49   H     H_    0.556962 0.611226 0.063731 0.060668
H50   H     H_    0.294159 0.460224 0.185475 0.079616
H51   H     H_    0.232074 0.397675 0.946963 0.092263
H52   H     H_    0.778493 0.832008 0.296660 0.060031
H53   H     H_    0.325445 0.406992 0.071952 0.075664
H54   H     H_    0.060556 0.433978 0.858349 0.084059
H55   H     H_    0.736630 0.570853 0.146265 0.073062
H56   H     H_    0.165328 0.470941 0.650120 0.058958
H57   H     H_    0.652490 0.534479 0.357296 0.066847
H58   H     H_    0.993745 0.823429 0.312911 0.123291
H59   H     H_    0.668416 0.392188 0.329171 0.005052
H60   H     H_    0.874435 0.427168 0.325999 0.061753
O1    O     O_2   0.116570 0.673370 0.549300 -0.463412
O2    O     O_3   0.340473 0.352990 0.313276 -0.634664
O3    O     O_3   0.960842 0.678274 0.270187 -0.574017
O4    O     O_2   0.693730 0.326590 0.450680 -0.464062
O5    O     O_3   0.940960 0.415230 0.456980 -0.496536
O6    O     O_3   0.457750 0.369120 0.580200 -0.446819
O7    O     O_3   0.847696 0.321141 0.337528 -0.631797
O8    O     O_3   0.373690 0.535540 0.586160 -0.464069
O9    O     O_3   0.872560 0.404620 0.618320 -0.489457
O10   O     O_2   0.761751 0.449449 0.743962 -0.476245
O11   O     O_3   0.855760 0.321247 0.731342 -0.560617
O12   O     O_3   0.869340 0.584760 0.542960 -0.499316
O13   O     O_3   0.436600 0.464450 0.413780 -0.497169
O14   O     O_2   0.628980 0.533090 0.672420 -0.442757
O15   O     O_3   0.513668 0.654055 0.693689 -0.654241
O16   O     O_2   0.529419 0.245921 0.524067 -0.505536
O17   O     O_3   0.519229 0.262115 0.663268 -0.587563
O18   O     O_3   0.352540 0.630870 0.419750 -0.456400
O19   O     O_2   0.292338 0.752097 0.485433 -0.476743
O20   O     O_3   0.962550 0.678867 0.662866 -0.630220
O21   O     O_3   0.273243 0.747433 0.347521 -0.580656
O22   O     O_2   0.181320 0.466870 0.327560 -0.458154
O23   O     O_3   0.937730 0.595370 0.381630 -0.480993
O24   O     O_2   0.044591 0.547567 0.255134 -0.473410
P1    P     P_3+3 0.945400 0.662120 0.569160 0.997401
P2    P     P_3+3 0.355390 0.445380 0.336430 0.981860
P3    P     P_3+3 0.912954 0.593577 0.289215 0.971280
P4    P     P_3+3 0.864900 0.337880 0.430780 0.978726
P5    P     P_3+3 0.899395 0.406247 0.711188 0.976621
P6    P     P_3+3 0.382695 0.721165 0.421108 0.960296
P7    P     P_3+3 0.454839 0.563389 0.674917 0.950608
P8    P     P_3+3 0.426287 0.279959 0.582610 0.943005
C61   C     C_3   0.414517 0.805873 0.183040 -0.261154
C62   C     C_3   0.485934 0.744400 0.136197 -0.198205
C63   C     C_3   0.600034 0.772139 0.086107 -0.404158
H61   H     H_    0.532138 0.803265 0.049511 0.141964
H62   H     H_    0.700311 0.806309 0.117155 0.133686
H63   H     H_    0.653887 0.727197 0.053625 0.118886
H64   H     H_    0.555086 0.711047 0.170084 0.114162
H65   H     H_    0.385766 0.711055 0.103933 0.125039
H66   H     H_    0.350268 0.839799 0.148060 0.127089
H67   H     H_    0.513988 0.839298 0.215795 0.120697
C64   C     C_2   0.430781 0.769235 0.684969 0.915028
O25   O     O_2   0.417075 0.823848 0.725996 -0.584118
O26   O     O_R   0.494514 0.773740 0.620015 -0.740796
H68   H     H_    0.498651 0.725629 0.589990 0.269468
C65   C     C_2   0.953429 0.182500 0.766731 0.933218
O27   O     O_2   0.898904 0.210045 0.821469 -0.580290
O28   O     O_R   0.083201 0.137626 0.769844 -0.752862
H69   H     H_    0.123415 0.132865 0.820593 0.325210
C66   C     C_2   0.390639 0.284152 0.848493 0.805570
O29   O     O_2   0.447350 0.282834 0.909583 -0.581350
O30   O     O_R   0.223914 0.291237 0.834117 -0.775112
H70   H     H_    0.161815 0.290948 0.877890 0.332609

loop_
_geom_bond_atom_site_label_1
_geom_bond_atom_site_label_2
_ccdc_geom_bond_type
Ba2   P4    S    
C21   H37   S    
O28   H69   S    
C38   C39   A    
C64   O25   D    
C4    H20   S    
C53   C57   A    
O4    P4    D    
C39   C40   A    
C60   H15   S    
O9    P5    S    
O11   P5    S    
O22   P2    D    
C2    O21   S    
C5    C6    S    
C66   O29   D    
C6    C65   S    
O12   P1    S    
O2    P2    S    
C2    H1    S    
C24   C25   A    
Ba2   O12   S    
C12   O3    S    
C11   H33   S    
C59   O2    S    
C58   H7    S    
C26   C27   A    
C33   C35   A    
C35   C36   A    
C22   C24   A    
C5    O11   S    
O5    P4    S    
C3    C4    S    
C41   C50   S    
C5    H24   S    
C56   C58   S    
C44   C50   A    
C34   O7    S    
C47   C55   S    
C54   C55   A    
C34   C45   S    
Ba1   Ba2   S    
C65   O27   D    
C36   H45   S    
C1    H12   S    
C40   H50   S    
C13   P8    S    
Ba2   O14   S    
Ba1   O23   S    
C31   C37   A    
C63   H61   S    
O30   H70   S    
O7    P4    S    
C14   C15   A    
C23   H22   S    
C19   H36   S    
C16   H35   S    
C3    C64   S    
C3    H17   S    
C7    C8    S    
O18   P6    S    
C45   H4    S    
C51   H54   S    
O6    P8    S    
C18   C32   S    
Ba2   O5    S    
O16   P8    D    
C8    C66   S    
C62   H65   S    
C64   O26   S    
C4    H19   S    
C22   H38   S    
C44   H49   S    
C65   O28   S    
C60   H14   S    
C38   C43   A    
Ba2   O9    S    
C52   C57   A    
C66   O30   S    
C37   H46   S    
C44   C46   A    
C9    C18   A    
C14   H34   S    
C20   C29   S    
C28   C32   A    
C49   C50   A    
C30   C33   A    
C10   P4    S    
C36   C37   A    
Ba1   O8    S    
C7    H27   S    
C45   H2    S    
C51   C55   A    
C17   C21   A    
C16   C17   A    
C58   H9    S    
C61   H66   S    
C51   C52   A    
C10   C19   A    
C49   H53   S    
C6    H26   S    
C34   H60   S    
C41   C42   A    
Ba1   O1    S    
C2    H16   S    
C27   C28   A    
C33   H43   S    
O24   P3    D    
C26   H42   S    
C4    H18   S    
C29   C30   A    
C58   H8    S    
C27   C29   A    
C53   C54   A    
C1    C61   S    
C31   C32   A    
O15   P7    S    
C48   C49   A    
C15   C21   A    
C12   H30   S    
O17   P8    S    
Ba1   O18   S    
O3    P3    S    
Ba2   O4    S    
C59   H10   S    
C56   H6    S    
O21   P6    S    
O1    P1    D    
C62   H64   S    
C47   C48   A    
C63   H63   S    
C11   C13   A    
C1    H21   S    
C60   H13   S    
Ba1   P1    S    
C15   P6    S    
C40   C41   A    
Ba1   O12   S    
C23   H58   S    
C54   H47   S    
O26   H68   S    
C42   C43   A    
C9    H32   S    
C53   P7    S    
C62   C63   S    
C14   C20   A    
C56   O20   S    
C11   C18   A    
C16   C20   A    
O20   P1    S    
Ba1   O5    S    
C7    H28   S    
C8    H29   S    
C9    C10   A    
C3    O15   S    
C52   P5    S    
C61   H67   S    
C57   H56   S    
C25   H40   S    
Ba2   O13   S    
C8    H31   S    
C48   H51   S    
C59   H11   S    
C30   C31   A    
C6    H25   S    
C17   P1    S    
C34   H59   S    
C35   H44   S    
C24   H39   S    
Ba1   O22   S    
C23   H52   S    
O14   P7    D    
C7    O17   S    
C12   H41   S    
C5    H23   S    
C39   P2    S    
C42   H55   S    
C46   C47   A    
Ba2   O8    S    
O8    P7    S    
C43   P3    S    
C12   C23   S    
C59   C60   S    
C22   C28   A    
C56   H5    S    
C13   C19   A    
C38   H57   S    
C63   H62   S    
O13   P2    S    
C61   C62   S    
O10   P5    D    
Ba1   P2    S    
C46   H48   S    
Ba1   O13   S    
C45   H3    S    
O23   P3    S    
C1    C2    S    
O19   P6    D    
C25   C26   A    
Ba2   O6    S    
