data_mof_unit_32409.cif
_audit_creation_date              2012-12-10T17:45:32-0500
_audit_creation_method            fapswitch 2.2
_symmetry_space_group_name_H-M    P1
_symmetry_Int_Tables_number       1
_space_group_crystal_system       triclinic
_cell_length_a                    11.546888
_cell_length_b                    10.680795
_cell_length_c                    9.909515
_cell_angle_alpha                 91.319065
_cell_angle_beta                  90.088542
_cell_angle_gamma                 91.988722
_cell_volume                      1221.07677645

loop_
_atom_site_label
_atom_site_type_symbol
_atom_type_description
_atom_site_fract_x
_atom_site_fract_y
_atom_site_fract_z
_atom_type_partial_charge
C1    C     C_R   0.514612 0.261480 0.498156 0.885771
C2    C     C_R   0.699191 0.082045 0.821187 -0.096754
C3    C     C_R   0.696585 0.952126 0.823800 -0.130056
C4    C     C_R   0.645066 0.882079 0.718207 -0.165326
C5    C     C_R   0.589459 0.941091 0.610615 0.109256
C6    C     C_R   0.593194 0.073207 0.607007 0.063574
C7    C     C_R   0.545747 0.131194 0.492770 -0.198689
C8    C     C_R   0.525102 0.059826 0.373285 0.264833
C9    C     C_R   0.513000 0.932966 0.381303 -0.242803
C10   C     C_R   0.535419 0.873424 0.501613 -0.184724
C11   C     C_R   0.340417 0.343870 0.136100 -0.090930
C12   C     C_R   0.282005 0.499613 0.499911 0.904663
C13   C     C_R   0.261339 0.267142 0.064082 -0.154399
C14   C     C_R   0.262328 0.265626 0.924438 -0.182338
C15   C     C_R   0.341974 0.341288 0.856037 -0.132989
C16   C     C_R   0.421427 0.422756 0.925695 0.168093
C17   C     C_R   0.421022 0.423434 0.070300 0.181938
C18   C     C_R   0.576062 0.572724 0.073582 -0.093234
C19   C     C_R   0.576247 0.572365 0.930562 -0.108645
C20   C     C_R   0.510606 0.740146 0.501439 0.894250
C21   C     C_R   0.718018 0.500325 0.500105 0.877046
C22   C     C_1   0.161513 0.499221 0.499795 -0.189774
C23   C     C_1   0.059326 0.499111 0.499933 0.000680
C24   C     C_1   0.940647 0.499356 0.500182 0.000896
C25   C     C_1   0.838478 0.499791 0.500268 -0.182118
C26   C     C_R   0.650954 0.142356 0.712538 -0.144819
H1    H     H_    0.202098 0.204097 0.868565 0.151057
H2    H     H_    0.339405 0.331769 0.748998 0.203049
H3    H     H_    0.639350 0.630576 0.878911 0.131440
H4    H     H_    0.665875 0.242557 0.709563 0.169091
H5    H     H_    0.742836 0.136284 0.900980 0.153864
H6    H     H_    0.738325 0.905329 0.905530 0.138649
H7    H     H_    0.655860 0.782524 0.719043 0.151767
H8    H     H_    0.485345 0.880940 0.291026 0.207343
H9    H     H_    0.638211 0.632197 0.128919 0.146072
H10   H     H_    0.339458 0.333763 0.242714 0.205988
H11   H     H_    0.200831 0.206264 0.117105 0.153915
N1    N     N_R   0.498930 0.498800 0.142780 -0.117132
N2    N     N_R   0.498900 0.498720 0.857170 -0.122670
O1    O     O_R   0.500000 0.316780 0.614690 -0.652489
O2    O     O_R   0.499990 0.316750 0.385360 -0.586996
O3    O     O_R   0.334450 0.500030 0.614670 -0.624516
O4    O     O_R   0.334440 0.500000 0.385330 -0.633355
O5    O     O_R   0.500010 0.683250 0.614640 -0.616811
O6    O     O_R   0.500000 0.683220 0.385310 -0.619303
O7    O     O_R   0.665560 0.500000 0.614670 -0.634903
O8    O     O_R   0.665550 0.499970 0.385330 -0.603167
Zn1   Zn    Zn3+2 0.500010 0.500020 0.653130 0.930163
Zn2   Zn    Zn3+2 0.499990 0.499980 0.346870 0.962815
Br1   Br    Br    0.519521 0.121614 0.192449 -0.547273

loop_
_geom_bond_atom_site_label_1
_geom_bond_atom_site_label_2
_ccdc_geom_bond_type
C23   C24   S    
C6    C7    A    
C8    Br1   S    
C14   H1    S    
C18   H9    S    
C13   H11   S    
C20   O6    A    
C14   C15   A    
O6    Zn2   S    
C2    C3    A    
C18   N1    A    
C7    C8    A    
C2    C26   A    
N1    Zn2   S    
O3    Zn1   S    
C13   C14   A    
C11   C13   A    
C15   H2    S    
C6    C26   A    
C19   N2    A    
C5    C6    A    
C1    O2    A    
C11   H10   S    
C20   O5    A    
C9    H8    S    
C26   H4    S    
C12   O4    A    
C17   N1    A    
C2    H5    S    
C3    H6    S    
O7    Zn1   S    
C16   C17   A    
C16   N2    A    
O4    Zn2   S    
C15   C16   A    
C19   H3    S    
C12   C22   S    
C5    C10   A    
C18   C19   A    
C24   C25   T    
O8    Zn2   S    
C21   O7    A    
C9    C10   A    
O2    Zn2   S    
O1    Zn1   S    
C21   C25   S    
C4    H7    S    
C4    C5    A    
C12   O3    A    
C1    O1    A    
C21   O8    A    
C1    C7    S    
C22   C23   T    
C11   C17   A    
C3    C4    A    
O5    Zn1   S    
C10   C20   S    
C8    C9    A    
N2    Zn1   S    
