data_mof_unit_16392.cif
_audit_creation_date              2012-12-11T15:17:39-0500
_audit_creation_method            fapswitch 2.2
_symmetry_space_group_name_H-M    P1
_symmetry_Int_Tables_number       1
_space_group_crystal_system       triclinic
_cell_length_a                    15.667623
_cell_length_b                    15.712912
_cell_length_c                    34.614139
_cell_angle_alpha                 89.940678
_cell_angle_beta                  90.173015
_cell_angle_gamma                 119.739876
_cell_volume                      7399.02205656

loop_
_atom_site_label
_atom_site_type_symbol
_atom_type_description
_atom_site_fract_x
_atom_site_fract_y
_atom_site_fract_z
_atom_type_partial_charge
C1    C     C_R   0.578563 0.441196 0.555150 0.553122
C2    C     C_R   0.558315 0.136001 0.554536 0.555053
C3    C     C_R   0.863862 0.421884 0.554806 0.552768
C4    C     C_R   0.441504 0.578617 0.055090 0.555949
C5    C     C_R   0.137302 0.558889 0.055130 0.557686
C6    C     C_R   0.421635 0.862911 0.055118 0.567610
C7    C     C_R   0.010540 0.511688 0.709015 0.339049
C8    C     C_R   0.495271 0.457739 0.714733 0.342539
C9    C     C_R   0.517072 0.975209 0.705317 0.344242
C10   C     C_R   0.506065 0.967660 0.214250 0.343577
C11   C     C_R   0.461473 0.493782 0.214144 0.343412
C12   C     C_R   0.032478 0.538388 0.214231 0.343397
C13   C     C_R   0.010076 0.442965 0.850672 -0.044970
C14   C     C_R   0.558849 0.548179 0.853535 -0.047647
C15   C     C_R   0.432335 0.951551 0.843610 -0.049915
C16   C     C_R   0.442320 0.002396 0.351357 -0.035810
C17   C     C_R   0.558258 0.557114 0.351427 -0.035614
C18   C     C_R   0.996708 0.438957 0.351267 -0.035652
C19   C     C_R   0.033010 0.450089 0.890313 -0.047266
C20   C     C_R   0.551822 0.578788 0.891145 -0.049604
C21   C     C_R   0.405891 0.925019 0.882410 -0.039273
C22   C     C_R   0.448341 0.035902 0.389538 -0.042048
C23   C     C_R   0.585944 0.551208 0.389651 -0.042034
C24   C     C_R   0.963444 0.411636 0.389458 -0.041716
C25   C     C_R   0.108399 0.627488 0.886056 -0.125516
C26   C     C_R   0.377458 0.459528 0.891423 -0.125470
C27   C     C_R   0.471902 0.813887 0.878645 -0.134486
C28   C     C_R   0.618999 0.074588 0.392524 -0.121246
C29   C     C_R   0.455650 0.380924 0.392330 -0.122073
C30   C     C_R   0.925023 0.543649 0.392421 -0.122625
C31   C     C_R   0.087230 0.621757 0.846684 -0.001150
C32   C     C_R   0.382629 0.429193 0.854062 -0.003486
C33   C     C_R   0.499248 0.840188 0.840267 -0.000671
C34   C     C_R   0.613837 0.040474 0.354857 -0.003501
C35   C     C_R   0.426476 0.386013 0.354627 -0.003560
C36   C     C_R   0.959037 0.572498 0.354754 -0.003312
C37   C     C_R   0.040156 0.528917 0.828670 0.029813
C38   C     C_R   0.473338 0.476051 0.834242 0.015930
C39   C     C_R   0.478352 0.908613 0.822420 0.017783
C40   C     C_R   0.526183 0.008350 0.333478 0.028763
C41   C     C_R   0.481101 0.473413 0.333394 0.028977
C42   C     C_R   0.990965 0.516959 0.333391 0.028855
C43   C     C_R   0.086570 0.543465 0.907640 -0.014841
C44   C     C_R   0.459365 0.537129 0.909510 -0.024321
C45   C     C_R   0.425063 0.854569 0.899903 -0.016889
C46   C     C_R   0.539235 0.077651 0.409473 -0.017170
C47   C     C_R   0.537841 0.460548 0.409444 -0.017606
C48   C     C_R   0.921966 0.460962 0.409408 -0.017796
C49   C     C_R   0.577597 0.442135 0.445432 0.551278
C50   C     C_R   0.557757 0.135420 0.445444 0.551947
C51   C     C_R   0.864399 0.422080 0.445425 0.550294
C52   C     C_R   0.441954 0.577730 0.945385 0.536229
C53   C     C_R   0.135818 0.558135 0.945399 0.545241
C54   C     C_R   0.396887 0.818703 0.939799 0.536347
C55   C     C_R   0.922594 0.457173 0.590725 -0.016992
C56   C     C_R   0.548100 0.458616 0.593357 -0.014118
C57   C     C_R   0.536848 0.078597 0.590312 -0.012026
C58   C     C_R   0.452441 0.911359 0.093199 -0.014845
C59   C     C_R   0.459765 0.548112 0.093162 -0.013714
C60   C     C_R   0.089038 0.541332 0.093220 -0.013668
C61   C     C_R   0.939556 0.390452 0.611655 -0.137781
C62   C     C_R   0.621937 0.525038 0.618230 -0.134021
C63   C     C_R   0.474809 0.087092 0.617185 -0.136132
C64   C     C_R   0.378783 0.905779 0.117758 -0.136752
C65   C     C_R   0.525857 0.621896 0.118095 -0.136608
C66   C     C_R   0.095831 0.474143 0.117947 -0.136224
C67   C     C_R   0.974339 0.410156 0.649430 -0.028633
C68   C     C_R   0.604127 0.527197 0.657450 -0.029187
C69   C     C_R   0.465273 0.049854 0.654270 -0.026930
C70   C     C_R   0.396888 0.927110 0.156887 -0.027786
C71   C     C_R   0.528870 0.603610 0.157217 -0.027972
C72   C     C_R   0.074512 0.470886 0.157052 -0.027961
C73   C     C_R   0.994157 0.499052 0.667018 -0.001423
C74   C     C_R   0.510361 0.462815 0.672633 -0.001458
C75   C     C_R   0.517092 0.001539 0.664856 0.001455
C76   C     C_R   0.490840 0.956394 0.172231 0.000474
C77   C     C_R   0.465994 0.509380 0.172165 0.000176
C78   C     C_R   0.044032 0.534655 0.172224 0.000122
C79   C     C_R   0.987877 0.571475 0.644910 -0.036344
C80   C     C_R   0.432752 0.401852 0.647391 -0.038095
C81   C     C_R   0.573721 0.985456 0.637330 -0.036455
C82   C     C_R   0.568185 0.970799 0.147336 -0.038293
C83   C     C_R   0.405299 0.432059 0.146896 -0.038136
C84   C     C_R   0.028561 0.596803 0.147159 -0.038075
C85   C     C_R   0.952268 0.550800 0.606658 -0.042899
C86   C     C_R   0.451533 0.399886 0.607636 -0.042833
C87   C     C_R   0.584080 0.024501 0.599843 -0.040088
C88   C     C_R   0.549089 0.948414 0.107677 -0.043958
C89   C     C_R   0.402232 0.451347 0.107244 -0.042561
C90   C     C_R   0.050943 0.600114 0.107523 -0.042748
C91   C     C_R   0.028486 0.521870 0.786682 0.331314
C92   C     C_R   0.476329 0.460817 0.792308 0.319114
C93   C     C_R   0.498257 0.931184 0.781212 0.326746
C94   C     C_R   0.524400 0.990998 0.291705 0.328111
C95   C     C_R   0.465640 0.475052 0.291598 0.327958
C96   C     C_R   0.008592 0.532875 0.291644 0.328063
Cr1   Cr    Cr6+3 0.522350 0.263930 0.500020 1.073828
Cr2   Cr    Cr6+3 0.736070 0.258420 0.500020 1.073232
Cr3   Cr    Cr6+3 0.741580 0.477650 0.500020 1.075585
Cr4   Cr    Cr6+3 0.263930 0.522350 0.000020 1.064042
Cr5   Cr    Cr6+3 0.258420 0.736070 0.000020 1.068275
Cr6   Cr    Cr6+3 0.477650 0.741580 0.000020 1.080310
H1    H     H_    0.919463 0.319337 0.599471 0.157678
H2    H     H_    0.695982 0.571582 0.607575 0.158886
H3    H     H_    0.437761 0.127875 0.609978 0.151094
H4    H     H_    0.304635 0.878653 0.106972 0.154936
H5    H     H_    0.571266 0.696174 0.107599 0.154333
H6    H     H_    0.123854 0.427809 0.107304 0.154982
H7    H     H_    0.149813 0.699394 0.899168 0.141324
H8    H     H_    0.306660 0.424758 0.905710 0.152304
H9    H     H_    0.486650 0.760060 0.892045 0.132758
H10   H     H_    0.687881 0.103317 0.408145 0.149445
H11   H     H_    0.416243 0.312204 0.407830 0.148916
H12   H     H_    0.896445 0.583868 0.408022 0.148348
N1    N     N_R   0.965781 0.545220 0.768890 -0.195239
N2    N     N_R   0.547275 0.446014 0.776791 -0.177077
N3    N     N_R   0.553033 0.025389 0.769424 -0.180282
N4    N     N_R   0.456633 0.904129 0.276247 -0.196873
N5    N     N_R   0.445030 0.542069 0.276085 -0.196707
N6    N     N_R   0.095861 0.551799 0.276397 -0.197297
N7    N     N_R   0.956718 0.539825 0.730659 -0.188541
N8    N     N_R   0.556456 0.444365 0.738649 -0.185598
N9    N     N_R   0.562073 0.047064 0.732035 -0.187649
N10   N     N_R   0.447782 0.892632 0.238128 -0.189362
N11   N     N_R   0.442767 0.551091 0.237962 -0.189244
N12   N     N_R   0.107632 0.554715 0.238305 -0.189225
N13   N     N_R   0.073289 0.488360 0.726935 -0.197508
N14   N     N_R   0.423109 0.470545 0.730195 -0.199788
N15   N     N_R   0.463485 0.880797 0.716962 -0.203117
N16   N     N_R   0.574593 0.054177 0.229684 -0.192148
N17   N     N_R   0.480945 0.425974 0.229634 -0.192170
N18   N     N_R   0.945559 0.520582 0.229459 -0.192278
N19   N     N_R   0.082149 0.493421 0.765184 -0.227821
N20   N     N_R   0.414038 0.472260 0.768317 -0.245840
N21   N     N_R   0.454166 0.859187 0.754414 -0.242282
N22   N     N_R   0.583257 0.065730 0.267818 -0.212719
N23   N     N_R   0.483413 0.417111 0.267773 -0.212488
N24   N     N_R   0.933737 0.517453 0.267568 -0.212333
O1    O     O_R   0.498680 0.159540 0.541860 -0.506653
O2    O     O_R   0.840460 0.339140 0.541860 -0.509653
O3    O     O_R   0.660860 0.501320 0.541860 -0.502964
O4    O     O_R   0.159540 0.498680 0.041860 -0.502687
O5    O     O_R   0.339140 0.840460 0.041860 -0.499765
O6    O     O_R   0.501320 0.660860 0.041860 -0.504236
O7    O     O_R   0.532760 0.358060 0.540030 -0.493247
O8    O     O_R   0.641940 0.174700 0.540030 -0.492109
O9    O     O_R   0.825300 0.467240 0.540030 -0.491824
O10   O     O_R   0.358060 0.532760 0.040030 -0.490544
O11   O     O_R   0.174700 0.641940 0.040030 -0.492216
O12   O     O_R   0.467240 0.825300 0.040030 -0.487673
O13   O     O_R   0.498590 0.161190 0.456930 -0.497797
O14   O     O_R   0.838810 0.337400 0.456930 -0.497858
O15   O     O_R   0.662600 0.501410 0.456930 -0.496252
O16   O     O_R   0.161190 0.498590 0.956930 -0.502402
O17   O     O_R   0.337400 0.838810 0.956930 -0.493458
O18   O     O_R   0.501410 0.662600 0.956930 -0.509049
O19   O     O_R   0.532680 0.359580 0.461300 -0.504390
O20   O     O_R   0.640420 0.173100 0.461300 -0.503666
O21   O     O_R   0.826900 0.467320 0.461300 -0.504534
O22   O     O_R   0.359580 0.532680 0.961300 -0.506104
O23   O     O_R   0.173100 0.640420 0.961300 -0.517159
O24   O     O_R   0.467320 0.826900 0.961300 -0.476022
O25   O     O_3   0.666667 0.333333 0.499990 -0.265144
O26   O     O_3   0.333333 0.666667 0.999990 -0.287725
C97   C     C_1   0.945032 0.625346 0.584460 0.231100
N25   N     N_1   0.939311 0.684945 0.566817 -0.252124
C98   C     C_1   0.372014 0.336536 0.581866 0.230190
N26   N     N_1   0.308496 0.285963 0.561329 -0.254953
C99   C     C_1   0.643181 0.009352 0.571486 0.230948
N27   N     N_1   0.690348 0.997224 0.548857 -0.256339
C100  C     C_1   0.628306 0.962007 0.082261 0.234838
N28   N     N_1   0.691593 0.972885 0.062010 -0.241099
C101  C     C_1   0.338965 0.372201 0.081401 0.232847
N29   N     N_1   0.288448 0.308982 0.060803 -0.248268
C102  C     C_1   0.036173 0.664848 0.081933 0.232613
N30   N     N_1   0.024353 0.716541 0.061539 -0.247620
C103  C     C_1   0.002973 0.361814 0.912789 0.235445
N31   N     N_1   0.978954 0.291298 0.930688 -0.239913
C104  C     C_1   0.639335 0.654161 0.910216 0.236986
N32   N     N_1   0.709289 0.714330 0.925369 -0.238570
C105  C     C_1   0.360763 0.971826 0.903733 0.253029
N33   N     N_1   0.324805 0.009382 0.920621 -0.240100
C106  C     C_1   0.361624 0.029338 0.407417 0.228957
N34   N     N_1   0.292292 0.023970 0.421584 -0.267065
C107  C     C_1   0.665199 0.637807 0.407722 0.230022
N35   N     N_1   0.728440 0.707048 0.422041 -0.264403
C108  C     C_1   0.970015 0.331495 0.407328 0.229141
N36   N     N_1   0.975390 0.267540 0.421485 -0.267091
C109  C     C_1   0.980535 0.333745 0.670409 0.248046
N37   N     N_1   0.985417 0.272500 0.687156 -0.210364
C110  C     C_1   0.684361 0.595389 0.681696 0.244189
N38   N     N_1   0.748616 0.649939 0.701080 -0.207443
C111  C     C_1   0.404028 0.064833 0.681473 0.238984
N39   N     N_1   0.355089 0.076863 0.703247 -0.220782
C112  C     C_1   0.316687 0.916101 0.180943 0.242285
N40   N     N_1   0.252465 0.907185 0.200182 -0.218622
C113  C     C_1   0.595890 0.683890 0.181667 0.242050
N41   N     N_1   0.649453 0.748178 0.201217 -0.219512
C114  C     C_1   0.086688 0.402514 0.181252 0.242257
N42   N     N_1   0.096545 0.347866 0.200603 -0.219388
C115  C     C_1   0.017108 0.666816 0.661622 0.240756
N43   N     N_1   0.040426 0.742816 0.674946 -0.223671
C116  C     C_1   0.335226 0.337096 0.662511 0.243450
N44   N     N_1   0.257436 0.285425 0.674565 -0.214297
C117  C     C_1   0.624330 0.932711 0.648088 0.236404
N45   N     N_1   0.664656 0.890589 0.656696 -0.232982
C118  C     C_1   0.665636 0.002801 0.162819 0.242202
N46   N     N_1   0.743347 0.028258 0.175179 -0.219759
C119  C     C_1   0.341796 0.334343 0.161960 0.242377
N47   N     N_1   0.291092 0.256416 0.173984 -0.220188
C120  C     C_1   0.995423 0.661403 0.162435 0.242211
N48   N     N_1   0.969059 0.712983 0.174628 -0.220147
C121  C     C_1   0.957801 0.347500 0.832260 0.226983
N49   N     N_1   0.916191 0.271422 0.817549 -0.228235
C122  C     C_1   0.652764 0.597013 0.833737 0.227644
N50   N     N_1   0.727652 0.636095 0.817975 -0.220639
C123  C     C_1   0.408012 0.019821 0.825022 0.228067
N51   N     N_1   0.388543 0.074106 0.810215 -0.226629
C124  C     C_1   0.351841 0.968774 0.329554 0.229766
N52   N     N_1   0.279923 0.942287 0.312098 -0.263668
C125  C     C_1   0.614245 0.647261 0.329720 0.230060
N53   N     N_1   0.658989 0.718893 0.312329 -0.264330
C126  C     C_1   0.029837 0.381898 0.329439 0.229661
N54   N     N_1   0.055902 0.336300 0.311957 -0.264147
C127  C     C_3   0.124073 0.716643 0.824318 -0.269860
C128  C     C_3   0.220076 0.744161 0.803432 -0.411983
H13   H     H_    0.275109 0.745834 0.824163 0.152967
H14   H     H_    0.208203 0.691019 0.780129 0.190164
H15   H     H_    0.249725 0.817862 0.790218 0.174385
H16   H     H_    0.067872 0.711355 0.803402 0.196805
H17   H     H_    0.137817 0.777676 0.844243 0.154419
C129  C     C_3   0.289079 0.347416 0.836373 -0.258643
C130  C     C_3   0.216599 0.382622 0.826195 -0.399263
H18   H     H_    0.192540 0.404675 0.852652 0.142707
H19   H     H_    0.250779 0.446058 0.806154 0.194649
H20   H     H_    0.150705 0.322387 0.811964 0.184456
H21   H     H_    0.304128 0.316511 0.810152 0.189930
H22   H     H_    0.253900 0.285861 0.857300 0.163557
C131  C     C_3   0.551181 0.794253 0.819490 -0.263935
C132  C     C_3   0.477730 0.691452 0.805546 -0.407183
H23   H     H_    0.439770 0.642941 0.830497 0.145752
H24   H     H_    0.421726 0.692682 0.786221 0.195695
H25   H     H_    0.517799 0.661597 0.789210 0.181061
H26   H     H_    0.594271 0.839279 0.794512 0.185446
H27   H     H_    0.605033 0.790116 0.839302 0.160033
C133  C     C_3   0.703646 0.041252 0.338126 -0.278724
C134  C     C_3   0.686373 0.937377 0.333108 -0.385162
H28   H     H_    0.667037 0.898315 0.361265 0.173835
H29   H     H_    0.626367 0.895502 0.312053 0.193120
H30   H     H_    0.754497 0.940644 0.322182 0.179599
H31   H     H_    0.724278 0.080464 0.310082 0.190629
H32   H     H_    0.768441 0.081571 0.357423 0.156546
C135  C     C_3   0.338305 0.296379 0.337667 -0.278846
C136  C     C_3   0.251071 0.313316 0.332549 -0.385549
H33   H     H_    0.230949 0.332324 0.360707 0.173034
H34   H     H_    0.268462 0.373240 0.311613 0.192881
H35   H     H_    0.186898 0.245352 0.321423 0.180047
H36   H     H_    0.357263 0.276046 0.309615 0.190449
H37   H     H_    0.314648 0.231725 0.356849 0.156214
C137  C     C_3   0.958405 0.661475 0.338003 -0.278638
C138  C     C_3   0.062637 0.747307 0.333173 -0.386185
H38   H     H_    0.101695 0.766529 0.361407 0.172406
H39   H     H_    0.104705 0.729170 0.312222 0.192487
H40   H     H_    0.059445 0.812105 0.322205 0.180104
H41   H     H_    0.919185 0.643423 0.309881 0.190548
H42   H     H_    0.917933 0.685932 0.357214 0.155913

loop_
_geom_bond_atom_site_label_1
_geom_bond_atom_site_label_2
_ccdc_geom_bond_type
C25   C31   A    
C100  N28   T    
C32   C129  S    
C26   C32   A    
C97   N25   T    
N1    N7    A    
Cr3   O21   S    
Cr5   O5    S    
C115  N43   T    
C6    C58   S    
C1    O7    A    
C126  N54   T    
C89   C101  S    
C116  N44   T    
C8    N8    A    
Cr4   O16   S    
C25   C43   A    
Cr2   O25   S    
C5    O4    A    
C84   C120  S    
C26   C44   A    
C47   C49   S    
Cr2   O14   S    
C101  N29   T    
C27   C33   A    
C21   C105  S    
C28   C46   A    
C33   C39   A    
C84   C90   A    
C29   C47   A    
C24   C108  S    
C18   C24   A    
C2    O1    A    
C49   O15   A    
C61   H1    S    
C1    C56   S    
C10   N10   A    
C137  H41   S    
C18   C42   A    
C96   N24   A    
C135  C136  S    
N6    N12   A    
C55   C85   A    
C134  H30   S    
C80   C116  S    
C12   N12   A    
C27   C45   A    
Cr5   O17   S    
N18   N24   A    
C87   C99   S    
C38   C92   S    
C5    O11   A    
C16   C124  S    
C59   C89   A    
C13   C121  S    
C2    O8    A    
C61   C67   A    
C39   C93   S    
C80   C86   A    
C11   C77   S    
N15   N21   A    
C10   C76   S    
C135  H36   S    
C8    N14   A    
C48   C51   S    
C66   C72   A    
C63   C69   A    
C70   C112  S    
C79   C115  S    
C12   C78   S    
C34   C133  S    
C72   C78   A    
C57   C87   A    
C71   C113  S    
C131  H26   S    
C67   C73   A    
C32   C38   A    
C15   C123  S    
C129  C130  S    
C130  H18   S    
C26   H8    S    
C13   C37   A    
C25   H7    S    
Cr5   O23   S    
C128  H14   S    
C66   H6    S    
C44   C52   S    
C43   C53   S    
N4    N10   A    
C60   C66   A    
C53   O16   A    
C88   C100  S    
C74   C80   A    
C129  H22   S    
C132  H24   S    
C51   O21   A    
C49   O19   A    
C109  N37   T    
C93   N3    A    
C7    N7    A    
C96   N6    A    
C50   O13   A    
C8    C74   S    
C82   C118  S    
C20   C44   A    
C19   C43   A    
C46   C50   S    
C57   C63   A    
C20   C104  S    
C21   C45   A    
C133  H31   S    
C134  H29   S    
C131  C132  S    
C58   C64   A    
C83   C89   A    
C119  N47   T    
N16   N22   A    
C95   N23   A    
C23   C47   A    
C28   C34   A    
C37   C91   S    
C110  N38   T    
C24   C48   A    
C99   N27   T    
Cr2   O20   S    
C1    O3    A    
C7    C73   S    
C76   C82   A    
C98   N26   T    
C138  H39   S    
C18   C126  S    
C13   C19   A    
C75   C81   A    
C133  H32   S    
C112  N40   T    
Cr2   O8    S    
C136  H35   S    
C95   N5    A    
C123  N51   T    
C121  N49   T    
C90   C102  S    
C127  H17   S    
C62   H2    S    
C28   H10   S    
C118  N46   T    
C11   N17   A    
Cr1   O19   S    
C105  N33   T    
C122  N50   T    
C10   N16   A    
C106  N34   T    
C22   C106  S    
C33   C131  S    
N14   N20   A    
C14   C38   A    
C125  N53   T    
C130  H19   S    
Cr4   O22   S    
C136  H34   S    
C120  N48   T    
Cr6   O6    S    
Cr1   O13   S    
Cr6   O24   S    
C69   C111  S    
C127  C128  S    
C73   C79   A    
Cr4   O26   S    
C17   C23   A    
C56   C86   A    
C135  H37   S    
C92   N2    A    
C15   C39   A    
C81   C87   A    
N2    N8    A    
C91   N19   A    
C16   C40   A    
Cr3   O25   S    
N5    N11   A    
C22   C46   A    
Cr6   O12   S    
C45   C54   S    
C103  N31   T    
C64   C70   A    
C31   C127  S    
C70   C76   A    
C129  H21   S    
C42   C96   S    
C9    N15   A    
C83   C119  S    
C63   H3    S    
Cr3   O15   S    
C52   O18   A    
C137  H42   S    
Cr6   O18   S    
C19   C103  S    
C71   C77   A    
Cr1   O1    S    
C35   C135  S    
C81   C117  S    
C30   H12   S    
C14   C20   A    
C30   C48   A    
C128  H13   S    
C54   O17   A    
C117  N45   T    
C133  C134  S    
C16   C22   A    
C12   N18   A    
C5    C60   S    
C11   N11   A    
Cr1   O7    S    
Cr3   O3    S    
Cr5   O26   S    
C92   N20   A    
C86   C98   S    
N13   N19   A    
C77   C83   A    
C40   C94   S    
C137  C138  S    
C93   N21   A    
C50   O20   A    
C58   C88   A    
C36   C42   A    
C4    O6    A    
C138  H40   S    
C134  H28   S    
C67   C109  S    
C64   H4    S    
C60   C90   A    
C54   O24   A    
C128  H15   S    
C51   O14   A    
C29   C35   A    
C3    C55   S    
C127  H16   S    
C68   C110  S    
C30   C36   A    
C131  H27   S    
C85   C97   S    
C136  H33   S    
C124  N52   T    
N3    N9    A    
Cr3   O9    S    
C108  N36   T    
C102  N30   T    
C65   C71   A    
C3    O9    A    
C59   C65   A    
C72   C114  S    
C94   N4    A    
C53   O23   A    
C107  N35   T    
C41   C95   S    
Cr4   O10   S    
C82   C88   A    
C55   C61   A    
C4    C59   S    
Cr5   O11   S    
C132  H23   S    
C9    N9    A    
C79   C85   A    
C91   N1    A    
C14   C122  S    
C69   C75   A    
C56   C62   A    
C62   C68   A    
C132  H25   S    
C113  N41   T    
C35   C41   A    
C130  H20   S    
C17   C41   A    
C78   C84   A    
C17   C125  S    
C114  N42   T    
C27   H9    S    
C104  N32   T    
C6    O12   A    
C31   C37   A    
C15   C21   A    
C23   C107  S    
Cr6   O26   S    
C111  N39   T    
C29   H11   S    
C138  H38   S    
Cr2   O2    S    
C34   C40   A    
C94   N22   A    
Cr4   O4    S    
C3    O2    A    
C9    C75   S    
C2    C57   S    
C7    N13   A    
C6    O5    A    
C68   C74   A    
C52   O22   A    
C65   H5    S    
C36   C137  S    
Cr1   O25   S    
N17   N23   A    
C4    O10   A    
