data_mof_unit_42972.cif
_audit_creation_date              2012-12-11T15:45:04-0500
_audit_creation_method            fapswitch 2.2
_symmetry_space_group_name_H-M    P1
_symmetry_Int_Tables_number       1
_space_group_crystal_system       triclinic
_cell_length_a                    6.9214
_cell_length_b                    16.893535
_cell_length_c                    17.076153
_cell_angle_alpha                 100.582639
_cell_angle_beta                  89.369987
_cell_angle_gamma                 90.474393
_cell_volume                      1962.54226539

loop_
_atom_site_label
_atom_site_type_symbol
_atom_type_description
_atom_site_fract_x
_atom_site_fract_y
_atom_site_fract_z
_atom_type_partial_charge
O1    O     O_R   0.494370 0.415690 0.413450 -0.546943
O2    O     O_R   0.819420 0.429360 0.578420 -0.529466
O3    O     O_R   0.994280 0.584310 0.586550 -0.547333
C1    C     C_R   0.648359 0.411393 0.603177 0.735245
O4    O     O_R   0.823790 0.406230 0.413570 -0.536440
O5    O     O_R   0.998670 0.561000 0.420530 -0.545260
C2    C     C_R   0.655246 0.383366 0.384818 0.710185
O6    O     O_R   0.489970 0.439000 0.579470 -0.547979
O7    O     O_3   0.662300 0.550810 0.502470 -0.361980
V1    V     V_3+5 0.935380 0.490570 0.499540 1.473635
O8    O     O_R   0.328650 0.570640 0.421580 -0.528036
C3    C     C_R   0.159223 0.588333 0.396455 0.744738
O9    O     O_R   0.324290 0.593770 0.586430 -0.536202
C4    C     C_R   0.154931 0.617013 0.615040 0.698858
V2    V     V_3+5 0.435930 0.509430 0.500460 1.475582
O10   O     O_3   0.159140 0.449190 0.497530 -0.364892
C5    C     C_R   0.312266 0.724019 0.717316 -0.128535
H1    H     H_    0.453306 0.704914 0.693372 0.122749
C6    C     C_R   0.301231 0.787778 0.782450 -0.146171
H2    H     H_    0.434271 0.815929 0.806521 0.119606
C7    C     C_R   0.121300 0.814829 0.815890 -0.049796
C8    C     C_R   0.952711 0.776379 0.782231 -0.150301
H3    H     H_    0.811660 0.795498 0.806150 0.116716
C9    C     C_R   0.963746 0.712617 0.717108 -0.141357
H4    H     H_    0.830699 0.684476 0.693031 0.119537
C10   C     C_R   0.143683 0.685498 0.683735 -0.042137
C11   C     C_R   0.138188 0.643502 0.337419 -0.150642
C12   C     C_R   0.125069 0.866790 0.170001 -0.070605
C13   C     C_R   0.310916 0.841481 0.283737 -0.036940
C14   C     C_R   0.273499 0.887078 0.225065 -0.208646
C15   C     C_R   0.009390 0.799782 0.174806 -0.231359
C16   C     C_R   0.049590 0.749170 0.230494 0.128823
C17   C     C_R   0.209200 0.767319 0.283745 0.026382
C18   C     C_R   0.259375 0.711177 0.334274 -0.080328
C19   C     C_R   0.977858 0.630040 0.286917 -0.184430
C20   C     C_R   0.933548 0.680482 0.233410 0.160402
H5    H     H_    0.885366 0.578282 0.288738 0.127123
H6    H     H_    0.357311 0.941513 0.224165 0.115425
H7    H     H_    0.893574 0.785856 0.132379 0.132917
C21   C     C_R   0.626554 0.355701 0.661595 -0.088755
C22   C     C_R   0.640094 0.136499 0.832507 -0.069173
C23   C     C_R   0.843826 0.175736 0.728337 -0.179748
C24   C     C_R   0.804890 0.125544 0.782959 -0.138273
C25   C     C_R   0.511856 0.198588 0.825176 -0.228654
C26   C     C_R   0.551565 0.250555 0.770774 0.164234
C27   C     C_R   0.720038 0.239948 0.721758 0.081897
C28   C     C_R   0.757377 0.292151 0.666254 -0.082151
C29   C     C_R   0.462008 0.364741 0.711690 -0.197243
C30   C     C_R   0.424890 0.313117 0.765083 -0.197301
H8    H     H_    0.359597 0.412430 0.709512 0.125857
H9    H     H_    0.972616 0.163528 0.691866 0.123234
H10   H     H_    0.295743 0.322180 0.802030 0.116806
H11   H     H_    0.905941 0.077751 0.786678 0.131051
H12   H     H_    0.384743 0.207990 0.863337 0.117634
C31   C     C_R   0.796378 0.261637 0.295940 -0.130907
H13   H     H_    0.925398 0.267192 0.331922 0.152329
C32   C     C_R   0.782228 0.198052 0.230909 -0.192115
H14   H     H_    0.900511 0.155864 0.219295 0.130242
C33   C     C_R   0.617219 0.187825 0.182346 -0.062424
C34   C     C_R   0.464409 0.244520 0.200591 0.160109
C35   C     C_R   0.479532 0.307022 0.267174 -0.147161
H15   H     H_    0.362597 0.349768 0.280926 0.116048
C36   C     C_R   0.644174 0.316222 0.315313 -0.085594
O11   O     O_R   0.774880 0.061150 0.920630 -0.540160
O12   O     O_R   0.440980 0.093710 0.086500 -0.540207
O13   O     O_R   0.266190 0.938890 0.079390 -0.538015
C37   C     C_R   0.609129 0.118038 0.114291 0.695159
O14   O     O_R   0.445420 0.070740 0.921670 -0.540312
O15   O     O_R   0.270660 0.915760 0.913380 -0.539764
C38   C     C_R   0.616442 0.086217 0.894945 0.702422
O16   O     O_R   0.770400 0.084270 0.086640 -0.541644
O17   O     O_3   0.602590 0.949210 0.997500 -0.368480
V3    V     V_3+5 0.329470 0.009420 0.000470 1.405286
O18   O     O_R   0.940650 0.906250 0.913470 -0.545018
C39   C     C_R   0.110025 0.883146 0.884760 0.688323
O19   O     O_R   0.936210 0.929220 0.078300 -0.541976
C40   C     C_R   0.105384 0.914358 0.105432 0.706026
V4    V     V_3+5 0.828930 0.990510 0.999490 1.404426
O20   O     O_3   0.105680 0.050790 0.002500 -0.368609
C41   C     C_2   0.927155 0.277638 0.611716 0.383831
H16   H     H_    0.069528 0.270277 0.635264 0.042645
O21   O     O_2   0.907891 0.271000 0.539807 -0.518081
C42   C     C_3   0.286661 0.242018 0.149725 -0.754903
H17   H     H_    0.329321 0.241468 0.086745 0.200534
H18   H     H_    0.198474 0.187913 0.154140 0.219562
H19   H     H_    0.193121 0.295308 0.169057 0.189340
C43   C     C_2   0.442988 0.719535 0.378995 0.479481
H20   H     H_    0.578047 0.726639 0.348110 0.021258
O22   O     O_2   0.443765 0.722746 0.451020 -0.494920
C44   C     C_2   0.444272 0.879755 0.346898 0.382315
H21   H     H_    0.578760 0.906508 0.330857 0.045522
O23   O     O_2   0.398275 0.887260 0.417091 -0.485139
C45   C     C_3   0.758115 0.660338 0.181355 -0.833722
H22   H     H_    0.680817 0.605893 0.193458 0.204997
H23   H     H_    0.654515 0.711133 0.192594 0.204180
H24   H     H_    0.802607 0.648559 0.117634 0.213555

loop_
_geom_bond_atom_site_label_1
_geom_bond_atom_site_label_2
_ccdc_geom_bond_type
C21   C28   A    
C43   H20   S    
C45   H22   S    
C19   C20   A    
C1    O6    A    
C44   H21   S    
C15   C16   A    
C26   C27   A    
C5    C10   A    
C16   C20   A    
C6    C7    A    
O19   V4    S    
O5    C3    A    
C34   C42   S    
C32   C33   A    
V2    O10   S    
C13   C17   A    
O12   V3    S    
C14   H6    S    
C23   C27   A    
C35   C36   A    
O17   V4    S    
C33   C37   S    
O8    V2    S    
C20   C45   S    
C24   H11   S    
C1    C21   S    
O12   C37   A    
C31   C36   A    
O15   V3    S    
O1    V2    S    
O11   C38   A    
O7    V1    S    
C23   H9    S    
C29   H8    S    
C33   C34   A    
C45   H23   S    
O9    C4    A    
C22   C24   A    
C28   C41   S    
C13   C44   S    
C5    H1    S    
C11   C18   A    
O18   C39   A    
C3    C11   S    
C9    H4    S    
C41   O21   D    
O4    C2    A    
V4    O20   S    
C41   H16   S    
C11   C19   A    
O14   V3    S    
O13   V3    S    
C4    C10   S    
C34   C35   A    
O2    C1    A    
C13   C14   A    
C44   O23   D    
C42   H17   S    
C26   C30   A    
C30   H10   S    
C31   H13   S    
C17   C18   A    
V3    O20   S    
O19   C40   A    
C12   C40   S    
C2    C36   S    
O3    C4    A    
C29   C30   A    
C42   H18   S    
O6    V2    S    
C31   C32   A    
C22   C25   A    
C8    C9    A    
C23   C24   A    
O2    V1    S    
C25   C26   A    
C21   C29   A    
O13   C40   A    
C27   C28   A    
C19   H5    S    
O1    C2    A    
O11   V4    S    
C12   C15   A    
C9    C10   A    
O17   V3    S    
O5    V1    S    
O8    C3    A    
C45   H24   S    
C7    C39   S    
C16   C17   A    
C6    H2    S    
O9    V2    S    
O7    V2    S    
O4    V1    S    
O3    V1    S    
V1    O10   S    
C32   H14   S    
C12   C14   A    
C5    C6    A    
C15   H7    S    
O15   C39   A    
C37   O16   A    
C18   C43   S    
C35   H15   S    
C25   H12   S    
C42   H19   S    
O14   C38   A    
O18   V4    S    
C43   O22   D    
C8    H3    S    
C7    C8    A    
O16   V4    S    
C22   C38   S    
