data_mof_unit_8393.cif
_audit_creation_date              2012-12-11T14:50:34-0500
_audit_creation_method            fapswitch 2.2
_symmetry_space_group_name_H-M    P1
_symmetry_Int_Tables_number       1
_space_group_crystal_system       triclinic
_cell_length_a                    10.871598
_cell_length_b                    10.906902
_cell_length_c                    18.852955
_cell_angle_alpha                 90.468412
_cell_angle_beta                  89.969739
_cell_angle_gamma                 60.296457
_cell_volume                      1941.66338374

loop_
_atom_site_label
_atom_site_type_symbol
_atom_type_description
_atom_site_fract_x
_atom_site_fract_y
_atom_site_fract_z
_atom_type_partial_charge
C1    C     C_R   0.236559 0.646206 0.609683 0.542868
C2    C     C_3   0.689452 0.538169 0.799823 -0.246133
C3    C     C_3   0.698026 0.673253 0.812803 0.049263
C4    C     C_3   0.667945 0.646019 0.677524 0.050689
C5    C     C_3   0.805163 0.651959 0.689791 -0.247382
C6    C     C_3   0.674971 0.520401 0.720010 -0.212418
C7    C     C_R   0.788761 0.156155 0.708754 -0.151248
C8    C     C_R   0.801584 0.139376 0.782512 -0.151552
C9    C     C_R   0.688540 0.146869 0.822006 0.026094
C10   C     C_R   0.565593 0.168769 0.786865 -0.127048
C11   C     C_R   0.556383 0.176901 0.714937 -0.149950
C12   C     C_R   0.652402 0.620542 0.602039 0.541924
C13   C     C_R   0.664589 0.176404 0.674996 0.020859
C14   C     C_R   0.209029 0.544552 0.721884 -0.151675
C15   C     C_R   0.200951 0.548780 0.796053 0.025770
C16   C     C_R   0.171874 0.675187 0.832046 0.002430
C17   C     C_R   0.159698 0.789893 0.792972 -0.168962
C18   C     C_R   0.166259 0.784572 0.720101 -0.156692
C19   C     C_R   0.192690 0.661749 0.683832 -0.004566
C20   C     C_R   0.730147 0.526234 0.271726 -0.123078
C21   C     C_R   0.728948 0.538989 0.199061 -0.128392
C22   C     C_R   0.651220 0.671729 0.167956 0.030584
C23   C     C_R   0.628573 0.228033 0.602836 0.540614
C24   C     C_R   0.562397 0.789638 0.210464 -0.128418
C25   C     C_R   0.559387 0.775514 0.283962 -0.132775
C26   C     C_R   0.647593 0.644245 0.315087 0.034335
C27   C     C_R   0.540749 0.162477 0.286900 -0.137108
C28   C     C_R   0.541113 0.157386 0.214192 -0.137717
C29   C     C_R   0.651055 0.158550 0.176234 0.039137
C30   C     C_R   0.757344 0.171523 0.211797 -0.145411
C31   C     C_R   0.756002 0.178401 0.285024 -0.146697
C32   C     C_R   0.645788 0.177184 0.322723 0.037917
C33   C     C_R   0.088914 0.803041 0.304863 -0.135640
C34   C     C_R   0.219151 0.649440 0.402322 0.550366
C35   C     C_R   0.070315 0.815240 0.232838 -0.122364
C36   C     C_R   0.108135 0.694952 0.190447 0.038002
C37   C     C_R   0.153028 0.563928 0.221427 -0.137195
C38   C     C_R   0.174090 0.551084 0.294055 -0.128134
C39   C     C_R   0.149626 0.669766 0.334999 0.031730
C40   C     C_R   0.702705 0.100099 0.895366 0.555280
C41   C     C_R   0.722886 0.687659 0.888401 0.537130
C42   C     C_R   0.117499 0.706729 0.905016 0.567715
C43   C     C_R   0.674403 0.108087 0.103953 0.553213
C44   C     C_R   0.694115 0.690114 0.097250 0.544330
C45   C     C_R   0.640140 0.619861 0.390607 0.549459
C46   C     C_R   0.082965 0.715247 0.115413 0.555921
C47   C     C_R   0.617680 0.228074 0.394996 0.548141
C48   C     C_3   0.559042 0.802091 0.785708 -0.233639
C49   C     C_3   0.540346 0.785013 0.706122 -0.236088
C50   C     C_3   0.824509 0.664896 0.769729 -0.221133
Cr1   Cr    Cr6+3 0.392930 0.397900 0.502230 1.011883
Cr2   Cr    Cr6+3 0.398240 0.708600 0.501260 1.013420
Cr3   Cr    Cr6+3 0.708800 0.393470 0.496460 1.009766
Cr4   Cr    Cr6+3 0.937620 0.938540 0.007640 1.014078
Cr5   Cr    Cr6+3 0.625150 0.937450 0.994520 1.028349
Cr6   Cr    Cr6+3 0.937990 0.625080 0.001190 1.058003
H1    H     H_    0.562474 0.901384 0.794228 0.143078
H2    H     H_    0.767817 0.419584 0.702132 0.148623
H3    H     H_    0.925249 0.571750 0.786510 0.175768
H4    H     H_    0.898550 0.554986 0.668471 0.145609
H5    H     H_    0.873490 0.156280 0.678584 0.123238
H6    H     H_    0.898926 0.118917 0.808159 0.123131
H7    H     H_    0.477265 0.171046 0.814357 0.178452
H8    H     H_    0.459268 0.191208 0.691390 0.148745
H9    H     H_    0.235046 0.447297 0.694038 0.161833
H10   H     H_    0.137524 0.888301 0.818283 0.140344
H11   H     H_    0.466185 0.811942 0.815631 0.124311
H12   H     H_    0.155294 0.876030 0.692320 0.136570
H13   H     H_    0.795910 0.422670 0.293834 0.131919
H14   H     H_    0.797343 0.446045 0.167612 0.127370
H15   H     H_    0.501899 0.893458 0.187551 0.127323
H16   H     H_    0.491385 0.866926 0.316379 0.119002
H17   H     H_    0.453875 0.161702 0.314701 0.125807
H18   H     H_    0.458662 0.145732 0.188125 0.126291
H19   H     H_    0.844186 0.170846 0.183244 0.115839
H20   H     H_    0.838126 0.189288 0.311885 0.115020
H21   H     H_    0.066655 0.895877 0.335978 0.125719
H22   H     H_    0.439776 0.783291 0.698256 0.148384
H23   H     H_    0.028578 0.919226 0.210315 0.138068
H24   H     H_    0.176944 0.471660 0.189474 0.124131
H25   H     H_    0.220030 0.446846 0.316932 0.134698
H26   H     H_    0.531761 0.877134 0.676825 0.122376
H27   H     H_    0.834126 0.760476 0.780175 0.120139
H28   H     H_    0.799648 0.743877 0.661662 0.116865
H29   H     H_    0.786227 0.444016 0.819835 0.145693
H30   H     H_    0.596862 0.544917 0.828659 0.124272
H31   H     H_    0.578294 0.512068 0.710230 0.128858
O1    O     O_R   0.507430 0.255570 0.581420 -0.529022
O2    O     O_R   0.524460 0.695920 0.424060 -0.499644
O3    O     O_R   0.736530 0.504260 0.414810 -0.526145
O4    O     O_R   0.691460 0.277160 0.422180 -0.509251
O5    O     O_3   0.499990 0.499990 0.499980 -0.245965
O6    O     O_R   0.089490 0.825610 0.930610 -0.533116
O7    O     O_R   0.818370 0.054540 0.929880 -0.508721
O8    O     O_R   0.605870 0.077310 0.915530 -0.510512
O9    O     O_R   0.646440 0.806700 0.917570 -0.513923
O10   O     O_R   0.837200 0.593290 0.915250 -0.516536
O11   O     O_R   0.065330 0.635370 0.931590 -0.462751
O12   O     O_R   0.280190 0.527390 0.578910 -0.508756
O13   O     O_R   0.068300 0.828790 0.091860 -0.528785
O14   O     O_R   0.798730 0.057480 0.079370 -0.512400
O15   O     O_R   0.584680 0.080480 0.076790 -0.517190
O16   O     O_R   0.626790 0.809640 0.067050 -0.505663
O17   O     O_R   0.816010 0.596460 0.076500 -0.522028
O18   O     O_R   0.045680 0.638310 0.081070 -0.495791
O19   O     O_3   0.833590 0.833690 0.001120 -0.261477
O20   O     O_R   0.260310 0.739740 0.584580 -0.528659
O21   O     O_R   0.532250 0.695150 0.573830 -0.508505
O22   O     O_R   0.744930 0.503430 0.576380 -0.526175
O23   O     O_R   0.699250 0.276390 0.571950 -0.508384
O24   O     O_R   0.499020 0.256400 0.419850 -0.528518
O25   O     O_R   0.272400 0.528160 0.429140 -0.507907
O26   O     O_R   0.251910 0.740570 0.423020 -0.520145
C51   C     C_2   0.225799 0.419281 0.833407 0.554874
O27   O     O_2   0.283900 0.390217 0.891243 -0.510705
O28   O     O_R   0.187014 0.327549 0.801146 -0.750784
H32   H     H_    0.209932 0.242545 0.831442 0.327255

loop_
_geom_bond_atom_site_label_1
_geom_bond_atom_site_label_2
_ccdc_geom_bond_type
Cr3   O23   S    
Cr1   O25   S    
C42   O6    A    
C34   O25   A    
C6    H2    S    
Cr4   O14   S    
C35   C36   A    
Cr6   O11   S    
C28   H18   S    
C1    O12   A    
C51   O27   D    
C44   O17   A    
C7    C8    A    
Cr2   O26   S    
O28   H32   S    
C34   O26   A    
Cr5   O15   S    
C17   H10   S    
C33   C39   A    
C50   H3    S    
C28   C29   A    
C37   C38   A    
C42   O11   A    
C38   C39   A    
C41   O9    A    
C18   H12   S    
C15   C16   A    
C46   O18   A    
Cr5   O16   S    
C3    C48   S    
C49   H22   S    
C13   C23   S    
C2    H29   S    
C18   C19   A    
C7    H5    S    
Cr4   O6    S    
C26   C45   S    
C3    C50   S    
C22   C44   S    
C10   H7    S    
Cr2   O20   S    
C8    C9    A    
Cr3   O4    S    
C36   C46   S    
C4    C12   S    
C45   O2    A    
C9    C10   A    
C21   C22   A    
C29   C43   S    
Cr4   O13   S    
Cr2   O2    S    
C2    C6    S    
Cr6   O10   S    
C12   O22   A    
C44   O16   A    
C50   H27   S    
Cr1   O12   S    
C37   H24   S    
C1    C19   S    
Cr4   O19   S    
Cr5   O19   S    
C34   C39   S    
C48   H1    S    
C24   C25   A    
Cr6   O17   S    
Cr5   O8    S    
C11   H8    S    
C12   O21   A    
C5    H28   S    
C16   C17   A    
C25   C26   A    
C9    C40   S    
C6    H31   S    
C49   H26   S    
C43   O14   A    
C29   C30   A    
Cr1   O5    S    
C31   C32   A    
C7    C13   A    
Cr3   O5    S    
C17   C18   A    
C15   C51   S    
C25   H16   S    
C45   O3    A    
Cr6   O19   S    
C1    O20   A    
C4    C6    S    
C48   C49   S    
C23   O1    A    
C38   H25   S    
C32   C47   S    
C22   C24   A    
C20   H13   S    
Cr2   O5    S    
C40   O8    A    
C16   C42   S    
C27   C28   A    
Cr3   O22   S    
C23   O23   A    
C46   O13   A    
C36   C37   A    
Cr1   O24   S    
C5    H4    S    
C27   C32   A    
C47   O4    A    
C14   C19   A    
C40   O7    A    
Cr5   O9    S    
Cr1   O1    S    
C51   O28   S    
C21   H14   S    
C4    C49   S    
C2    C3    S    
C43   O15   A    
C30   H19   S    
C11   C13   A    
C33   H21   S    
C31   H20   S    
C30   C31   A    
C20   C26   A    
C47   O24   A    
C35   H23   S    
C33   C35   A    
C14   H9    S    
C2    H30   S    
C41   O10   A    
C48   H11   S    
C5    C50   S    
Cr6   O18   S    
Cr4   O7    S    
C3    C41   S    
C10   C11   A    
C4    C5    S    
C20   C21   A    
Cr2   O21   S    
Cr3   O3    S    
C14   C15   A    
C27   H17   S    
C24   H15   S    
C8    H6    S    
