data_mof_unit_35745.cif
_audit_creation_date              2012-12-11T15:41:20-0500
_audit_creation_method            fapswitch 2.2
_symmetry_space_group_name_H-M    P1
_symmetry_Int_Tables_number       1
_space_group_crystal_system       triclinic
_cell_length_a                    14.80134
_cell_length_b                    14.894266
_cell_length_c                    14.950199
_cell_angle_alpha                 109.040826
_cell_angle_beta                  109.803185
_cell_angle_gamma                 108.958105
_cell_volume                      2555.98653777

loop_
_atom_site_label
_atom_site_type_symbol
_atom_type_description
_atom_site_fract_x
_atom_site_fract_y
_atom_site_fract_z
_atom_type_partial_charge
C1    C     C_R   0.194258 0.994813 0.903633 -0.142134
C2    C     C_R   0.747151 0.932215 0.025035 -0.100969
C3    C     C_R   0.804134 0.326421 0.325915 0.050356
C4    C     C_R   0.133409 0.700476 0.699645 0.039391
C5    C     C_R   0.496575 0.038458 0.324636 0.057340
C6    C     C_R   0.497757 0.064840 0.697553 0.058760
C7    C     C_R   0.491005 0.323765 0.031801 0.082327
C8    C     C_R   0.502197 0.704851 0.077447 0.086000
C9    C     C_R   0.122995 0.239023 0.773107 -0.198875
C10   C     C_R   0.830431 0.899911 0.414784 -0.237853
C11   C     C_R   0.235306 0.310232 0.847137 0.309135
C12   C     C_R   0.724489 0.809934 0.343132 0.307719
C13   C     C_R   0.276862 0.341071 0.958661 -0.033977
C14   C     C_R   0.706333 0.720936 0.253107 0.005479
C15   C     C_R   0.205098 0.297345 0.993553 -0.241530
C16   C     C_R   0.795961 0.724304 0.237925 -0.281970
C17   C     C_R   0.092995 0.225661 0.918745 -0.198428
C18   C     C_R   0.901252 0.814147 0.310334 -0.189793
C19   C     C_R   0.051631 0.198277 0.808953 0.335564
C20   C     C_R   0.918646 0.901883 0.398839 0.367777
C21   C     C_R   0.398106 0.534720 0.069476 -0.172161
C22   C     C_R   0.587031 0.521368 0.156316 -0.236061
C23   C     C_R   0.771395 0.223555 0.314955 -0.128605
C24   C     C_R   0.196938 0.792333 0.700101 -0.115865
C25   C     C_R   0.500447 0.625748 0.116759 0.096722
C26   C     C_R   0.486937 0.425274 0.077116 0.070369
C27   C     C_R   0.596060 0.622949 0.175716 0.104782
C28   C     C_R   0.389125 0.432673 0.040556 0.092265
C29   C     C_R   0.891762 0.526943 0.425980 -0.157453
C30   C     C_R   0.971789 0.523555 0.621950 -0.146359
C31   C     C_R   0.971223 0.622649 0.521553 -0.145189
C32   C     C_R   0.892477 0.427831 0.526405 -0.151467
C33   C     C_R   0.020576 0.618364 0.617076 0.125902
C34   C     C_R   0.861825 0.428014 0.427024 0.135110
C35   C     C_R   0.594930 0.154973 0.620101 -0.117801
C36   C     C_R   0.395075 0.044252 0.425948 -0.146476
C37   C     C_R   0.594416 0.148052 0.525520 -0.121334
C38   C     C_R   0.395484 0.051917 0.520622 -0.112549
C39   C     C_R   0.495058 0.081668 0.426168 0.121144
C40   C     C_R   0.495878 0.096539 0.614918 0.119096
C41   C     C_R   0.963175 0.838588 0.940343 -0.159068
C42   C     C_R   0.864590 0.933383 0.836775 -0.132739
C43   C     C_R   0.870805 0.839915 0.942143 -0.141425
C44   C     C_R   0.957419 0.932604 0.835243 -0.147573
C45   C     C_R   0.405662 0.967817 0.221287 -0.108394
C46   C     C_R   0.590178 0.095246 0.790812 -0.112432
C47   C     C_R   0.829755 0.899233 0.901814 0.119295
C48   C     C_R   0.013789 0.895795 0.897341 0.115059
C49   C     C_R   0.586157 0.314945 0.049008 -0.121613
C50   C     C_R   0.410032 0.703718 0.009292 -0.063381
C51   C     C_R   0.589499 0.052765 0.314954 -0.076430
C52   C     C_R   0.407037 0.001703 0.699158 -0.100342
C53   C     C_R   0.402986 0.219421 0.964373 -0.086896
C54   C     C_R   0.592476 0.794100 0.100104 -0.126376
C55   C     C_R   0.770368 0.314871 0.222865 -0.125096
C56   C     C_R   0.197187 0.700650 0.791910 -0.094948
C57   C     C_R   0.195613 0.904153 0.995485 -0.136865
C58   C     C_R   0.747535 0.024475 0.933162 -0.123531
C59   C     C_R   0.130252 0.932037 0.932287 0.057306
C60   C     C_R   0.772121 0.945804 0.947147 0.041862
H1    H     H_    0.165528 0.017592 0.842380 0.109084
H2    H     H_    0.756279 0.878326 0.056715 0.098968
H3    H     H_    0.090559 0.218134 0.688215 0.214479
H4    H     H_    0.844367 0.968173 0.483384 0.221576
H5    H     H_    0.235339 0.321871 0.079176 0.164388
H6    H     H_    0.784127 0.657306 0.169409 0.153929
H7    H     H_    0.037816 0.194337 0.946759 0.158586
H8    H     H_    0.969333 0.815401 0.297629 0.154172
H9    H     H_    0.861631 0.530727 0.351312 0.109543
H10   H     H_    0.002373 0.519463 0.696367 0.115250
H11   H     H_    0.001440 0.696582 0.516934 0.122156
H12   H     H_    0.862941 0.353618 0.530696 0.116047
H13   H     H_    0.673685 0.196635 0.693530 0.130452
H14   H     H_    0.316485 0.999435 0.351745 0.116769
H15   H     H_    0.672675 0.185880 0.529577 0.118039
H16   H     H_    0.317080 0.012455 0.515612 0.138817
H17   H     H_    0.000170 0.802693 0.982903 0.108761
H18   H     H_    0.828218 0.971340 0.796999 0.171019
H19   H     H_    0.798474 0.203780 0.378576 0.101243
H20   H     H_    0.170379 0.824878 0.647679 0.101600
H21   H     H_    0.840544 0.805171 0.985971 0.113624
H22   H     H_    0.990008 0.970439 0.794528 0.150877
H23   H     H_    0.319800 0.935804 0.197956 0.093370
H24   H     H_    0.673912 0.155767 0.823080 0.100218
H25   H     H_    0.668234 0.381064 0.088016 0.087902
H26   H     H_    0.325063 0.654099 0.984128 0.084058
H27   H     H_    0.672251 0.091072 0.380203 0.104571
H28   H     H_    0.321677 0.975145 0.647134 0.109438
H29   H     H_    0.316821 0.191713 0.933234 0.117749
H30   H     H_    0.677445 0.828223 0.158692 0.112524
H31   H     H_    0.795317 0.377870 0.202206 0.086228
H32   H     H_    0.171090 0.648539 0.824418 0.086892
H33   H     H_    0.169002 0.843143 0.018625 0.085299
H34   H     H_    0.757599 0.056495 0.879997 0.118608
N1    N     N_R   0.293810 0.002730 0.945950 -0.043857
N2    N     N_R   0.706190 0.997270 0.054050 -0.043316
N3    N     N_R   0.706160 0.152130 0.208910 -0.042190
N4    N     N_R   0.293840 0.847870 0.791090 -0.040716
N5    N     N_R   0.443140 0.945920 0.152090 -0.045119
N6    N     N_R   0.556860 0.054080 0.847910 -0.044938
N7    N     N_R   0.556830 0.208940 0.002760 -0.045335
N8    N     N_R   0.443170 0.791060 0.997240 -0.047070
N9    N     N_R   0.556790 0.002750 0.208910 -0.043819
N10   N     N_R   0.443210 0.997250 0.791090 -0.043126
N11   N     N_R   0.443180 0.152110 0.945950 -0.047486
N12   N     N_R   0.556820 0.847890 0.054050 -0.046959
N13   N     N_R   0.706170 0.208950 0.152090 -0.041064
N14   N     N_R   0.293830 0.791050 0.847910 -0.041701
N15   N     N_R   0.293800 0.945910 0.002760 -0.042342
N16   N     N_R   0.706200 0.054090 0.997240 -0.044281
Ni1   Ni    Ni4+2 0.369690 0.999990 0.869700 0.229301
Ni2   Ni    Ni4+2 0.630310 0.000010 0.130300 0.234540
Ni3   Ni    Ni4+2 0.369670 0.869670 0.000000 0.214351
Ni4   Ni    Ni4+2 0.630330 0.130330 0.000000 0.220723
Br1   Br    Br    0.328265 0.367973 0.794011 -0.527056
Br2   Br    Br    0.608964 0.811873 0.373608 -0.539932
H35   H     H_    0.322914 0.538512 0.037840 0.123674
H36   H     H_    0.660505 0.517884 0.197888 0.127074
Br3   Br    Br    0.896953 0.111496 0.708860 -0.635744
Br4   Br    Br    0.063304 0.023738 0.498614 -0.584650

loop_
_geom_bond_atom_site_label_1
_geom_bond_atom_site_label_2
_ccdc_geom_bond_type
N5    N9    A    
C8    C25   S    
C3    C23   A    
C32   H12   S    
N12   Ni2   S    
N2    Ni2   S    
C7    C26   S    
C24   N4    A    
C35   C37   A    
C54   H30   S    
C44   H22   S    
C1    C59   A    
C41   H17   S    
C4    C24   A    
C2    C60   A    
C57   C59   A    
C58   C60   A    
C15   H5    S    
N6    N10   A    
N4    N14   A    
C22   H36   S    
C56   N14   A    
C21   H35   S    
C47   C60   S    
C3    C55   A    
C24   H20   S    
C57   N15   A    
C10   C20   A    
C55   H31   S    
C31   C33   A    
C13   C28   S    
C14   C27   S    
C11   Br1   S    
N16   Ni4   S    
C18   C20   A    
N15   Ni3   S    
C31   H11   S    
N11   Ni1   S    
C19   Br3   S    
C38   C40   A    
C58   N16   A    
C4    C56   A    
C29   C31   A    
N7    Ni4   S    
C41   C43   A    
C45   H23   S    
C42   C44   A    
C30   H10   S    
C9    C19   A    
C29   H9    S    
N7    N11   A    
C17   H7    S    
C54   N12   A    
C49   H25   S    
C52   H28   S    
N6    Ni4   S    
C7    C49   A    
C45   N5    A    
C51   N9    A    
C8    C54   A    
N3    Ni2   S    
C38   H16   S    
C3    C34   S    
N2    N16   A    
C29   C34   A    
C55   N13   A    
N9    Ni2   S    
C35   H13   S    
C32   C34   A    
N14   Ni3   S    
N13   Ni4   S    
C46   N6    A    
C1    N1    A    
C9    C11   A    
C10   C12   A    
C46   H24   S    
C23   N3    A    
C21   C28   A    
C12   C14   A    
C42   H18   S    
C22   C27   A    
C13   C15   A    
C53   H29   S    
C43   H21   S    
C14   C16   A    
C16   H6    S    
C7    C53   A    
C51   H27   S    
C36   C38   A    
C8    C50   A    
C20   Br4   S    
C48   C59   S    
C15   C17   A    
C21   C25   A    
C4    C33   S    
C36   H14   S    
N4    Ni1   S    
C6    C46   A    
C30   C33   A    
C9    H3    S    
C36   C39   A    
C10   H4    S    
C43   C47   A    
C1    H1    S    
N5    Ni3   S    
N10   Ni1   S    
C50   N8    A    
C25   C27   A    
C26   C28   A    
C57   H33   S    
C23   H19   S    
C5    C39   S    
C35   C40   A    
C58   H34   S    
C37   C39   A    
N8    Ni3   S    
N1    Ni1   S    
C30   C32   A    
C11   C13   A    
C5    C45   A    
C2    N2    A    
C17   C19   A    
C41   C48   A    
C52   N10   A    
N8    N12   A    
C6    C40   S    
C42   C47   A    
C37   H15   S    
C50   H26   S    
N3    N13   A    
C53   N11   A    
C56   H32   S    
C16   C18   A    
C22   C26   A    
C2    H2    S    
C5    C51   A    
N1    N15   A    
C6    C52   A    
C18   H8    S    
C44   C48   A    
C49   N7    A    
C12   Br2   S    
