data_mof_unit_10973.cif
_audit_creation_date              2013-03-05T15:50:11-0500
_audit_creation_method            fapswitch 2.2
_symmetry_space_group_name_H-M    P1
_symmetry_Int_Tables_number       1
_space_group_crystal_system       triclinic
_cell_length_a                    14.927972
_cell_length_b                    15.631862
_cell_length_c                    9.605439
_cell_angle_alpha                 89.940365
_cell_angle_beta                  87.58285
_cell_angle_gamma                 89.822502
_cell_volume                      2239.44238268

loop_
_atom_site_label
_atom_site_type_symbol
_atom_site_description
_atom_site_fract_x
_atom_site_fract_y
_atom_site_fract_z
_atom_type_partial_charge
O1    O     O_R   0.409820 0.909830 0.618810 -0.552160
O2    O     O_R   0.409820 0.090170 0.618810 -0.533818
O3    O     O_R   0.909820 0.409830 0.618810 -0.494637
O4    O     O_R   0.909820 0.590170 0.618810 -0.536709
O5    O     O_R   0.409840 0.909830 0.381240 -0.578497
O6    O     O_R   0.409840 0.090170 0.381240 -0.584647
O7    O     O_R   0.909840 0.409830 0.381240 -0.595525
O8    O     O_R   0.909840 0.590170 0.381240 -0.580103
C1    C     C_R   0.383544 0.878496 0.503210 0.782374
C2    C     C_R   0.383384 0.120793 0.502595 0.796126
C3    C     C_R   0.885430 0.377432 0.502588 0.807323
C4    C     C_R   0.877128 0.615051 0.502750 0.788828
Cu1   Cu    Cu3+1 0.499990 0.000000 0.640660 1.028170
Cu2   Cu    Cu3+1 0.999990 0.500000 0.640660 1.029513
Cu3   Cu    Cu3+1 0.500010 1.000000 0.359340 0.954217
Cu4   Cu    Cu3+1 0.000010 0.500000 0.359340 0.947286
O9    O     O_R   0.590170 0.090170 0.618760 -0.551398
O10   O     O_R   0.590170 0.909830 0.618760 -0.574589
O11   O     O_R   0.090170 0.590170 0.618760 -0.612329
O12   O     O_R   0.090170 0.409830 0.618760 -0.548793
O13   O     O_R   0.590190 0.090180 0.381190 -0.616126
O14   O     O_R   0.590190 0.909820 0.381190 -0.599257
O15   O     O_R   0.090190 0.590180 0.381190 -0.605111
O16   O     O_R   0.090190 0.409820 0.381190 -0.606462
C5    C     C_R   0.619803 0.117673 0.497314 0.781262
C6    C     C_R   0.620920 0.883520 0.497228 0.732164
C7    C     C_R   0.114646 0.622251 0.498365 0.748793
C8    C     C_R   0.117728 0.380529 0.497739 0.773031
H1    H     H_    0.209247 0.100966 0.475862 0.129878
H2    H     H_    0.350302 0.770435 0.296786 0.194463
H3    H     H_    0.904633 0.775207 0.430962 0.133890
H4    H     H_    0.725152 0.386668 0.402380 0.138286
C9    C     C_R   0.428069 0.302789 0.567597 0.279863
C10   C     C_R   0.283245 0.813270 0.773335 0.334924
C11   C     C_R   0.685415 0.588967 0.614058 0.315566
C12   C     C_R   0.916679 0.203314 0.638732 0.292355
C13   C     C_R   0.457190 0.385258 0.530533 -0.193608
C14   C     C_R   0.211049 0.823589 0.870944 -0.217060
C15   C     C_R   0.593233 0.572041 0.624864 -0.188228
C16   C     C_R   0.942074 0.117087 0.649845 -0.187686
C17   C     C_R   0.531830 0.630985 0.578048 -0.169299
C18   C     C_R   0.886715 0.052479 0.604861 -0.222463
C19   C     C_R   0.396963 0.445089 0.481122 -0.195194
C20   C     C_R   0.125155 0.798523 0.838680 -0.208123
H5    H     H_    0.460694 0.618753 0.590693 0.171981
H6    H     H_    0.906151 0.986138 0.616328 0.153829
H7    H     H_    0.419265 0.508666 0.453244 0.153731
H8    H     H_    0.070077 0.805855 0.914764 0.162730
C21   C     C_R   0.561326 0.709917 0.529305 -0.079918
C22   C     C_R   0.803034 0.072873 0.556194 -0.202952
C23   C     C_R   0.306547 0.424698 0.476142 -0.201945
C24   C     C_R   0.111989 0.756352 0.713921 -0.157198
H9    H     H_    0.511670 0.755898 0.499389 0.144225
H10   H     H_    0.759417 0.021190 0.528547 0.097047
H11   H     H_    0.260218 0.474507 0.447797 0.116626
H12   H     H_    0.045420 0.732959 0.694966 0.161226
C25   C     C_R   0.653345 0.729523 0.521432 0.066127
C26   C     C_R   0.777326 0.158756 0.538266 0.074522
C27   C     C_R   0.278030 0.339815 0.499101 0.061039
C28   C     C_R   0.183485 0.746404 0.614206 0.057861
C29   C     C_R   0.341971 0.276091 0.527538 0.014736
C30   C     C_R   0.264562 0.789608 0.633652 -0.003617
C31   C     C_R   0.716955 0.665216 0.547909 -0.026209
C32   C     C_R   0.838776 0.225142 0.564484 -0.003633
C33   C     C_R   0.317301 0.189173 0.510832 -0.066912
C34   C     C_R   0.320498 0.806541 0.512006 -0.099724
C35   C     C_R   0.808624 0.681571 0.509074 -0.064104
C36   C     C_R   0.820119 0.308196 0.509672 -0.051854
C37   C     C_R   0.228351 0.167303 0.488131 -0.195893
C38   C     C_R   0.306888 0.761181 0.388817 -0.202408
C39   C     C_R   0.835159 0.762596 0.461487 -0.174216
C40   C     C_R   0.739365 0.324044 0.445001 -0.133846
C41   C     C_R   0.773292 0.828545 0.456509 -0.223820
C42   C     C_R   0.675010 0.260865 0.438475 -0.122723
C43   C     C_R   0.163141 0.230465 0.484117 -0.117008
C44   C     C_R   0.238627 0.701842 0.383547 -0.216479
C45   C     C_R   0.683163 0.812633 0.490002 -0.033942
C46   C     C_R   0.692261 0.179458 0.490040 -0.034997
C47   C     C_R   0.187553 0.316343 0.491590 -0.039091
C48   C     C_R   0.176897 0.693679 0.496100 -0.082194
H13   H     H_    0.359750 0.006948 0.137916 0.131318
H14   H     H_    0.860850 0.483432 0.138114 0.153884
C49   C     C_R   0.664114 0.997018 0.135269 -0.124770
C50   C     C_R   0.164151 0.505764 0.134477 -0.148698
H15   H     H_    0.670856 0.999170 0.244662 0.190006
H16   H     H_    0.170789 0.501536 0.243681 0.193932
C51   C     C_R   0.745004 0.994195 0.059074 -0.192831
C52   C     C_R   0.244979 0.510097 0.058062 -0.191616
C53   C     C_R   0.745632 0.993685 0.915661 -0.170032
C54   C     C_R   0.245630 0.510199 0.914501 -0.157625
H17   H     H_    0.808915 0.991860 0.856652 0.162285
H18   H     H_    0.308874 0.511532 0.854927 0.169503
C55   C     C_R   0.665407 0.996399 0.847591 -0.096075
C56   C     C_R   0.165467 0.505988 0.846604 -0.101634
H19   H     H_    0.673753 0.998185 0.737823 0.183453
H20   H     H_    0.174433 0.501385 0.736676 0.191115
C57   C     C_R   0.581087 0.997775 0.920774 0.227385
C58   C     C_R   0.081075 0.504639 0.920272 0.205909
C59   C     C_R   0.580831 0.997962 0.070246 0.207361
C60   C     C_R   0.080820 0.504326 0.069887 0.204224
N1    N     N_R   0.501200 0.000000 0.147910 -0.205476
N2    N     N_R   0.001200 0.500000 0.147910 -0.208338
C61   C     C_R   0.423001 0.004235 0.078837 0.010080
C62   C     C_R   0.923645 0.491074 0.079103 -0.033945
H21   H     H_    0.359973 0.008204 0.879814 0.120415
H22   H     H_    0.863179 0.474199 0.881962 0.230148
C63   C     C_R   0.423092 0.004992 0.930963 0.073376
C64   C     C_R   0.924241 0.488782 0.931669 0.080873
N3    N     N_R   0.501270 0.000000 0.852040 -0.189523
N4    N     N_R   0.001270 0.500000 0.852040 -0.209454
N5    N     N_R   0.474819 0.257514 0.673107 0.117333
O17   O     O_R   0.558796 0.274095 0.691734 -0.351331
O18   O     O_R   0.428262 0.223746 0.776679 -0.332412
N6    N     N_R   0.372073 0.805334 0.825676 0.137448
O19   O     O_R   0.385939 0.822563 0.955516 -0.403469
O20   O     O_R   0.432784 0.761175 0.756439 -0.367821
N7    N     N_R   0.740314 0.543493 0.706415 0.100187
O21   O     O_R   0.770184 0.586234 0.810861 -0.380520
O22   O     O_R   0.732281 0.460862 0.717174 -0.372523
N8    N     N_R   0.957043 0.262498 0.730733 0.121539
O23   O     O_R   0.905650 0.299980 0.825109 -0.330999
O24   O     O_R   0.042232 0.256229 0.752605 -0.375313
H23   H     H_    0.525105 0.404726 0.548223 0.172764
H24   H     H_    0.221976 0.845746 0.975611 0.173774
H25   H     H_    0.568620 0.516433 0.681350 0.188253
H26   H     H_    0.002092 0.099516 0.702726 0.175495
H27   H     H_    0.795702 0.891669 0.425009 0.124115
H28   H     H_    0.610931 0.275820 0.395202 0.140568
H29   H     H_    0.093743 0.212521 0.473136 0.134609
H30   H     H_    0.233906 0.662741 0.291121 0.167843
H31   H     H_    0.807667 0.993081 0.111941 0.153185
H32   H     H_    0.307637 0.511484 0.110905 0.164540

loop_
_geom_bond_atom_site_label_1
_geom_bond_atom_site_label_2
_geom_bond_distance
_ccdc_geom_bond_type
C49   C51   1.385974 A    
C58   N4    1.385845 A    
N5    O17   1.300666 A    
O10   C6    1.302787 A    
N6    O19   1.301401 A    
H4    C40   1.084488 S    
C34   C38   1.402547 A    
C3    C36   1.458538 S    
C14   C20   1.389444 A    
H21   C63   1.081863 S    
C22   H10   1.079584 S    
Cu1   O10   1.951474 S    
C15   H25   1.081279 S    
C32   C36   1.431437 A    
C50   H16   1.059750 S    
N7    O22   1.301201 A    
C33   C37   1.398205 A    
C56   C58   1.418866 A    
C10   C30   1.431100 A    
C21   C25   1.407248 A    
C28   C30   1.407229 A    
C18   H6    1.082752 S    
C51   H31   1.083120 S    
O2    Cu1   1.963195 S    
C8    C47   1.443994 S    
C1    C34   1.468921 S    
O7    C3    1.308428 A    
Cu1   N3    2.031294 S    
C24   C28   1.412006 A    
H2    C38   1.083691 S    
O6    Cu3   1.951371 S    
C13   H23   1.079768 S    
C44   H30   1.083243 S    
C11   C31   1.422232 A    
Cu3   O14   1.963411 S    
C42   H28   1.083705 S    
C44   C48   1.396659 A    
C25   C31   1.410961 A    
C9    N5    1.438812 S    
O15   C7    1.299377 A    
C53   H17   1.081302 S    
O11   C7    1.298706 A    
O4    C4    1.294620 A    
C35   C39   1.398806 A    
C36   C40   1.400525 A    
C56   H20   1.061230 S    
C20   C24   1.389810 A    
C16   C18   1.387734 A    
O8    Cu4   1.951371 S    
C49   C59   1.414677 A    
O4    Cu2   1.963195 S    
C63   N3    1.366636 A    
C17   C21   1.385733 A    
C57   C59   1.435603 A    
N8    O24   1.301033 A    
C54   C56   1.388566 A    
H1    C37   1.084179 S    
C26   C32   1.416944 A    
C4    C35   1.455682 S    
C31   C35   1.426892 A    
C27   C29   1.411921 A    
C6    C45   1.443734 S    
C30   C34   1.432135 A    
C24   H12   1.082606 S    
C5    C46   1.451763 S    
C50   C60   1.413572 A    
C25   C45   1.403041 A    
C12   C16   1.404233 A    
O1    C1    1.290653 A    
C40   C42   1.383218 A    
C7    C48   1.454434 S    
C27   C47   1.405483 A    
C39   C41   1.384105 A    
O12   C8    1.299979 A    
C41   H27   1.081671 S    
C9    C13   1.402526 A    
C22   C26   1.407534 A    
C13   C19   1.392179 A    
C11   C15   1.401618 A    
O5    C1    1.314452 A    
Cu2   O12   1.951474 S    
C57   N3    1.386660 A    
C54   H18   1.083385 S    
O8    C4    1.305257 A    
C16   H26   1.082929 S    
C60   N2    1.379918 A    
N5    O18   1.301639 A    
Cu3   N1    2.030207 S    
N2    C62   1.364683 A    
O3    Cu2   1.969488 S    
C18   C22   1.388199 A    
Cu4   N2    2.030207 S    
O7    Cu4   1.957072 S    
C59   N1    1.376819 A    
C52   C54   1.378597 A    
Cu4   O15   1.969702 S    
C58   C60   1.436960 A    
Cu1   Cu3   2.702189 S    
C38   C44   1.382616 A    
Cu2   Cu4   2.702189 S    
C11   N7    1.421387 S    
C23   C27   1.409042 A    
C52   H32   1.083139 S    
O2    C2    1.290687 A    
C55   C57   1.415707 A    
C62   C64   1.416317 A    
N8    O23   1.301284 A    
O16   C8    1.291708 A    
H13   C61   1.081655 S    
C2    C33   1.452261 S    
Cu2   N4    2.031294 S    
O13   C5    1.291528 A    
C28   C48   1.409902 A    
H14   C62   1.081678 S    
C49   H15   1.060369 S    
C10   C14   1.407335 A    
Cu2   O11   1.957173 S    
C50   C52   1.387412 A    
C19   H7    1.078980 S    
O6    C2    1.305779 A    
N6    O20   1.298612 A    
C10   N6    1.442762 S    
N1    C61   1.368228 A    
Cu1   O9    1.957173 S    
O9    C5    1.303057 A    
C51   C53   1.377210 A    
C20   H8    1.082667 S    
C17   H5    1.081347 S    
N7    O21   1.301043 A    
C19   C23   1.390621 A    
C55   H19   1.056828 S    
H22   C64   1.071930 S    
C9    C29   1.421099 A    
C21   H9    1.078390 S    
H3    C39   1.084393 S    
C64   N4    1.365576 A    
C37   C43   1.386028 A    
C23   H11   1.082027 S    
C53   C55   1.388966 A    
C12   N8    1.431773 S    
O5    Cu3   1.957072 S    
O3    C3    1.293024 A    
C26   C46   1.406620 A    
O14   C6    1.289493 A    
C29   C33   1.419836 A    
Cu3   O13   1.969702 S    
O1    Cu1   1.969488 S    
C15   C17   1.385680 A    
Cu4   O16   1.963411 S    
C42   C46   1.392269 A    
C41   C45   1.393191 A    
C61   C63   1.420372 A    
C12   C32   1.429847 A    
C43   C47   1.394828 A    
C14   H24   1.082712 S    
C43   H29   1.083563 S    
