data_mof_unit_13379.cif
_audit_creation_date              2012-12-10T19:03:39-0500
_audit_creation_method            fapswitch 2.2
_symmetry_space_group_name_H-M    P1
_symmetry_Int_Tables_number       1
_space_group_crystal_system       triclinic
_cell_length_a                    15.929571
_cell_length_b                    10.872344
_cell_length_c                    9.581428
_cell_angle_alpha                 90.160246
_cell_angle_beta                  88.872344
_cell_angle_gamma                 89.622262
_cell_volume                      1659.05998309

loop_
_atom_site_label
_atom_site_type_symbol
_atom_type_description
_atom_site_fract_x
_atom_site_fract_y
_atom_site_fract_z
_atom_type_partial_charge
C1    C     C_R   0.503941 0.262744 0.499511 0.849698
C2    C     C_3   0.948953 0.387362 0.578878 0.006760
C3    C     C_3   0.917321 0.509644 0.511222 0.184823
C4    C     C_3   0.952742 0.628135 0.587694 0.394782
C5    C     C_3   0.051401 0.622825 0.578959 -0.480188
C6    C     C_1   0.825044 0.509033 0.502001 0.040935
C7    C     C_1   0.175567 0.500138 0.509236 -0.042271
C8    C     C_1   0.250940 0.500255 0.505176 -0.193589
C9    C     C_R   0.486319 0.061386 0.612776 0.023911
C10   C     C_R   0.511878 0.129772 0.497643 -0.233009
C11   C     C_R   0.546653 0.063863 0.381206 0.235699
C12   C     C_R   0.340388 0.500095 0.501394 0.811991
C13   C     C_R   0.547275 0.933465 0.380909 0.241373
C14   C     C_R   0.512834 0.868941 0.497368 -0.198911
C15   C     C_R   0.486858 0.937510 0.612048 -0.009872
C16   C     C_3   0.451400 0.925546 0.756187 -0.420129
C17   C     C_3   0.451930 0.068256 0.760085 0.287559
C18   C     C_R   0.566059 0.451396 0.070939 0.254591
C19   C     C_R   0.432183 0.541963 0.076428 -0.047426
C20   C     C_R   0.431991 0.541159 0.928060 -0.083241
C21   C     C_R   0.566260 0.454794 0.923667 0.202244
C22   C     C_3   0.653145 0.501459 0.913052 -0.490048
C23   C     C_R   0.504473 0.736793 0.499532 0.858852
C24   C     C_3   0.655872 0.493477 0.070970 -0.117894
C25   C     C_R   0.659808 0.501421 0.498863 0.831398
C26   C     C_3   0.045792 0.391319 0.599458 -0.046374
C27   C     C_3   0.051557 0.497413 0.360562 -0.396118
C28   C     C_3   0.954842 0.506727 0.359786 -0.473064
C29   C     C_1   0.749573 0.505709 0.497605 -0.142559
C30   C     C_3   0.083421 0.500821 0.512079 0.189029
Cu1   Cu    Cu3+1 0.500000 0.499980 0.640670 0.937353
Cu2   Cu    Cu3+1 0.500000 0.500020 0.359330 0.986699
H1    H     H_    0.934067 0.311776 0.504804 0.164604
H2    H     H_    0.056063 0.412502 0.711609 0.190830
H3    H     H_    0.387983 0.883428 0.755857 0.174602
H4    H     H_    0.496045 0.880120 0.827668 0.209109
H5    H     H_    0.378019 0.578075 0.132920 0.142817
H6    H     H_    0.377611 0.576129 0.874909 0.141396
H7    H     H_    0.694720 0.435455 0.855333 0.229745
H8    H     H_    0.655518 0.597710 0.874235 0.210717
H9    H     H_    0.663636 0.584160 0.123048 0.225990
H10   H     H_    0.078571 0.575199 0.299534 0.194106
H11   H     H_    0.072473 0.411404 0.306988 0.172834
H12   H     H_    0.931096 0.425321 0.303402 0.177111
H13   H     H_    0.935526 0.588828 0.299385 0.231592
H14   H     H_    0.079588 0.632872 0.683860 0.144098
H15   H     H_    0.076462 0.701351 0.517027 0.214814
N1    N     N_R   0.500530 0.500930 0.147930 -0.186138
N2    N     N_R   0.500530 0.500890 0.852020 -0.187560
O1    O     O_R   0.500000 0.319640 0.618810 -0.596673
O2    O     O_R   0.500010 0.319680 0.381230 -0.538999
O3    O     O_R   0.379430 0.499990 0.618840 -0.593903
O4    O     O_R   0.379440 0.500030 0.381260 -0.585382
O5    O     O_R   0.499990 0.680320 0.618770 -0.580907
O6    O     O_R   0.500000 0.680360 0.381190 -0.544806
O7    O     O_R   0.620560 0.499970 0.618740 -0.581873
O8    O     O_R   0.620570 0.500010 0.381160 -0.579255
Br1   Br    Br    0.889792 0.334940 0.748729 -0.615822
Br2   Br    Br    0.916650 0.778805 0.490880 -0.542961
Br3   Br    Br    0.600276 0.147107 0.226844 -0.556517
Br4   Br    Br    0.601482 0.847737 0.225550 -0.477755
C31   C     C_3   0.363005 0.126066 0.767779 -0.414371
C32   C     C_3   0.320641 0.110636 0.911304 -0.843907
H16   H     H_    0.318462 0.012132 0.941228 0.257076
H17   H     H_    0.354686 0.163136 0.991774 0.254994
H18   H     H_    0.255389 0.146646 0.908571 0.249715
H19   H     H_    0.366567 0.225788 0.743684 0.220546
H20   H     H_    0.322864 0.082943 0.687918 0.196917
C33   C     C_3   0.513592 0.123219 0.867198 -0.334594
C34   C     C_3   0.607073 0.100649 0.833967 -0.719159
H21   H     H_    0.621031 0.000837 0.824358 0.257994
H22   H     H_    0.626217 0.147915 0.735978 0.249322
H23   H     H_    0.645307 0.138602 0.919177 0.266574
H24   H     H_    0.503067 0.223901 0.875105 0.211676
H25   H     H_    0.498865 0.083749 0.971548 0.243629
C35   C     C_3   0.086835 0.263549 0.566777 -0.359696
C36   C     C_3   0.154529 0.228853 0.670545 -0.846409
H26   H     H_    0.206808 0.295541 0.667982 0.254393
H27   H     H_    0.127207 0.225228 0.777982 0.263734
H28   H     H_    0.179926 0.136377 0.643495 0.244928
H29   H     H_    0.039174 0.189412 0.572962 0.243781
H30   H     H_    0.114227 0.260527 0.459443 0.203928
C37   C     C_3   0.718180 0.393932 0.117994 -0.303548
C38   C     C_3   0.808029 0.438592 0.101083 -0.812876
H31   H     H_    0.821346 0.468096 0.992540 0.292122
H32   H     H_    0.818071 0.517926 0.171585 0.248203
H33   H     H_    0.851732 0.362254 0.125756 0.259881
H34   H     H_    0.706813 0.369889 0.228824 0.250290
H35   H     H_    0.711088 0.308511 0.055412 0.242882
C39   C     C_3   0.926234 0.644107 0.744618 -0.367582
C40   C     C_3   0.832188 0.659533 0.776250 -0.752393
H36   H     H_    0.803060 0.730477 0.709573 0.286032
H37   H     H_    0.799479 0.571353 0.763015 0.261480
H38   H     H_    0.822865 0.688225 0.886834 0.242873
H39   H     H_    0.951024 0.567439 0.808036 0.211416
H40   H     H_    0.956957 0.728422 0.784620 0.221332

loop_
_geom_bond_atom_site_label_1
_geom_bond_atom_site_label_2
_ccdc_geom_bond_type
C32   H17   S    
C17   C33   S    
C18   C21   A    
C19   C20   A    
C38   H33   S    
Cu1   O3    S    
C3    C6    S    
C21   N2    A    
C39   H39   S    
C36   H26   S    
C5    H15   S    
C20   N2    A    
C31   H19   S    
C18   C24   S    
C3    C28   S    
C24   C37   S    
C38   H32   S    
C16   H3    S    
C15   C16   S    
C19   H5    S    
C26   H2    S    
Cu1   Cu2   S    
C16   C17   S    
C26   C35   S    
C25   O7    A    
C34   H21   S    
Cu1   O7    S    
C1    O1    A    
Cu2   O6    S    
C12   O4    A    
C37   H34   S    
C32   H18   S    
C7    C30   S    
C21   C22   S    
C27   C30   S    
C24   H9    S    
Cu2   N1    S    
C25   O8    A    
Cu2   O8    S    
Cu1   N2    S    
C12   O3    A    
C4    C39   S    
C36   H27   S    
C25   C29   S    
C37   H35   S    
C28   H13   S    
C7    C8    T    
C38   H31   S    
C35   H30   S    
C40   H36   S    
C19   N1    A    
C28   H12   S    
C14   C23   S    
Cu2   O2    S    
C31   C32   S    
C17   C31   S    
C40   H37   S    
C20   H6    S    
C37   C38   S    
C8    C12   S    
C22   H8    S    
C34   H23   S    
C33   H24   S    
C2    C26   S    
C35   C36   S    
C39   H40   S    
C1    O2    A    
C2    H1    S    
C9    C17   S    
C26   C30   S    
C22   C24   S    
Cu1   O1    S    
C11   Br3   S    
Cu2   O4    S    
C23   O5    A    
C5    C30   S    
C9    C10   A    
C36   H28   S    
C1    C10   S    
C4    C5    S    
C18   N1    A    
C35   H29   S    
C2    Br1   S    
C23   O6    A    
C5    H14   S    
C31   H20   S    
C2    C3    S    
C9    C15   A    
C16   H4    S    
C40   H38   S    
C11   C13   A    
C27   H10   S    
C39   C40   S    
C22   H7    S    
C4    Br2   S    
C33   H25   S    
Cu1   O5    S    
C33   C34   S    
C10   C11   A    
C32   H16   S    
C27   H11   S    
C6    C29   T    
C13   Br4   S    
C27   C28   S    
C14   C15   A    
C34   H22   S    
C13   C14   A    
C3    C4    S    
