data_mof_unit_53592.cif
_audit_creation_date              2013-03-05T15:56:35-0500
_audit_creation_method            fapswitch 2.2
_symmetry_space_group_name_H-M    P1
_symmetry_Int_Tables_number       1
_space_group_crystal_system       triclinic
_cell_length_a                    6.959206
_cell_length_b                    14.644401
_cell_length_c                    15.900052
_cell_angle_alpha                 90.622196
_cell_angle_beta                  89.687484
_cell_angle_gamma                 90.224472
_cell_volume                      1620.29670105

loop_
_atom_site_label
_atom_site_type_symbol
_atom_site_description
_atom_site_fract_x
_atom_site_fract_y
_atom_site_fract_z
_atom_type_partial_charge
O1    O     O_R   0.361600 0.167310 0.164620 -0.592930
O2    O     O_R   0.638400 0.832690 0.835380 -0.591170
O3    O     O_R   0.691080 0.157570 0.338750 -0.599898
O4    O     O_R   0.308920 0.842430 0.661250 -0.604986
O5    O     O_R   0.861410 0.336420 0.339360 -0.591156
O6    O     O_R   0.138590 0.663580 0.660640 -0.589948
C1    C     C_R   0.521484 0.137186 0.368878 0.928430
C2    C     C_R   0.480062 0.867281 0.634792 0.928658
O7    O     O_R   0.691320 0.156280 0.165240 -0.597089
O8    O     O_R   0.308680 0.843720 0.834760 -0.603552
O9    O     O_R   0.861640 0.335130 0.164600 -0.594516
O10   O     O_R   0.138360 0.664870 0.835400 -0.593220
C3    C     C_R   0.522394 0.134074 0.135961 0.917096
C4    C     C_R   0.477704 0.866481 0.863544 0.906606
O11   O     O_R   0.361370 0.168600 0.339370 -0.600204
O12   O     O_R   0.638630 0.831400 0.660630 -0.596456
O13   O     O_3   0.527990 0.310540 0.251980 -0.281788
O14   O     O_3   0.472010 0.689460 0.748020 -0.279214
V1    V     V_3+5 0.802830 0.240980 0.251990 1.131843
V2    V     V_3+5 0.197170 0.759020 0.748010 1.122433
O15   O     O_R   0.191360 0.346160 0.165220 -0.596431
O16   O     O_R   0.808640 0.653840 0.834780 -0.594540
C5    C     C_R   0.023436 0.369691 0.137443 0.925165
C6    C     C_R   0.976604 0.630964 0.863172 0.928469
O17   O     O_R   0.191130 0.347440 0.338740 -0.598796
O18   O     O_R   0.808870 0.652560 0.661260 -0.593000
C7    C     C_R   0.021998 0.370145 0.367177 0.884071
C8    C     C_R   0.977601 0.630996 0.631984 0.898716
V3    V     V_3+5 0.302840 0.262750 0.251990 1.130154
V4    V     V_3+5 0.697160 0.737250 0.748010 1.133457
O19   O     O_3   0.027820 0.193180 0.251990 -0.276656
O20   O     O_3   0.972180 0.806820 0.748010 -0.286226
C9    C     C_3   0.907541 0.424494 0.521699 -0.156754
C10   C     C_3   0.090190 0.578179 0.476566 -0.132270
C11   C     C_3   0.081333 0.467614 0.568299 -0.147811
C12   C     C_3   0.916560 0.534923 0.429906 -0.136465
H1    H     H_    0.148823 0.440209 0.625838 0.115862
H2    H     H_    0.848943 0.562244 0.372367 0.104423
H3    H     H_    0.831853 0.360724 0.539844 0.107683
H4    H     H_    0.165351 0.642071 0.458471 0.100860
C13   C     C_3   0.987482 0.562041 0.561202 -0.072952
C14   C     C_3   0.010732 0.440395 0.437084 -0.079270
C15   C     C_3   0.813487 0.519762 0.515339 -0.083609
C16   C     C_3   0.184497 0.482871 0.482932 -0.096962
H5    H     H_    0.660380 0.535161 0.529130 0.110061
H6    H     H_    0.337592 0.467287 0.469291 0.111778
C17   C     C_R   0.844220 0.492824 0.943903 0.163249
C18   C     C_R   0.156618 0.508153 0.057187 0.162486
C19   C     C_R   0.861270 0.433194 0.012227 -0.226992
C20   C     C_R   0.139123 0.567971 0.988896 -0.226647
H7    H     H_    0.754669 0.379768 0.020182 0.130585
H8    H     H_    0.245722 0.621365 0.980775 0.130731
C21   C     C_R   0.015293 0.438686 0.068884 -0.187214
C22   C     C_R   0.985066 0.562401 0.932207 -0.189278
C23   C     C_R   0.672977 0.021773 0.461580 -0.248225
C24   C     C_R   0.343313 0.998716 0.556565 -0.287045
H9    H     H_    0.806769 0.033819 0.428260 0.139933
H10   H     H_    0.229571 0.994964 0.600967 0.167067
C25   C     C_R   0.673699 0.966464 0.533474 0.170289
C26   C     C_R   0.349974 0.068830 0.496598 0.266832
C27   C     C_R   0.497306 0.940870 0.570400 -0.192450
C28   C     C_R   0.510147 0.072891 0.440915 -0.189053
C29   C     C_R   0.679023 0.027188 0.031231 -0.148986
C30   C     C_R   0.321276 0.974652 0.967102 -0.148003
H11   H     H_    0.819327 0.046477 0.054737 0.121582
H12   H     H_    0.180989 0.955493 0.943469 0.122066
C31   C     C_R   0.667944 0.963234 0.965319 -0.143274
C32   C     C_R   0.332367 0.038619 0.033002 -0.138820
H13   H     H_    0.800305 0.935111 0.940234 0.126724
H14   H     H_    0.200024 0.066893 0.057941 0.124475
C33   C     C_R   0.488874 0.935831 0.932532 -0.118821
C34   C     C_R   0.511368 0.065589 0.066179 -0.123329
C35   C     C_3   0.677284 0.477403 0.884254 -0.428192
C36   C     C_3   0.746661 0.442976 0.797702 -0.206040
C37   C     C_3   0.583579 0.442469 0.734223 -0.918841
H15   H     H_    0.467001 0.395688 0.754928 0.251516
H16   H     H_    0.524339 0.512128 0.727040 0.287343
H17   H     H_    0.639829 0.419389 0.672210 0.236044
H18   H     H_    0.864486 0.486287 0.772737 0.175181
H19   H     H_    0.803332 0.372477 0.803680 0.184183
H20   H     H_    0.575927 0.425524 0.909714 0.172115
H21   H     H_    0.590458 0.540429 0.879382 0.219132
C38   C     C_3   0.325423 0.522986 0.116197 -0.428374
C39   C     C_3   0.259920 0.558907 0.202859 -0.211985
C40   C     C_3   0.428999 0.567472 0.263257 -0.912608
H22   H     H_    0.495048 0.499611 0.273468 0.279082
H23   H     H_    0.539305 0.614844 0.237728 0.249002
H24   H     H_    0.377898 0.594698 0.324815 0.237241
H25   H     H_    0.193007 0.627158 0.195575 0.183291
H26   H     H_    0.150964 0.512906 0.231189 0.178603
H27   H     H_    0.410812 0.459582 0.121503 0.219086
H28   H     H_    0.427462 0.573869 0.089582 0.174076
C41   C     C_3   0.854360 0.967102 0.585110 -0.416257
C42   C     C_3   0.824260 0.029593 0.663831 -0.196480
C43   C     C_3   0.996307 0.037084 0.722737 -0.933285
H29   H     H_    0.065613 0.970073 0.731550 0.296709
H30   H     H_    0.102726 0.086782 0.698527 0.243844
H31   H     H_    0.947537 0.062741 0.785268 0.241112
H32   H     H_    0.785799 0.099460 0.643224 0.179347
H33   H     H_    0.701914 0.003815 0.701959 0.188365
H34   H     H_    0.904354 0.897863 0.601113 0.223123
H35   H     H_    0.966850 0.994349 0.544374 0.155442
C44   C     C_3   0.198542 0.143295 0.501484 -0.463725
C45   C     C_3   0.284142 0.236906 0.524673 -0.204678
C46   C     C_3   0.366794 0.239487 0.613290 -0.947407
H36   H     H_    0.251864 0.227416 0.660621 0.258080
H37   H     H_    0.482032 0.187930 0.620211 0.267475
H38   H     H_    0.429031 0.307954 0.624932 0.246601
H39   H     H_    0.396753 0.258479 0.479436 0.190105
H40   H     H_    0.167350 0.287499 0.521832 0.179542
H41   H     H_    0.117308 0.146756 0.441842 0.186868
H42   H     H_    0.089292 0.128819 0.550302 0.189582

loop_
_geom_bond_atom_site_label_1
_geom_bond_atom_site_label_2
_geom_bond_distance
_ccdc_geom_bond_type
V4    O20   2.164667 S    
C29   H11   1.082762 S    
C41   C42   1.556205 S    
C23   C25   1.408187 A    
O13   V3    1.713555 S    
C35   C36   1.536473 S    
C12   C14   1.539534 S    
C43   H29   1.105760 S    
O4    C2    1.312399 A    
V1    O19   1.717606 S    
C43   H31   1.110899 S    
C17   C19   1.406988 A    
C40   H22   1.110469 S    
C38   H28   1.112658 S    
C46   H37   1.110324 S    
O9    V1    2.007539 S    
C9    H3    1.110472 S    
C14   C16   1.540958 S    
C10   H4    1.110039 S    
C9    C14   1.541079 S    
C30   C32   1.400124 A    
C26   C28   1.421186 A    
C11   H1    1.110309 S    
O3    C1    1.306048 A    
C45   H39   1.108226 S    
C6    C22   1.497193 S    
C23   C28   1.403013 A    
C8    C13   1.505341 S    
C44   H41   1.108411 S    
C4    C33   1.488895 S    
C30   C33   1.406105 A    
O7    C3    1.305441 A    
O13   V1    2.170541 S    
O5    C7    1.298004 A    
O7    V1    2.002569 S    
O6    C8    1.298901 A    
O8    V2    2.002568 S    
C19   H7    1.084009 S    
C20   H8    1.083975 S    
O3    V1    2.004316 S    
O14   V4    1.713556 S    
C26   C44   1.520544 S    
O14   V2    2.170542 S    
C2    C27   1.498544 S    
C18   C20   1.408605 A    
C2    O12   1.294907 A    
C36   H19   1.111843 S    
C13   C15   1.541190 S    
C10   C13   1.540392 S    
C39   H26   1.109292 S    
O2    C4    1.300035 A    
C35   H20   1.112645 S    
C45   C46   1.524833 S    
C16   H6    1.110211 S    
O11   V3    2.012308 S    
C40   H23   1.110785 S    
O17   V3    2.000951 S    
C18   C21   1.425153 A    
C46   H38   1.104824 S    
C29   C31   1.400137 A    
C25   C27   1.409043 A    
C36   C37   1.522871 S    
C9    C15   1.547904 S    
C10   C16   1.549195 S    
C39   C40   1.526770 S    
C17   C35   1.518372 S    
O8    C4    1.305249 A    
C41   H34   1.106005 S    
C1    O11   1.299140 A    
O15   V3    2.013217 S    
C24   C26   1.409228 A    
C44   H42   1.105159 S    
C31   H13   1.082858 S    
C30   H12   1.082879 S    
C37   H15   1.110652 S    
C1    C28   1.492167 S    
C15   H5    1.110179 S    
C38   C39   1.537042 S    
C42   H33   1.109854 S    
C32   C34   1.408846 A    
O10   V2    2.007542 S    
O1    V3    2.001656 S    
C20   C22   1.405976 A    
C11   C16   1.549975 S    
C37   H16   1.109042 S    
C17   C22   1.424019 A    
O18   V4    2.000950 S    
C36   H18   1.109078 S    
C23   H9    1.083548 S    
O16   C6    1.301709 A    
O1    C3    1.300225 A    
C39   H25   1.111749 S    
C12   H2    1.110245 S    
C35   H21   1.108793 S    
C38   H27   1.108583 S    
V2    O20   1.717606 S    
C40   H24   1.110082 S    
O16   V4    2.013220 S    
C41   H35   1.090507 S    
C43   H30   1.106841 S    
O5    V1    2.002259 S    
C3    C34   1.489620 S    
O17   C7    1.301678 A    
O6    V2    2.002259 S    
C46   H36   1.110196 S    
O10   C6    1.305249 A    
O18   C8    1.299607 A    
C18   C38   1.520907 S    
O2    V4    2.001658 S    
O15   C5    1.300600 A    
V3    O19   2.164670 S    
C45   H40   1.103374 S    
C7    C14   1.508272 S    
C42   H32   1.111872 S    
C19   C21   1.405417 A    
C5    C21   1.495812 S    
O9    C5    1.305912 A    
C9    C11   1.550529 S    
C10   C12   1.550907 S    
C24   H10   1.059444 S    
C31   C33   1.408695 A    
C42   C43   1.527017 S    
C11   C13   1.537145 S    
C37   H17   1.108725 S    
O4    V2    2.004314 S    
C29   C34   1.406271 A    
C32   H14   1.082767 S    
C44   C45   1.534649 S    
C24   C27   1.388596 A    
C12   C15   1.550391 S    
C25   C41   1.505278 S    
O12   V4    2.012306 S    
