data_mof_unit_30737.cif
_audit_creation_date              2012-12-11T21:06:20-0500
_audit_creation_method            fapswitch 2.2
_symmetry_space_group_name_H-M    P1
_symmetry_Int_Tables_number       1
_space_group_crystal_system       triclinic
_cell_length_a                    36.664896
_cell_length_b                    39.265349
_cell_length_c                    8.407281
_cell_angle_alpha                 90.000029
_cell_angle_beta                  93.881094
_cell_angle_gamma                 90.00015
_cell_volume                      12075.8680027

loop_
_atom_site_label
_atom_site_type_symbol
_atom_type_description
_atom_site_fract_x
_atom_site_fract_y
_atom_site_fract_z
_atom_type_partial_charge
Ba1   Ba    Ba6+2 0.000060 0.523150 0.844950 1.670779
Ba2   Ba    Ba6+2 0.000060 0.476850 0.344950 1.670783
Ba3   Ba    Ba6+2 0.500060 0.023150 0.844950 1.670783
Ba4   Ba    Ba6+2 0.500060 0.976850 0.344950 1.670783
C1    C     C_3   0.976921 0.683699 0.644776 0.234945
C2    C     C_3   0.976931 0.316296 0.144795 0.234939
C3    C     C_3   0.476929 0.183703 0.644792 0.234941
C4    C     C_3   0.476913 0.816303 0.144761 0.234954
C5    C     C_R   0.865809 0.311533 0.943318 0.578481
C6    C     C_R   0.865805 0.688467 0.443305 0.578478
C7    C     C_R   0.365804 0.811529 0.943261 0.578476
C8    C     C_R   0.365808 0.188467 0.443314 0.578481
C9    C     C_2   0.906375 0.366793 0.780110 -0.082493
C10   C     C_2   0.906373 0.633206 0.280105 -0.082488
C11   C     C_2   0.406371 0.866795 0.780106 -0.082497
C12   C     C_2   0.406374 0.133206 0.280107 -0.082491
C13   C     C_3   0.940724 0.387457 0.766988 -0.046997
C14   C     C_3   0.940723 0.612543 0.266986 -0.046994
C15   C     C_3   0.440721 0.887459 0.766982 -0.046988
C16   C     C_3   0.440724 0.112543 0.266987 -0.046995
C17   C     C_1   0.919491 0.424008 0.979358 0.031870
C18   C     C_1   0.919490 0.575993 0.479359 0.031867
C19   C     C_1   0.419492 0.924007 0.979366 0.031876
C20   C     C_1   0.419491 0.075992 0.479358 0.031870
C21   C     C_2   0.894973 0.400804 0.016626 -0.108247
C22   C     C_2   0.894972 0.599196 0.516625 -0.108257
C23   C     C_2   0.394978 0.900800 0.016650 -0.108261
C24   C     C_2   0.394973 0.099196 0.516625 -0.108249
C25   C     C_2   0.886283 0.370918 0.908243 0.193480
C26   C     C_2   0.886281 0.629081 0.408240 0.193473
C27   C     C_2   0.386284 0.870916 0.908259 0.193445
C28   C     C_2   0.386282 0.129082 0.408242 0.193479
C29   C     C_R   0.804281 0.298165 0.018612 -0.082053
C30   C     C_R   0.804279 0.701834 0.518611 -0.082052
C31   C     C_R   0.304284 0.798162 0.018651 -0.082059
C32   C     C_R   0.304281 0.201835 0.518612 -0.082053
C33   C     C_R   0.796474 0.333316 0.017436 -0.035719
C34   C     C_R   0.796472 0.666683 0.517439 -0.035720
C35   C     C_R   0.296483 0.833314 0.017565 -0.035714
C36   C     C_R   0.296474 0.166684 0.517439 -0.035719
C37   C     C_R   0.761688 0.344040 0.055045 -0.054104
C38   C     C_R   0.761686 0.655959 0.555052 -0.054103
C39   C     C_R   0.261705 0.844039 0.055288 -0.054098
C40   C     C_R   0.261688 0.155960 0.555051 -0.054104
C41   C     C_R   0.839209 0.287339 0.980717 -0.031992
C42   C     C_R   0.839206 0.712661 0.480708 -0.031994
C43   C     C_R   0.339204 0.787335 0.980652 -0.031989
C44   C     C_R   0.339208 0.212661 0.480712 -0.031993
C45   C     C_3   0.006748 0.652027 0.101354 0.356397
C46   C     C_3   0.006752 0.347975 0.601368 0.356388
C47   C     C_3   0.506751 0.152026 0.101368 0.356386
C48   C     C_3   0.506746 0.847972 0.601360 0.356391
C49   C     C_2   0.941049 0.420187 0.860102 -0.291862
C50   C     C_2   0.941049 0.579814 0.360105 -0.291866
C51   C     C_2   0.441047 0.920188 0.860099 -0.291875
C52   C     C_2   0.441049 0.079813 0.360102 -0.291863
C53   C     C_2   0.058127 0.580085 0.326589 -0.289251
C54   C     C_2   0.058127 0.419915 0.826591 -0.289268
C55   C     C_2   0.558128 0.080084 0.326594 -0.289266
C56   C     C_2   0.558127 0.919915 0.826594 -0.289260
C57   C     C_R   0.214255 0.760567 0.123522 0.033702
C58   C     C_R   0.214253 0.239430 0.623515 0.033708
C59   C     C_R   0.714252 0.260569 0.123509 0.033707
C60   C     C_R   0.714249 0.739430 0.623490 0.033706
C61   C     C_R   0.259107 0.714296 0.105757 -0.036107
C62   C     C_R   0.259097 0.285704 0.605629 -0.036118
C63   C     C_R   0.759097 0.214296 0.105634 -0.036118
C64   C     C_R   0.759098 0.785702 0.605665 -0.036118
C65   C     C_R   0.223257 0.725288 0.133514 0.053322
C66   C     C_R   0.223252 0.274710 0.633450 0.053320
C67   C     C_R   0.723251 0.225290 0.133450 0.053320
C68   C     C_R   0.723250 0.774709 0.633455 0.053321
C69   C     C_R   0.177784 0.770153 0.145389 -0.098400
C70   C     C_R   0.177791 0.229842 0.645544 -0.098373
C71   C     C_R   0.677790 0.270157 0.145529 -0.098374
C72   C     C_R   0.677785 0.729843 0.645470 -0.098378
C73   C     C_R   0.151531 0.746310 0.180230 -0.021771
C74   C     C_R   0.151541 0.253684 0.680407 -0.021778
C75   C     C_R   0.651540 0.246315 0.180393 -0.021778
C76   C     C_R   0.651534 0.753686 0.680328 -0.021780
C77   C     C_R   0.160206 0.711676 0.194888 -0.015729
C78   C     C_R   0.160208 0.288320 0.694943 -0.015723
C79   C     C_R   0.660207 0.211679 0.194936 -0.015722
C80   C     C_R   0.660204 0.788321 0.694905 -0.015728
C81   C     C_R   0.196097 0.700832 0.171554 -0.132589
C82   C     C_R   0.196091 0.299167 0.671493 -0.132594
C83   C     C_R   0.696091 0.200833 0.171493 -0.132594
C84   C     C_R   0.696090 0.799165 0.671498 -0.132593
C85   C     C_R   0.204738 0.665712 0.186397 -0.096290
C86   C     C_R   0.204724 0.334288 0.686222 -0.096277
C87   C     C_R   0.704724 0.165712 0.186229 -0.096277
C88   C     C_R   0.704725 0.834286 0.686268 -0.096279
C89   C     C_3   0.016049 0.689968 0.097093 0.237895
C90   C     C_3   0.016059 0.310036 0.597103 0.237861
C91   C     C_3   0.516058 0.189965 0.097103 0.237867
C92   C     C_3   0.516048 0.810032 0.597094 0.237895
C93   C     C_R   0.176814 0.642346 0.224648 0.638876
C94   C     C_R   0.176804 0.357654 0.724519 0.638894
C95   C     C_R   0.676804 0.142346 0.224527 0.638893
C96   C     C_R   0.676805 0.857652 0.724557 0.638892
C97   C     C_R   0.133319 0.687787 0.231093 0.637247
C98   C     C_R   0.133321 0.312209 0.731148 0.637279
C99   C     C_R   0.633320 0.187791 0.231142 0.637276
C100  C     C_R   0.633317 0.812209 0.731110 0.637253
C101  C     C_2   0.091808 0.634233 0.403079 -0.082217
C102  C     C_2   0.091810 0.365769 0.903085 -0.082221
C103  C     C_2   0.591810 0.134231 0.403084 -0.082222
C104  C     C_2   0.591807 0.865767 0.903078 -0.082226
C105  C     C_3   0.057865 0.613014 0.418515 -0.069790
C106  C     C_3   0.057867 0.386987 0.918520 -0.069788
C107  C     C_3   0.557866 0.113013 0.418520 -0.069790
C108  C     C_3   0.557865 0.886986 0.918517 -0.069789
C109  C     C_1   0.080434 0.575732 0.210343 0.025958
C110  C     C_1   0.080431 0.424266 0.710335 0.025955
C111  C     C_1   0.580431 0.075733 0.210337 0.025956
C112  C     C_1   0.580432 0.924267 0.710339 0.025961
C113  C     C_2   0.105513 0.598477 0.174999 -0.076630
C114  C     C_2   0.105505 0.401520 0.674972 -0.076616
C115  C     C_2   0.605505 0.098480 0.174974 -0.076617
C116  C     C_2   0.605506 0.901521 0.674980 -0.076621
C117  C     C_2   0.113063 0.629076 0.279545 0.203072
C118  C     C_2   0.113060 0.370922 0.779529 0.203059
C119  C     C_2   0.613060 0.129078 0.279529 0.203058
C120  C     C_2   0.613059 0.870921 0.779529 0.203063
C121  C     C_R   0.741671 0.285028 0.090858 0.020907
C122  C     C_R   0.741669 0.714971 0.590853 0.020906
C123  C     C_R   0.241679 0.785026 0.090955 0.020905
C124  C     C_R   0.241672 0.214971 0.590863 0.020907
C125  C     C_R   0.777146 0.273807 0.057169 0.055727
C126  C     C_R   0.777144 0.726192 0.557171 0.055729
C127  C     C_R   0.277150 0.773805 0.057219 0.055732
C128  C     C_R   0.277146 0.226193 0.557169 0.055727
C129  C     C_R   0.785782 0.238484 0.061289 0.035019
C130  C     C_R   0.785781 0.761514 0.561300 0.035017
C131  C     C_R   0.285783 0.738482 0.061298 0.035016
C132  C     C_R   0.285782 0.261516 0.561285 0.035018
C133  C     C_3   0.895870 0.522854 0.141452 0.299440
C134  C     C_3   0.895870 0.477146 0.641452 0.299439
C135  C     C_3   0.395870 0.022854 0.141451 0.299439
C136  C     C_3   0.395870 0.977146 0.641456 0.299451
C137  C     C_R   0.734971 0.320580 0.091186 -0.097056
C138  C     C_R   0.734970 0.679419 0.591189 -0.097059
C139  C     C_R   0.234988 0.820579 0.091421 -0.097073
C140  C     C_R   0.234972 0.179420 0.591193 -0.097056
C141  C     C_R   0.846984 0.252436 0.980374 -0.048330
C142  C     C_R   0.846980 0.747564 0.480359 -0.048326
C143  C     C_R   0.346968 0.752429 0.980177 -0.048314
C144  C     C_R   0.346983 0.247564 0.480366 -0.048329
C145  C     C_R   0.267227 0.679305 0.124924 -0.110161
C146  C     C_R   0.267201 0.320699 0.624581 -0.110131
C147  C     C_R   0.767201 0.179301 0.124591 -0.110132
C148  C     C_R   0.767205 0.820695 0.624672 -0.110134
C149  C     C_R   0.241062 0.655440 0.163622 0.425919
C150  C     C_R   0.241035 0.344564 0.663269 0.425931
C151  C     C_R   0.741035 0.155436 0.163280 0.425931
C152  C     C_R   0.741039 0.844561 0.663366 0.425931
C153  C     C_R   0.820983 0.228589 0.019089 -0.091644
C154  C     C_R   0.820980 0.771410 0.519084 -0.091649
C155  C     C_R   0.320968 0.728583 0.018909 -0.091677
C156  C     C_R   0.320983 0.271411 0.519081 -0.091644
C157  C     C_3   0.862440 0.545860 0.128129 -0.339147
C158  C     C_3   0.862439 0.454140 0.628134 -0.339152
C159  C     C_3   0.362439 0.045859 0.128131 -0.339153
C160  C     C_3   0.362438 0.954141 0.628139 -0.339162
C161  C     C_3   0.104016 0.476811 0.047533 0.286884
C162  C     C_3   0.104016 0.523189 0.547539 0.286875
C163  C     C_3   0.604016 0.976811 0.047539 0.286880
C164  C     C_3   0.604017 0.023188 0.547533 0.286882
C165  C     C_3   0.137243 0.453550 0.061297 -0.296682
C166  C     C_3   0.137244 0.546450 0.561306 -0.296674
C167  C     C_3   0.637243 0.953549 0.061305 -0.296682
C168  C     C_3   0.637245 0.046450 0.561300 -0.296675
C169  C     C_3   0.990610 0.647318 0.627147 0.353088
C170  C     C_3   0.990614 0.352679 0.127159 0.353098
C171  C     C_3   0.490614 0.147320 0.627158 0.353102
C172  C     C_3   0.490605 0.852684 0.127141 0.353112
C173  C     C_R   0.823612 0.357077 0.978958 0.598739
C174  C     C_R   0.823610 0.642922 0.478961 0.598741
C175  C     C_R   0.323620 0.857075 0.979070 0.598737
C176  C     C_R   0.323612 0.142923 0.478961 0.598738
H1    H     H_    0.971620 0.629713 0.683974 0.024002
H2    H     H_    0.971622 0.370282 0.183983 0.023998
H3    H     H_    0.471622 0.129717 0.683984 0.023999
H4    H     H_    0.471617 0.870289 0.183975 0.023992
H5    H     H_    0.840474 0.534964 0.197319 0.140443
H6    H     H_    0.840474 0.465036 0.697329 0.140446
H7    H     H_    0.340473 0.034963 0.197324 0.140447
H8    H     H_    0.340472 0.965038 0.697324 0.140437
H9    H     H_    0.869563 0.571496 0.175683 0.071477
H10   H     H_    0.869563 0.428504 0.675685 0.071478
H11   H     H_    0.369562 0.071495 0.175684 0.071479
H12   H     H_    0.369560 0.928505 0.675701 0.071467
H13   H     H_    0.852287 0.548430 0.001193 0.134699
H14   H     H_    0.852286 0.451570 0.501199 0.134697
H15   H     H_    0.352286 0.048429 0.001196 0.134696
H16   H     H_    0.352286 0.951569 0.501203 0.134703
H17   H     H_    0.095035 0.479815 0.920252 0.006324
H18   H     H_    0.095036 0.520186 0.420259 0.006320
H19   H     H_    0.595035 0.979814 0.920259 0.006323
H20   H     H_    0.595037 0.020184 0.420252 0.006326
H21   H     H_    0.081941 0.464897 0.112515 0.069788
H22   H     H_    0.081942 0.535103 0.612525 0.069785
H23   H     H_    0.581942 0.964897 0.112524 0.069783
H24   H     H_    0.581942 0.035103 0.612513 0.069781
H25   H     H_    0.159439 0.464373 0.993227 0.159429
H26   H     H_    0.159439 0.535628 0.493229 0.159447
H27   H     H_    0.659439 0.964372 0.993231 0.159441
H28   H     H_    0.659440 0.035626 0.493232 0.159435
H29   H     H_    0.129975 0.428021 0.012730 0.066636
H30   H     H_    0.129975 0.571980 0.512747 0.066648
H31   H     H_    0.629974 0.928020 0.012743 0.066639
H32   H     H_    0.629977 0.071979 0.512730 0.066637
H33   H     H_    0.147150 0.450747 0.188426 0.146026
H34   H     H_    0.147152 0.549251 0.688435 0.146003
H35   H     H_    0.647151 0.950748 0.188434 0.146015
H36   H     H_    0.647151 0.049252 0.688429 0.146023
H37   H     H_    0.989770 0.641621 0.497477 -0.057542
H38   H     H_    0.989774 0.358375 0.997487 -0.057544
H39   H     H_    0.489773 0.141624 0.497487 -0.057546
H40   H     H_    0.489765 0.858383 0.997473 -0.057561
H41   H     H_    0.947425 0.684388 0.607471 0.094010
H42   H     H_    0.947435 0.315603 0.107484 0.094023
H43   H     H_    0.447434 0.184395 0.607483 0.094017
H44   H     H_    0.447418 0.815616 0.107442 0.093973
H45   H     H_    0.979716 0.692112 0.770980 0.115498
H46   H     H_    0.979726 0.307885 0.271003 0.115483
H47   H     H_    0.479726 0.192114 0.770999 0.115487
H48   H     H_    0.479706 0.807890 0.270965 0.115490
H49   H     H_    0.029112 0.697801 0.214447 0.113506
H50   H     H_    0.029119 0.302203 0.714461 0.113524
H51   H     H_    0.529119 0.197797 0.214460 0.113522
H52   H     H_    0.529112 0.802199 0.714445 0.113508
H53   H     H_    0.881286 0.403159 0.126621 0.121342
H54   H     H_    0.881286 0.596841 0.626622 0.121345
H55   H     H_    0.381300 0.903151 0.126668 0.121386
H56   H     H_    0.381286 0.096841 0.626622 0.121343
H57   H     H_    0.754877 0.370884 0.057062 0.128067
H58   H     H_    0.754876 0.629115 0.557077 0.128067
H59   H     H_    0.254901 0.870884 0.057407 0.128063
H60   H     H_    0.254877 0.129115 0.557070 0.128067
H61   H     H_    0.096665 0.655869 0.482083 0.123335
H62   H     H_    0.096672 0.344137 0.982107 0.123363
H63   H     H_    0.596671 0.155863 0.482103 0.123361
H64   H     H_    0.596667 0.844133 0.982089 0.123350
H65   H     H_    0.124039 0.755300 0.195565 0.144451
H66   H     H_    0.124057 0.244692 0.695863 0.144419
H67   H     H_    0.624055 0.255307 0.195843 0.144421
H68   H     H_    0.624048 0.744695 0.695746 0.144429
H69   H     H_    0.168192 0.795991 0.133771 0.078393
H70   H     H_    0.168207 0.204002 0.634083 0.078370
H71   H     H_    0.668205 0.295997 0.134061 0.078371
H72   H     H_    0.668199 0.704004 0.633968 0.078376
H73   H     H_    0.709389 0.331420 0.121390 0.077305
H74   H     H_    0.709388 0.668579 0.621402 0.077308
H75   H     H_    0.209415 0.831417 0.121768 0.077312
H76   H     H_    0.209390 0.168579 0.621397 0.077305
H77   H     H_    0.900652 0.346046 0.696821 0.115848
H78   H     H_    0.900649 0.653952 0.196813 0.115853
H79   H     H_    0.400644 0.846052 0.696800 0.115869
H80   H     H_    0.400651 0.153953 0.196817 0.115849
H81   H     H_    0.873471 0.243244 0.949579 0.140566
H82   H     H_    0.873466 0.756755 0.449552 0.140569
H83   H     H_    0.373445 0.743236 0.949247 0.140564
H84   H     H_    0.373470 0.256756 0.449568 0.140566
H85   H     H_    0.294291 0.669408 0.113595 0.122596
H86   H     H_    0.294246 0.330605 0.613021 0.122575
H87   H     H_    0.794246 0.169395 0.113035 0.122574
H88   H     H_    0.794253 0.830599 0.613161 0.122575
H89   H     H_    0.120560 0.595223 0.069160 0.121682
H90   H     H_    0.120544 0.404768 0.569108 0.121730
H91   H     H_    0.620545 0.095231 0.069112 0.121726
H92   H     H_    0.620549 0.904771 0.569126 0.121710
H93   H     H_    0.829393 0.202420 0.011610 0.090089
H94   H     H_    0.829388 0.797580 0.511593 0.090096
H95   H     H_    0.329358 0.702410 0.011235 0.090132
H96   H     H_    0.329393 0.297580 0.511599 0.090089
H97   H     H_    0.963725 0.437392 0.845606 0.078500
H98   H     H_    0.963726 0.562609 0.345615 0.078499
H99   H     H_    0.463723 0.937393 0.845602 0.078499
H100  H     H_    0.463725 0.062608 0.345608 0.078500
H101  H     H_    0.035712 0.562629 0.341813 0.079584
H102  H     H_    0.035711 0.437371 0.841815 0.079587
H103  H     H_    0.535712 0.062628 0.341823 0.079586
H104  H     H_    0.535712 0.937372 0.841824 0.079586
H105  H     H_    0.030523 0.636516 0.069102 0.080825
H106  H     H_    0.030525 0.363490 0.569123 0.080810
H107  H     H_    0.530525 0.136512 0.069126 0.080807
H108  H     H_    0.530522 0.863484 0.569115 0.080807
H109  H     H_    0.001489 0.646254 0.227021 -0.133938
H110  H     H_    0.001491 0.353746 0.727033 -0.133931
H111  H     H_    0.501490 0.146255 0.227032 -0.133927
H112  H     H_    0.501486 0.853744 0.727025 -0.133920
H113  H     H_    0.990826 0.705379 0.074512 0.076544
H114  H     H_    0.990839 0.294621 0.574504 0.076546
H115  H     H_    0.490837 0.205379 0.074508 0.076547
H116  H     H_    0.490825 0.794620 0.574518 0.076559
H117  H     H_    0.905128 0.520088 0.268594 0.009632
H118  H     H_    0.905129 0.479912 0.768592 0.009633
H119  H     H_    0.405128 0.020088 0.268592 0.009635
H120  H     H_    0.405127 0.979913 0.768597 0.009637
H121  H     H_    0.917673 0.534860 0.075063 0.071730
H122  H     H_    0.917672 0.465140 0.575059 0.071729
H123  H     H_    0.417672 0.034860 0.075059 0.071725
H124  H     H_    0.417671 0.965139 0.575068 0.071723
N1    N     N_R   0.858079 0.346169 0.943452 -0.424795
N2    N     N_R   0.858077 0.653830 0.443448 -0.424796
N3    N     N_R   0.358081 0.846167 0.943475 -0.424796
N4    N     N_R   0.358079 0.153830 0.443451 -0.424795
N5    N     N_R   0.141604 0.653480 0.245049 -0.437371
N6    N     N_R   0.141600 0.346519 0.745023 -0.437359
N7    N     N_R   0.641600 0.153481 0.245024 -0.437360
N8    N     N_R   0.641599 0.846518 0.745023 -0.437364
O1    O     O_2   0.072110 0.546320 0.923350 -0.459318
O2    O     O_2   0.072110 0.453680 0.423350 -0.459314
O3    O     O_2   0.572110 0.046320 0.923350 -0.459314
O4    O     O_2   0.572110 0.953680 0.423350 -0.459325
O5    O     O_3   0.886222 0.509048 0.577672 -0.621291
O6    O     O_3   0.886222 0.490951 0.077670 -0.621293
O7    O     O_3   0.386222 0.009048 0.577670 -0.621294
O8    O     O_3   0.386222 0.990951 0.077670 -0.621287
O9    O     O_3   0.976147 0.644882 0.995441 -0.614095
O10   O     O_3   0.976151 0.355118 0.495451 -0.614092
O11   O     O_3   0.476150 0.144882 0.995449 -0.614090
O12   O     O_3   0.476146 0.855118 0.495442 -0.614086
O13   O     O_3   0.958050 0.483830 0.034350 -0.495134
O14   O     O_3   0.958050 0.516170 0.534350 -0.495135
O15   O     O_3   0.458050 0.983830 0.034350 -0.495137
O16   O     O_3   0.458050 0.016170 0.534350 -0.495133
O17   O     O_2   0.816326 0.387451 0.975003 -0.592392
O18   O     O_2   0.816325 0.612548 0.475013 -0.592390
O19   O     O_2   0.316338 0.887450 0.975180 -0.592395
O20   O     O_2   0.316326 0.112549 0.475009 -0.592391
O21   O     O_2   0.102265 0.697604 0.249198 -0.568458
O22   O     O_2   0.102271 0.302390 0.749324 -0.568481
O23   O     O_2   0.602270 0.197609 0.249312 -0.568483
O24   O     O_2   0.602265 0.802392 0.749252 -0.568477
O25   O     O_2   0.896059 0.301631 0.911744 -0.596064
O26   O     O_2   0.896055 0.698370 0.411718 -0.596050
O27   O     O_2   0.396051 0.801625 0.911626 -0.596030
O28   O     O_2   0.396059 0.198369 0.411736 -0.596061
O29   O     O_2   0.183810 0.612141 0.241862 -0.511594
O30   O     O_2   0.183799 0.387859 0.741690 -0.511586
O31   O     O_2   0.683799 0.112141 0.241705 -0.511585
O32   O     O_2   0.683801 0.887857 0.741753 -0.511585
O33   O     O_3   0.042000 0.516250 0.155330 -0.495914
O34   O     O_3   0.042000 0.483750 0.655330 -0.495918
O35   O     O_3   0.542000 0.016250 0.155330 -0.495918
O36   O     O_3   0.542000 0.983750 0.655330 -0.495915
O37   O     O_3   0.012540 0.574900 0.645500 -0.489488
O38   O     O_3   0.012540 0.425100 0.145500 -0.489488
O39   O     O_3   0.512540 0.074900 0.645500 -0.489487
O40   O     O_3   0.512540 0.925100 0.145500 -0.489490
O41   O     O_2   0.078472 0.598800 0.745922 -0.472560
O42   O     O_2   0.078474 0.401204 0.245919 -0.472563
O43   O     O_2   0.578473 0.098797 0.745920 -0.472563
O44   O     O_2   0.578470 0.901197 0.245929 -0.472561
O45   O     O_3   0.113776 0.508553 0.112795 -0.614312
O46   O     O_3   0.113777 0.491446 0.612795 -0.614300
O47   O     O_3   0.613776 0.008553 0.112795 -0.614300
O48   O     O_3   0.613777 0.991447 0.612797 -0.614303
O49   O     O_3   0.026040 0.643956 0.701721 -0.544585
O50   O     O_3   0.026045 0.356045 0.201735 -0.544579
O51   O     O_3   0.526044 0.143955 0.701733 -0.544579
O52   O     O_3   0.526036 0.856043 0.201715 -0.544577
O53   O     O_2   0.928110 0.546600 0.766510 -0.460698
O54   O     O_2   0.928110 0.453400 0.266510 -0.460702
O55   O     O_2   0.428110 0.046600 0.766510 -0.460703
O56   O     O_2   0.428110 0.953400 0.266510 -0.460699
O57   O     O_3   0.987780 0.574950 0.044470 -0.474136
O58   O     O_3   0.987780 0.425050 0.544470 -0.474137
O59   O     O_3   0.487780 0.074950 0.044470 -0.474136
O60   O     O_3   0.487780 0.925050 0.544470 -0.474135
O61   O     O_2   0.923322 0.600596 0.935592 -0.494888
O62   O     O_2   0.923324 0.399401 0.435589 -0.494886
O63   O     O_2   0.423324 0.100599 0.935588 -0.494887
O64   O     O_2   0.423322 0.899403 0.435588 -0.494897
P1    P     P_3+3 0.075650 0.535480 0.098240 1.002888
P2    P     P_3+3 0.075650 0.464520 0.598240 1.002899
P3    P     P_3+3 0.575650 0.035480 0.098240 1.002898
P4    P     P_3+3 0.575650 0.964520 0.598240 1.002895
P5    P     P_3+3 0.924520 0.535770 0.591580 0.994743
P6    P     P_3+3 0.924520 0.464230 0.091580 0.994741
P7    P     P_3+3 0.424520 0.035770 0.591580 0.994741
P8    P     P_3+3 0.424520 0.964230 0.091580 0.994746
P9    P     P_3+3 0.955665 0.607461 0.059450 0.948337
P10   P     P_3+3 0.955666 0.392538 0.559451 0.948339
P11   P     P_3+3 0.455666 0.107462 0.059451 0.948339
P12   P     P_3+3 0.455664 0.892539 0.559448 0.948338
P13   P     P_3+3 0.045186 0.393145 0.128826 0.985909
P14   P     P_3+3 0.045185 0.606857 0.628823 0.985902
P15   P     P_3+3 0.545183 0.893142 0.128824 0.985913
P16   P     P_3+3 0.545186 0.106855 0.628826 0.985911
O65   O     O_3   0.995373 0.705965 0.547524 -0.695048
H125  H     H_    0.020049 0.709591 0.600829 0.360992
O66   O     O_3   0.995387 0.294031 0.047553 -0.695048
H126  H     H_    0.020063 0.290408 0.100867 0.360999
O67   O     O_3   0.495385 0.205968 0.547544 -0.695052
H127  H     H_    0.520061 0.209592 0.600854 0.360999
O68   O     O_3   0.495366 0.794037 0.047513 -0.695044
H128  H     H_    0.520041 0.790409 0.100829 0.360996
Cl1   Cl    Cl    0.256543 0.612859 0.181061 -0.537409
Cl2   Cl    Cl    0.256493 0.387149 0.680415 -0.537450
Cl3   Cl    Cl    0.756493 0.112851 0.180434 -0.537453
Cl4   Cl    Cl    0.756503 0.887143 0.680596 -0.537448
Cl5   Cl    Cl    0.047308 0.699252 0.949523 -0.640683
Cl6   Cl    Cl    0.047324 0.300758 0.449553 -0.640701
Cl7   Cl    Cl    0.547321 0.199243 0.949549 -0.640698
Cl8   Cl    Cl    0.547304 0.800749 0.449517 -0.640679

loop_
_geom_bond_atom_site_label_1
_geom_bond_atom_site_label_2
_ccdc_geom_bond_type
Ba2   O33   S    
Ba3   O15   S    
C51   H99   S    
C83   C87   A    
C52   H100  S    
C29   C41   A    
C145  H85   S    
C31   C43   A    
Ba4   O4    S    
C161  C165  S    
C136  H120  S    
O59   P11   S    
O57   P9    S    
C10   C26   D    
O36   P4    S    
C165  H25   S    
C152  Cl4   S    
C91   Cl7   S    
C29   C125  A    
C6    N2    Am   
C3    O67   S    
O38   P13   S    
C58   C66   A    
C173  O17   D    
C162  H22   S    
O12   P12   S    
C145  C149  A    
Ba2   O54   S    
C70   H70   S    
C105  P14   S    
C36   C176  A    
C53   H101  S    
C53   C105  S    
C148  C152  A    
C27   N3    S    
O8    P8    S    
C94   N6    Am   
C55   C107  S    
Ba2   O2    S    
C147  C151  A    
C76   C80   A    
C50   H98   S    
Ba3   O59   S    
O34   P2    S    
C103  H63   S    
C126  C130  A    
O41   P14   D    
C104  C120  D    
C101  H61   S    
C21   C25   S    
C131  C155  A    
C23   C27   S    
C24   C28   S    
C109  P1    S    
C82   C86   A    
C14   P9    S    
C163  C167  S    
C2    C170  S    
Ba2   O14   S    
O45   P1    S    
C11   C15   S    
C162  H18   S    
C47   H111  S    
O62   P10   D    
C3    H43   S    
C74   C78   A    
C32   C36   A    
C12   C16   S    
C171  O51   S    
C134  C158  S    
C123  C139  A    
C19   C51   D    
C124  C140  A    
C61   C131  A    
C39   H59   S    
C62   C132  A    
O14   P5    S    
C157  H9    S    
C169  O49   S    
Ba1   O53   S    
Ba3   P7    S    
C143  H83   S    
C72   H72   S    
C158  H10   S    
C115  H91   S    
C171  H3    S    
C47   H107  S    
C172  H4    S    
C54   C106  S    
C80   C84   A    
C160  H8    S    
C116  H92   S    
C113  H89   S    
C166  H26   S    
C115  C119  S    
C20   C52   D    
C165  H33   S    
O65   H125  S    
C48   O12   S    
C26   N2    S    
C133  C157  S    
C62   C66   A    
C3    H47   S    
C99   N7    Am   
C176  O20   D    
C8    N4    Am   
C1    H45   S    
C61   C145  A    
C123  C127  A    
Ba4   P8    S    
O1    P1    D    
C164  H24   S    
C69   C73   A    
C45   C89   S    
C87   C95   A    
O46   P2    S    
C71   C75   A    
O7    P7    S    
Ba3   O3    S    
C2    H42   S    
C133  H117  S    
C16   C52   S    
C170  H2    S    
C38   H58   S    
C18   C50   D    
C42   C142  A    
C148  H88   S    
C161  O45   S    
C46   O10   S    
C79   C99   A    
C41   C141  A    
Ba2   P6    S    
C174  N2    Am   
C32   C128  A    
C144  C156  A    
C96   N8    Am   
C61   C65   A    
C16   P11   S    
O68   H128  S    
C98   N6    Am   
Ba4   O16   S    
C114  C118  S    
O4    P4    D    
C9    H77   S    
C112  P4    S    
C89   Cl5   S    
Ba4   O60   S    
O50   P13   S    
C121  C137  A    
C120  N8    S    
C30   C42   A    
C134  H118  S    
C135  H123  S    
C136  H124  S    
C22   H54   S    
C139  H75   S    
O58   P10   S    
C104  H64   S    
C40   H60   S    
O40   P15   S    
C69   H69   S    
C174  O18   D    
C43   C143  A    
C7    N3    Am   
C157  H13   S    
O37   P14   S    
O6    P6    S    
C46   C90   S    
C106  P13   S    
C53   C109  D    
C112  C116  D    
C5    O25   D    
C75   H67   S    
O51   P16   S    
C121  C125  A    
C166  H30   S    
Ba2   O38   S    
C128  C132  A    
C102  C118  D    
C78   C98   A    
C89   H113  S    
C93   O29   D    
C144  H84   S    
C18   C22   D    
C95   O31   D    
C24   H56   S    
C109  C113  D    
O53   P5    D    
C130  C154  A    
C22   C26   S    
C111  C115  D    
C141  H81   S    
C80   C100  A    
O15   P8    S    
C56   C112  D    
C86   C150  A    
C167  H27   S    
Ba3   Ba4   S    
C65   C81   A    
C90   H50   S    
C151  Cl3   S    
C17   C21   D    
C149  Cl1   S    
O64   P12   D    
C1    C169  S    
O11   P11   S    
C20   C24   D    
C48   H108  S    
C20   P7    S    
C35   C175  A    
C160  H16   S    
C11   C27   D    
C142  C154  A    
C58   C124  A    
C136  C160  S    
C33   C173  A    
C138  H74   S    
C9    C13   S    
C135  C159  S    
Ba4   O56   S    
C31   C127  A    
C168  H36   S    
O67   H127  S    
O55   P7    D    
Ba1   O57   S    
C100  N8    Am   
Ba3   P3    S    
O43   P16   D    
C32   C44   A    
C129  C153  A    
C33   C37   A    
C132  C156  A    
C36   C40   A    
C117  N5    S    
C47   C91   S    
C54   C110  D    
C163  H19   S    
O5    P5    S    
O10   P10   S    
C160  H12   S    
C6    O26   D    
C77   C81   A    
Ba3   O36   S    
C114  H90   S    
C66   C82   A    
C79   C83   A    
C176  N4    Am   
C5    C41   A    
Ba2   O58   S    
C7    C43   A    
C103  C119  D    
C38   C138  A    
C8    C44   A    
O47   P3    S    
C94   O30   D    
C37   H57   S    
C49   H97   S    
C140  H76   S    
Ba4   P4    S    
C9    C25   D    
C169  H37   S    
C91   H51   S    
C62   C146  A    
C100  O24   D    
C37   C137  A    
C153  H93   S    
C71   H71   S    
C122  C126  A    
C108  P15   S    
C89   H49   S    
C97   O21   D    
C161  H21   S    
C157  H5    S    
C95   N7    Am   
C76   H68   S    
C133  H121  S    
C156  H96   S    
C163  H23   S    
C90   Cl6   S    
C146  H86   S    
Ba1   O14   S    
C4    H44   S    
O44   P15   D    
C167  H35   S    
Ba3   O16   S    
C13   C49   S    
C169  H1    S    
O35   P3    S    
O3    P3    D    
C98   O22   D    
C103  C107  S    
C102  H62   S    
C175  N3    Am   
C4    H48   S    
O2    P2    D    
O16   P7    S    
C110  P2    S    
C72   C76   A    
O52   P15   S    
Ba1   O37   S    
C10   H78   S    
Ba3   O55   S    
C81   C85   A    
Ba3   O39   S    
C57   C69   A    
C78   C82   A    
C122  C138  A    
C29   C33   A    
C104  C108  S    
C91   H115  S    
C134  H122  S    
C31   C35   A    
C135  H119  S    
C64   C148  A    
C161  H17   S    
O9    P9    S    
O60   P12   S    
C159  H15   S    
C4    C172  S    
C67   C83   A    
C147  H87   S    
O13   P6    S    
C60   C122  A    
C107  P16   S    
C12   C28   D    
C170  O50   S    
C8    O28   D    
C135  O8    S    
C15   C51   S    
C136  O7    S    
C28   N4    S    
C164  H20   S    
Ba4   O40   S    
O66   H126  S    
C166  H34   S    
Ba2   O13   S    
C54   H102  S    
C137  H73   S    
C90   H114  S    
C64   C130  A    
C75   C79   A    
C101  C105  S    
C12   H80   S    
C2    H46   S    
C142  H82   S    
C63   C67   A    
C111  P3    S    
C164  C168  S    
C5    N1    Am   
C70   C74   A    
C150  Cl2   S    
C58   C70   A    
C1    H41   S    
C163  O47   S    
C34   C174  A    
Ba1   O1    S    
C10   C14   S    
C45   H109  S    
C143  C155  A    
C162  O46   S    
C47   O11   S    
O42   P13   D    
C45   H105  S    
C172  O52   S    
C59   C71   A    
C63   C129  A    
C34   C38   A    
C127  C131  A    
C93   N5    Am   
C118  N6    S    
C141  C153  A    
C159  H7    S    
Ba1   Ba2   S    
C15   P12   S    
C113  C117  S    
C74   H66   S    
C13   P10   S    
C84   C88   A    
C99   O23   D    
C3    C171  S    
C6    C42   A    
O63   P11   D    
C56   H104  S    
C1    O65   S    
C73   C77   A    
C46   H110  S    
O61   P9    D    
C73   H65   S    
C64   C68   A    
Ba2   P2    S    
C21   H53   S    
C46   H106  S    
Ba1   P5    S    
C48   H112  S    
C124  C128  A    
C68   C84   A    
C175  O19   D    
C154  H94   S    
C4    O68   S    
Ba1   P1    S    
C96   O32   D    
C63   C147  A    
C168  H28   S    
C92   H52   S    
C57   C123  A    
C158  H6    S    
C35   C39   A    
C17   P6    S    
Ba4   O15   S    
C85   C93   A    
C19   P8    S    
C92   H116  S    
C87   C151  A    
Ba1   O34   S    
C56   C108  S    
C167  H31   S    
C85   C149  A    
C40   C140  A    
C165  H29   S    
C158  H14   S    
C60   C72   A    
C101  C117  D    
C88   C152  A    
C25   N1    S    
C110  C114  D    
C55   H103  S    
O54   P6    D    
C170  H38   S    
C19   C23   D    
C125  C129  A    
C59   C121  A    
C172  H40   S    
C133  O6    S    
C92   Cl8   S    
C45   O9    S    
C11   H79   S    
C88   C96   A    
C39   C139  A    
C102  C106  S    
C57   C65   A    
C2    O66   S    
C159  H11   S    
C30   C34   A    
C171  H39   S    
C59   C67   A    
C168  H32   S    
C119  N7    S    
C23   H55   S    
C164  O48   S    
Ba4   O35   S    
C155  H95   S    
C17   C49   D    
O33   P1    S    
C44   C144  A    
O39   P16   S    
C162  C166  S    
O48   P4    S    
C48   C92   S    
C173  N1    Am   
C60   C68   A    
O56   P8    D    
C134  O5    S    
C14   C50   S    
C97   N5    Am   
C30   C126  A    
C55   C111  D    
C146  C150  A    
C77   C97   A    
C18   P5    S    
C7    O27   D    
C86   C94   A    
Ba1   O13   S    
C116  C120  S    
O49   P14   S    
