data_mof_unit_49382.cif
_audit_creation_date              2012-12-10T20:48:46-0500
_audit_creation_method            fapswitch 2.2
_symmetry_space_group_name_H-M    P1
_symmetry_Int_Tables_number       1
_space_group_crystal_system       triclinic
_cell_length_a                    15.749665
_cell_length_b                    8.923294
_cell_length_c                    8.108012
_cell_angle_alpha                 90.018404
_cell_angle_beta                  89.997525
_cell_angle_gamma                 89.927979
_cell_volume                      1139.49005619

loop_
_atom_site_label
_atom_site_type_symbol
_atom_type_description
_atom_site_fract_x
_atom_site_fract_y
_atom_site_fract_z
_atom_type_partial_charge
C1    C     C_R   0.500054 0.217993 0.499983 0.931622
C2    C     C_3   0.046922 0.395415 0.388434 -0.440993
C3    C     C_3   0.951125 0.510173 0.671998 -0.456517
C4    C     C_3   0.949865 0.401974 0.385425 -0.448023
C5    C     C_1   0.750854 0.510508 0.499465 -0.197165
C6    C     C_1   0.249008 0.507813 0.499536 -0.176732
C7    C     C_3   0.082557 0.526742 0.493996 0.258060
C8    C     C_3   0.917230 0.534177 0.493399 0.218274
C9    C     C_3   0.949334 0.690472 0.420312 0.351330
C10   C     C_3   0.052516 0.689857 0.433059 0.377291
C11   C     C_3   0.095763 0.955100 0.521439 -0.850026
C12   C     C_1   0.825832 0.522510 0.497420 -0.071258
C13   C     C_3   0.106589 0.634741 0.135146 -0.814406
C14   C     C_3   0.823563 0.858458 0.499319 -0.777565
C15   C     C_3   0.923385 0.847459 0.162317 -0.786612
C16   C     C_1   0.173897 0.516347 0.497605 -0.033265
C17   C     C_R   0.337758 0.500147 0.499974 0.902460
C18   C     C_R   0.662234 0.500025 0.499963 0.898840
C19   C     C_1   0.500121 0.934770 0.500022 -0.192821
C20   C     C_1   0.500111 0.065192 0.499974 -0.194084
C21   C     C_R   0.500075 0.781976 0.500016 0.936876
C22   C     C_3   0.048460 0.494115 0.670782 -0.495534
H1    H     H_    0.923234 0.406455 0.725877 0.197469
H2    H     H_    0.108457 0.018384 0.636888 0.237408
H3    H     H_    0.038848 0.004520 0.462236 0.241559
H4    H     H_    0.152365 0.968778 0.441323 0.257425
H5    H     H_    0.085211 0.842159 0.238493 0.247169
H6    H     H_    0.128298 0.701882 0.027717 0.226613
H7    H     H_    0.046783 0.578921 0.097896 0.251583
H8    H     H_    0.158368 0.553920 0.160930 0.251847
H9    H     H_    0.931748 0.828206 0.636301 0.213777
H10   H     H_    0.786597 0.815494 0.605960 0.231410
H11   H     H_    0.794115 0.815628 0.384705 0.257830
H12   H     H_    0.924458 0.293793 0.433220 0.190809
H13   H     H_    0.818749 0.982546 0.499222 0.236253
H14   H     H_    0.871862 0.638056 0.209366 0.217337
H15   H     H_    0.857614 0.882881 0.131753 0.232241
H16   H     H_    0.959009 0.836522 0.044819 0.232968
H17   H     H_    0.952604 0.936865 0.238150 0.251385
H18   H     H_    0.065309 0.377669 0.708363 0.196090
H19   H     H_    0.066474 0.286738 0.444414 0.182207
H20   H     H_    0.072387 0.386377 0.262517 0.181560
H21   H     H_    0.078135 0.564196 0.767715 0.175512
H22   H     H_    0.927633 0.410800 0.255799 0.171702
H23   H     H_    0.932034 0.603358 0.754808 0.172985
H24   H     H_    0.062687 0.782835 0.679050 0.205127
N1    N     N_1   0.500000 0.500030 0.073640 -0.032861
N2    N     N_1   0.500000 0.500030 0.926360 -0.032815
N3    N     N_2   0.082373 0.797791 0.559450 -0.313409
N4    N     N_2   0.093552 0.732904 0.275277 -0.269591
N5    N     N_2   0.912291 0.815845 0.516152 -0.305473
N6    N     N_2   0.922369 0.703328 0.246327 -0.298524
O1    O     O_R   0.500000 0.285340 0.636850 -0.615845
O2    O     O_R   0.500000 0.285340 0.363150 -0.616159
O3    O     O_R   0.377140 0.500000 0.636930 -0.614417
O4    O     O_R   0.377140 0.500000 0.363070 -0.614288
O5    O     O_R   0.622860 0.500000 0.636930 -0.615841
O6    O     O_R   0.622860 0.500000 0.363070 -0.618315
O7    O     O_R   0.500000 0.714650 0.636900 -0.615030
O8    O     O_R   0.500000 0.714650 0.363100 -0.614784
Zn1   Zn    Zn3+2 0.500000 0.499990 0.682780 0.989118
Zn2   Zn    Zn3+2 0.500000 0.499990 0.317220 0.988211

loop_
_geom_bond_atom_site_label_1
_geom_bond_atom_site_label_2
_ccdc_geom_bond_type
O6    Zn2   S    
C7    C10   S    
C2    C4    S    
C1    O2    A    
C15   H16   S    
O5    Zn1   S    
C11   N3    S    
C7    C22   S    
C4    H22   S    
C9    C10   S    
C17   O3    A    
C18   O5    A    
C3    H1    S    
C19   C20   T    
H14   N6    S    
H5    N4    S    
C8    C12   S    
C4    C8    S    
O4    Zn2   S    
C22   H18   S    
N1    Zn2   S    
C3    H23   S    
C13   H6    S    
C15   N6    S    
C17   O4    A    
C15   H17   S    
N2    Zn1   S    
C9    N6    S    
C14   H11   S    
O3    Zn1   S    
C13   H7    S    
C7    C16   S    
C19   C21   S    
C2    H20   S    
C21   O7    A    
C4    H12   S    
C14   N5    S    
H24   N3    S    
O7    Zn1   S    
C11   H3    S    
C2    H19   S    
C6    C16   T    
C13   N4    S    
C10   N4    S    
C11   H2    S    
C21   O8    A    
C13   H8    S    
C5    C12   T    
O8    Zn2   S    
C3    C8    S    
C11   H4    S    
C14   H10   S    
C14   H13   S    
C6    C17   S    
C1    O1    A    
C15   H15   S    
C3    C22   S    
C5    C18   S    
O2    Zn2   S    
C2    C7    S    
C10   N3    S    
O1    Zn1   S    
C18   O6    A    
C22   H21   S    
N1    N2    T    
H9    N5    S    
C8    C9    S    
C1    C20   S    
C9    N5    S    
