data_mof_unit_58297.cif
_audit_creation_date              2012-12-10T21:00:39-0500
_audit_creation_method            fapswitch 2.2
_symmetry_space_group_name_H-M    P1
_symmetry_Int_Tables_number       1
_space_group_crystal_system       triclinic
_cell_length_a                    18.044111
_cell_length_b                    18.176019
_cell_length_c                    18.415699
_cell_angle_alpha                 120.331047
_cell_angle_beta                  90.040386
_cell_angle_gamma                 119.799881
_cell_volume                      4260.70888694

loop_
_atom_site_label
_atom_site_type_symbol
_atom_type_description
_atom_site_fract_x
_atom_site_fract_y
_atom_site_fract_z
_atom_type_partial_charge
C1    C     C_R   0.111580 0.220313 0.609383 0.776371
C2    C     C_3   0.450555 0.897385 0.947435 0.050582
C3    C     C_R   0.123204 0.700303 0.259921 -0.156074
C4    C     C_R   0.182958 0.805723 0.294331 -0.113049
C5    C     C_R   0.276128 0.851774 0.313674 -0.106510
C6    C     C_R   0.309709 0.792537 0.298921 -0.130477
C7    C     C_R   0.250164 0.687127 0.264570 -0.122602
C8    C     C_2   0.850775 0.513232 0.966805 0.935666
C9    C     C_2   0.149226 0.486767 0.033195 0.935666
C10   C     C_R   0.580900 0.409278 0.521869 0.091655
C11   C     C_R   0.562782 0.386397 0.584789 -0.154076
C12   C     C_R   0.598430 0.340378 0.599674 -0.127596
C13   C     C_3   0.445213 0.032136 0.016119 -0.138243
C14   C     C_R   0.652549 0.316736 0.551855 -0.138221
C15   C     C_R   0.670893 0.338886 0.488991 -0.149912
C16   C     C_R   0.634824 0.384279 0.473490 -0.129929
C17   C     C_R   0.419106 0.590720 0.478134 0.091650
C18   C     C_R   0.437226 0.613600 0.415214 -0.154040
C19   C     C_R   0.401581 0.659621 0.400328 -0.127576
C20   C     C_R   0.347465 0.683268 0.448149 -0.138233
C21   C     C_R   0.329122 0.661123 0.511016 -0.149911
C22   C     C_R   0.365187 0.615725 0.526516 -0.129937
C23   C     C_3   0.554785 0.967864 0.983871 -0.138246
C24   C     C_3   0.437066 0.402480 0.474280 -0.203526
C25   C     C_3   0.562936 0.597514 0.525722 -0.203536
C26   C     C_3   0.540622 0.458511 0.507650 0.040869
C27   C     C_3   0.459380 0.541482 0.492352 0.040861
C28   C     C_3   0.550681 0.497347 0.448692 0.001047
C29   C     C_3   0.449320 0.502646 0.551309 0.001042
C30   C     C_3   0.447516 0.441572 0.414482 -0.197662
C31   C     C_R   0.888422 0.779687 0.390617 0.776371
C32   C     C_3   0.552485 0.558420 0.585519 -0.197666
C33   C     C_R   0.321433 0.211077 0.717308 -0.185715
C34   C     C_R   0.678568 0.788945 0.282717 -0.185725
C35   C     C_R   0.392973 0.781223 0.888305 0.769431
C36   C     C_R   0.607026 0.218777 0.111692 0.769436
C37   C     C_R   0.246817 0.156298 0.642474 -0.008396
C38   C     C_R   0.753190 0.843725 0.357545 -0.008408
C39   C     C_R   0.157819 0.105517 0.646189 0.033728
C40   C     C_R   0.842184 0.894487 0.353816 0.033722
C41   C     C_R   0.146356 0.108879 0.723028 -0.121177
C42   C     C_3   0.931377 0.401039 0.435591 -0.178459
C43   C     C_R   0.853637 0.891115 0.276971 -0.121180
C44   C     C_R   0.221370 0.162738 0.795993 -0.121242
C45   C     C_R   0.778617 0.837260 0.204015 -0.121229
C46   C     C_R   0.308649 0.213734 0.793099 -0.136860
C47   C     C_R   0.691342 0.786275 0.206919 -0.136876
C48   C     C_R   0.018066 0.944341 0.519669 -0.204426
C49   C     C_R   0.981940 0.055659 0.480330 -0.204448
C50   C     C_R   0.943637 0.892085 0.446636 -0.004721
C51   C     C_R   0.056369 0.107915 0.553363 -0.004765
C52   C     C_R   0.924259 0.947523 0.426994 0.052459
C53   C     C_3   0.068623 0.598961 0.564409 -0.178458
C54   C     C_R   0.075748 0.052478 0.573005 0.052445
C55   C     C_R   0.673415 0.603689 0.809622 -0.147677
C56   C     C_R   0.326584 0.396325 0.190386 -0.147676
C57   C     C_R   0.620444 0.550758 0.844353 -0.168921
C58   C     C_R   0.379558 0.449255 0.155655 -0.168941
C59   C     C_R   0.111495 0.501633 0.890175 0.824852
C60   C     C_R   0.888505 0.498367 0.109825 0.824854
C61   C     C_R   0.593906 0.599344 0.915298 0.152072
C62   C     C_R   0.406096 0.400667 0.084710 0.152071
C63   C     C_R   0.622348 0.701974 0.951993 -0.090941
C64   C     C_3   0.448549 0.965605 0.922669 -0.179033
C65   C     C_R   0.377651 0.298036 0.048016 -0.090935
C66   C     C_R   0.674104 0.753942 0.916145 -0.125874
C67   C     C_R   0.325894 0.246070 0.083865 -0.125877
C68   C     C_R   0.699652 0.704843 0.845035 -0.117490
C69   C     C_R   0.300346 0.295171 0.154973 -0.117490
C70   C     C_R   0.590931 0.540502 0.008937 -0.246308
C71   C     C_R   0.409071 0.459506 0.991070 -0.246312
C72   C     C_R   0.549215 0.496111 0.053424 -0.050721
C73   C     C_R   0.450786 0.503895 0.946580 -0.050725
C74   C     C_R   0.456751 0.453553 0.043656 -0.042585
C75   C     C_3   0.551448 0.034395 0.077321 -0.179033
C76   C     C_R   0.543250 0.546456 0.956351 -0.042584
C77   C     C_R   0.020654 0.681807 0.853960 -0.119444
C78   C     C_R   0.979355 0.318203 0.146049 -0.119443
C79   C     C_R   0.034204 0.650312 0.904832 -0.016823
C80   C     C_R   0.965800 0.349695 0.095175 -0.016818
C81   C     C_R   0.977873 0.545301 0.874227 0.120638
C82   C     C_R   0.022130 0.454705 0.125777 0.120630
C83   C     C_R   0.392517 0.500518 0.607952 0.786521
C84   C     C_R   0.607483 0.499479 0.392048 0.786482
C85   C     C_R   0.906375 0.471340 0.791067 0.025577
C86   C     C_3   0.553519 0.037619 0.959875 -0.167774
C87   C     C_R   0.093631 0.528668 0.208936 0.025577
C88   C     C_R   0.892452 0.505076 0.741836 -0.188923
C89   C     C_R   0.107558 0.494936 0.258169 -0.188927
C90   C     C_R   0.949416 0.609484 0.773006 -0.111576
C91   C     C_R   0.050595 0.390529 0.227002 -0.111580
C92   C     C_R   0.929392 0.510466 0.986249 -0.046580
C93   C     C_R   0.070608 0.489534 0.013751 -0.046578
C94   C     C_R   0.942875 0.494288 0.051078 -0.145827
C95   C     C_R   0.057125 0.505712 0.948922 -0.145825
C96   C     C_R   0.011776 0.480872 0.063288 -0.100868
C97   C     C_3   0.446479 0.962381 0.040115 -0.167773
C98   C     C_R   0.988225 0.519130 0.936713 -0.100870
C99   C     C_R   0.394368 0.500723 0.888944 0.832547
C100  C     C_R   0.605632 0.499278 0.111057 0.832531
C101  C     C_R   0.109001 0.500388 0.607769 0.768835
C102  C     C_R   0.890999 0.499612 0.392230 0.768835
C103  C     C_3   0.033299 0.447488 0.450151 -0.133018
C104  C     C_3   0.966700 0.552511 0.549849 -0.133019
C105  C     C_3   0.049769 0.545964 0.462875 -0.185030
C106  C     C_3   0.950230 0.454036 0.537125 -0.185033
C107  C     C_3   0.948706 0.499458 0.449058 0.063841
C108  C     C_3   0.549443 0.102615 0.052556 0.050580
C109  C     C_3   0.051293 0.500542 0.550942 0.063843
C110  C     C_2   0.264684 0.152329 0.562045 0.857562
C111  C     C_2   0.735331 0.847714 0.437984 0.857548
C112  C     C_R   0.843693 0.360029 0.755835 0.076200
C113  C     C_R   0.876799 0.299701 0.740072 -0.156067
C114  C     C_R   0.817043 0.194281 0.705659 -0.113066
C115  C     C_R   0.723874 0.148232 0.686319 -0.106515
C116  C     C_R   0.690295 0.207472 0.701077 -0.130470
C117  C     C_R   0.749841 0.312883 0.735431 -0.122609
C118  C     C_R   0.156312 0.639979 0.244164 0.076203
H1    H     H_    0.089889 0.584974 0.432570 0.130816
H2    H     H_    0.788125 0.834636 0.144922 0.133205
H3    H     H_    0.032865 0.900669 0.533337 0.143902
H4    H     H_    0.967139 0.099331 0.466663 0.143905
H5    H     H_    0.740331 0.745436 0.817779 0.124609
H6    H     H_    0.259664 0.254578 0.182229 0.124610
H7    H     H_    0.694769 0.566740 0.755697 0.146841
H8    H     H_    0.305230 0.433276 0.244309 0.146843
H9    H     H_    0.600901 0.472593 0.816731 0.126561
H10   H     H_    0.399102 0.527420 0.183275 0.126562
H11   H     H_    0.604116 0.741325 0.008012 0.108720
H12   H     H_    0.910111 0.415025 0.567430 0.130814
H13   H     H_    0.395882 0.258683 0.991997 0.108719
H14   H     H_    0.061823 0.404464 0.410755 0.138021
H15   H     H_    0.938177 0.595535 0.589246 0.138022
H16   H     H_    0.695048 0.832586 0.943989 0.116879
H17   H     H_    0.304948 0.167425 0.056021 0.116880
H18   H     H_    0.661927 0.572594 0.016063 0.184073
H19   H     H_    0.338075 0.427415 0.983945 0.184074
H20   H     H_    0.937793 0.634628 0.734775 0.124905
H21   H     H_    0.062221 0.365388 0.265234 0.124905
H22   H     H_    0.064385 0.762839 0.878211 0.118467
H23   H     H_    0.366722 0.255124 0.849580 0.139623
H24   H     H_    0.935625 0.237172 0.121801 0.118468
H25   H     H_    0.087912 0.708131 0.969085 0.123360
H26   H     H_    0.912091 0.291874 0.030923 0.123362
H27   H     H_    0.837148 0.450335 0.679118 0.130113
H28   H     H_    0.162863 0.549679 0.320886 0.130111
H29   H     H_    0.874212 0.319839 0.381797 0.130855
H30   H     H_    0.125787 0.680161 0.618203 0.130854
H31   H     H_    0.598135 0.069893 0.927493 0.136109
H32   H     H_    0.401863 0.930108 0.072498 0.136110
H33   H     H_    0.405708 0.936020 0.858338 0.128536
H34   H     H_    0.633264 0.744886 0.150444 0.139626
H35   H     H_    0.594290 0.063980 0.141652 0.128537
H36   H     H_    0.400617 0.059600 0.029919 0.135786
H37   H     H_    0.599382 0.940400 0.970072 0.135787
H38   H     H_    0.384516 0.322243 0.453347 0.149979
H39   H     H_    0.615486 0.677753 0.546660 0.150006
H40   H     H_    0.404688 0.393218 0.343809 0.158179
H41   H     H_    0.595312 0.606774 0.656192 0.158179
H42   H     H_    0.355357 0.213909 0.510746 0.337962
H43   H     H_    0.644643 0.786215 0.489312 0.337981
H44   H     H_    0.948463 0.333584 0.752884 0.117437
H45   H     H_    0.390104 0.250788 0.716878 0.165352
H46   H     H_    0.842933 0.148127 0.693470 0.160792
H47   H     H_    0.677691 0.066569 0.659546 0.136609
H48   H     H_    0.618112 0.171716 0.685833 0.129432
H49   H     H_    0.722964 0.358010 0.746852 0.130843
H50   H     H_    0.051539 0.666419 0.247108 0.117439
H51   H     H_    0.157067 0.851874 0.306516 0.160795
H52   H     H_    0.322310 0.933437 0.340444 0.136614
H53   H     H_    0.381892 0.828296 0.314167 0.129435
H54   H     H_    0.277043 0.642003 0.253153 0.130839
H55   H     H_    0.805986 0.589407 0.953906 0.334440
H56   H     H_    0.609899 0.749243 0.283157 0.165389
H57   H     H_    0.194014 0.410592 0.046094 0.334441
H58   H     H_    0.521298 0.404752 0.622728 0.167281
H59   H     H_    0.584171 0.323230 0.648400 0.130627
H60   H     H_    0.680079 0.281019 0.563301 0.129229
H61   H     H_    0.712713 0.320323 0.451818 0.122641
H62   H     H_    0.648809 0.398266 0.423210 0.116262
H63   H     H_    0.478710 0.595244 0.377275 0.167252
H64   H     H_    0.415841 0.676767 0.351602 0.130638
H65   H     H_    0.319938 0.718987 0.436704 0.129228
H66   H     H_    0.287306 0.679692 0.548192 0.122641
H67   H     H_    0.079005 0.070880 0.726848 0.140467
H68   H     H_    0.351203 0.601742 0.576798 0.116259
H69   H     H_    0.920985 0.929106 0.273143 0.140462
H70   H     H_    0.211854 0.165358 0.855082 0.133208
O1    O     O_3   0.251620 0.500000 0.748430 -0.485564
O2    O     O_R   0.570330 0.268390 0.136490 -0.646149
O3    O     O_R   0.134680 0.268390 0.572240 -0.634712
O4    O     O_R   0.865320 0.731610 0.427760 -0.634707
O5    O     O_R   0.306670 0.731630 0.863510 -0.642440
O6    O     O_R   0.693330 0.268370 0.136490 -0.642439
O7    O     O_R   0.135450 0.439270 0.865360 -0.626078
O8    O     O_R   0.864550 0.560730 0.134640 -0.626076
O9    O     O_R   0.429670 0.560710 0.692610 -0.641834
O10   O     O_R   0.570330 0.439290 0.307390 -0.641838
O11   O     O_R   0.308540 0.439240 0.865360 -0.626798
O12   O     O_3   0.748380 0.500000 0.251570 -0.485563
O13   O     O_R   0.691460 0.560760 0.134640 -0.626799
O14   O     O_R   0.133580 0.439310 0.571150 -0.650699
O15   O     O_R   0.866420 0.560690 0.428850 -0.650698
O16   O     O_R   0.430770 0.560690 0.864590 -0.645589
O17   O     O_R   0.569230 0.439310 0.135410 -0.645594
O18   O     O_R   0.133580 0.560760 0.692610 -0.641083
O19   O     O_R   0.866420 0.439240 0.307390 -0.641082
O20   O     O_2   0.205468 0.084374 0.488621 -0.642551
O21   O     O_R   0.350857 0.225536 0.570036 -0.844699
O22   O     O_2   0.794573 0.915629 0.511394 -0.642550
O23   O     O_R   0.134680 0.560740 0.864590 -0.648624
O24   O     O_R   0.649137 0.774575 0.430018 -0.844702
O25   O     O_2   0.773999 0.441788 0.949186 -0.654639
O26   O     O_R   0.864680 0.597257 0.968947 -0.805820
O27   O     O_2   0.226002 0.558212 0.050814 -0.654641
O28   O     O_R   0.135320 0.402742 0.031053 -0.805818
O29   O     O_R   0.865320 0.439260 0.135410 -0.648624
O30   O     O_R   0.306670 0.439270 0.571150 -0.639514
O31   O     O_R   0.693330 0.560730 0.428850 -0.639517
O32   O     O_R   0.135450 0.268370 0.694460 -0.638289
O33   O     O_R   0.864550 0.731630 0.305540 -0.638297
O34   O     O_R   0.429670 0.731610 0.863510 -0.646152
Zn1   Zn    Zn3+2 0.207400 0.586780 0.791530 0.965112
Zn2   Zn    Zn3+2 0.792600 0.413220 0.208470 0.965114
Zn3   Zn    Zn3+2 0.208510 0.413230 0.792630 1.008501
Zn4   Zn    Zn3+2 0.791490 0.586770 0.207370 1.008486
Zn5   Zn    Zn3+2 0.383150 0.586740 0.791530 0.976990
Zn6   Zn    Zn3+2 0.616850 0.413260 0.208470 0.976972
Zn7   Zn    Zn3+2 0.207400 0.413250 0.618010 0.969496
Zn8   Zn    Zn3+2 0.792600 0.586750 0.381990 0.969486

loop_
_geom_bond_atom_site_label_1
_geom_bond_atom_site_label_2
_ccdc_geom_bond_type
C2    C35   S    
C58   C62   A    
C21   H66   S    
C66   C68   A    
C58   H10   S    
C23   H37   S    
C99   O16   A    
C27   C29   S    
C67   H17   S    
C19   C20   A    
C77   H22   S    
C85   C112  S    
C42   C103  S    
C104  C106  S    
C114  C115  A    
C95   C98   A    
C92   C98   A    
C71   H19   S    
C9    O27   D    
C25   C28   S    
O4    Zn8   S    
H42   O21   S    
C105  C107  S    
C11   H58   S    
C25   C32   S    
O12   Zn8   S    
C36   O2    A    
C84   O31   A    
C24   C26   S    
C29   C83   S    
C29   C32   S    
C8    O26   S    
C101  O14   A    
C78   H24   S    
C72   C100  S    
C112  C117  A    
C78   C80   A    
C39   C54   S    
C28   C84   S    
C81   C98   S    
C53   C104  S    
C101  C109  S    
C115  C116  A    
C75   C97   S    
C102  O19   A    
C116  C117  A    
C68   H5    S    
O17   Zn6   S    
C73   C99   S    
C18   C19   A    
O12   Zn6   S    
C59   O23   A    
C61   C63   A    
C24   C29   S    
C90   H20   S    
C113  H44   S    
C66   H16   S    
C40   C43   A    
C79   H25   S    
C55   H7    S    
C2    C97   S    
O10   Zn6   S    
C65   C67   A    
C23   C86   S    
C80   H26   S    
C50   C52   A    
C97   H32   S    
C8    C92   S    
C56   H8    S    
C83   O9    A    
C103  H14   S    
C32   H41   S    
C15   C16   A    
C10   C26   S    
O29   Zn2   S    
C48   C50   A    
C12   H59   S    
C63   C66   A    
C75   C108  S    
C93   C95   A    
C31   O33   A    
C21   C22   A    
C27   C30   S    
C70   H18   S    
C33   C46   A    
C7    C118  A    
C116  H48   S    
O1    Zn5   S    
C59   C95   S    
C13   C108  S    
C42   H29   S    
C19   H64   S    
C64   C86   S    
C112  C113  A    
C65   H13   S    
C44   C46   A    
C3    H50   S    
C55   C68   A    
C46   H23   S    
C36   O6    A    
C6    H53   S    
C45   C47   A    
C9    O28   S    
O13   Zn4   S    
C111  O24   S    
H43   O24   S    
O8    Zn4   S    
C77   C90   A    
C82   C96   S    
C4    H51   S    
O7    Zn3   S    
C64   H33   S    
O12   Zn2   S    
C2    C64   S    
C87   C118  S    
C80   C82   A    
C8    O25   D    
C104  H15   S    
C35   O34   A    
C23   C75   S    
C48   H3    S    
C71   C73   A    
C83   O30   A    
C106  H12   S    
C26   C32   S    
C69   H6    S    
C49   C51   A    
C18   H63   S    
C40   C52   S    
O14   Zn7   S    
O33   Zn4   S    
C53   H30   S    
C33   C37   A    
C67   C69   A    
C17   C27   S    
C48   C54   A    
O2    Zn6   S    
O1    Zn7   S    
C102  O15   A    
O30   Zn7   S    
C34   H56   S    
C3    C118  A    
O15   Zn8   S    
C42   C106  S    
C100  O13   A    
C75   H35   S    
C5    H52   S    
C114  H46   S    
C43   H69   S    
O18   Zn1   S    
O3    Zn7   S    
C49   C52   A    
O23   Zn1   S    
O5    Zn1   S    
C20   C21   A    
C92   C94   A    
C17   C18   A    
C115  H47   S    
C77   C79   A    
C41   H67   S    
C102  C107  S    
C103  C105  S    
C13   C97   S    
O12   Zn4   S    
C88   H27   S    
O16   Zn5   S    
C94   C96   A    
C89   H28   S    
O11   Zn3   S    
C37   C110  S    
C14   H60   S    
C44   H70   S    
C20   H65   S    
C91   H21   S    
O9    Zn5   S    
C45   H2    S    
C72   C74   A    
C88   C90   A    
C93   C96   A    
C101  O18   A    
C55   C57   A    
C70   C76   A    
C41   C44   A    
C82   C87   A    
C86   H31   S    
C110  O21   S    
C61   C76   S    
O31   Zn8   S    
C99   O11   A    
C3    C4    A    
C9    C93   S    
C60   O8    A    
O6    Zn2   S    
C113  C114  A    
C42   C107  S    
C85   C88   A    
C53   C109  S    
C30   H40   S    
C62   C65   A    
C33   H45   S    
C34   C38   A    
C86   C108  S    
C12   C14   A    
C4    C5    A    
C57   H9    S    
C71   C74   A    
C110  O20   D    
C100  O17   A    
O1    Zn1   S    
C57   C61   A    
C6    C7    A    
C47   H34   S    
C78   C91   A    
C25   C27   S    
C26   C28   S    
C17   C22   A    
C1    C51   S    
C103  C109  S    
C51   C54   A    
C84   O10   A    
H57   O28   S    
C28   C30   S    
C15   H61   S    
C111  O22   D    
C43   C45   A    
C10   C16   A    
C60   O29   A    
C38   C40   A    
C24   H38   S    
C5    C6    A    
C13   C64   S    
O34   Zn5   S    
C117  H49   S    
C49   H4    S    
C31   O4    A    
C89   C91   A    
C22   H68   S    
C73   C76   A    
C56   C58   A    
O32   Zn3   S    
H55   O26   S    
C1    O32   A    
C105  H1    S    
C63   H11   S    
C79   C81   A    
C24   C30   S    
C13   H36   S    
C59   O7    A    
C10   C11   A    
C35   O5    A    
C25   H39   S    
C53   C105  S    
O19   Zn2   S    
C36   C108  S    
C39   C41   A    
C37   C39   A    
C56   C69   A    
C1    O3    A    
C2    C23   S    
C87   C89   A    
C14   C15   A    
C62   C74   S    
C70   C72   A    
C34   C47   A    
C31   C50   S    
C38   C111  S    
C7    H54   S    
O1    Zn3   S    
C104  C107  S    
C81   C85   A    
C16   H62   S    
C11   C12   A    
C106  C109  S    
C60   C94   S    
