data_mof_unit_30643.cif
_audit_creation_date              2012-12-11T14:14:10-0500
_audit_creation_method            fapswitch 2.2
_symmetry_space_group_name_H-M    P1
_symmetry_Int_Tables_number       1
_space_group_crystal_system       triclinic
_cell_length_a                    17.016655
_cell_length_b                    7.245575
_cell_length_c                    17.002927
_cell_angle_alpha                 90.000018
_cell_angle_beta                  99.63259
_cell_angle_gamma                 89.999962
_cell_volume                      2066.8266651

loop_
_atom_site_label
_atom_site_type_symbol
_atom_type_description
_atom_site_fract_x
_atom_site_fract_y
_atom_site_fract_z
_atom_type_partial_charge
O1    O     O_R   0.414560 0.494370 0.416770 -0.529224
O2    O     O_R   0.585440 0.994370 0.583230 -0.529222
O3    O     O_R   0.578370 0.819590 0.429320 -0.533369
O4    O     O_R   0.421630 0.319590 0.570680 -0.533371
C1    C     C_R   0.603431 0.654707 0.412681 0.778477
C2    C     C_R   0.396569 0.154707 0.587319 0.778471
O5    O     O_R   0.414740 0.823790 0.407360 -0.539232
O6    O     O_R   0.585260 0.323790 0.592640 -0.539231
O7    O     O_R   0.420650 0.998510 0.561120 -0.520734
O8    O     O_R   0.579350 0.498510 0.438880 -0.520731
C3    C     C_R   0.389892 0.654546 0.383520 0.712152
C4    C     C_R   0.610108 0.154546 0.616480 0.712156
O9    O     O_3   0.502130 0.662240 0.550470 -0.368862
O10   O     O_3   0.497870 0.162240 0.449530 -0.368860
V1    V     V_3+5 0.499600 0.935390 0.490640 1.582690
V2    V     V_3+5 0.500400 0.435390 0.509360 1.582689
C5    C     C_2   0.781855 0.265771 0.790646 -0.089003
C6    C     C_2   0.218144 0.765771 0.209355 -0.089007
C7    C     C_2   0.826147 0.114592 0.812979 -0.245672
C8    C     C_2   0.173853 0.614591 0.187022 -0.245672
H1    H     H_    0.794395 0.393392 0.823854 0.153401
H2    H     H_    0.205603 0.893393 0.176148 0.153401
H3    H     H_    0.817667 0.990791 0.776689 0.179710
H4    H     H_    0.182333 0.490790 0.223311 0.179709
C9    C     C_2   0.720526 0.273699 0.717170 -0.167140
C10   C     C_2   0.279472 0.773698 0.282831 -0.167135
C11   C     C_2   0.668327 0.137306 0.691353 0.142602
C12   C     C_2   0.331672 0.637307 0.308647 0.142601
H5    H     H_    0.717143 0.402153 0.683887 0.134477
H6    H     H_    0.282855 0.902151 0.316115 0.134473
C13   C     C_R   0.334488 0.140732 0.639053 -0.230703
C14   C     C_R   0.665511 0.640731 0.360946 -0.230699
C15   C     C_R   0.166381 0.127807 0.862803 -0.132710
C16   C     C_R   0.833619 0.627807 0.137196 -0.132715
C17   C     C_R   0.292272 0.273780 0.843945 0.488927
C18   C     C_R   0.707729 0.773783 0.156055 0.488923
C19   C     C_R   0.230980 0.243802 0.888975 -0.325689
C20   C     C_R   0.769021 0.743805 0.111026 -0.325682
C21   C     C_R   0.160025 0.043434 0.787511 0.243022
C22   C     C_R   0.839974 0.543432 0.212488 0.243023
C23   C     C_R   0.218968 0.077603 0.738962 -0.068165
C24   C     C_R   0.781031 0.577600 0.261037 -0.068162
C25   C     C_R   0.286477 0.191757 0.766942 -0.027265
C26   C     C_R   0.713524 0.691760 0.233058 -0.027267
C27   C     C_R   0.345649 0.218115 0.716697 0.232693
C28   C     C_R   0.654352 0.718121 0.283303 0.232689
C29   C     C_R   0.265840 0.035403 0.612032 0.366820
C30   C     C_R   0.734158 0.535394 0.387966 0.366819
C31   C     C_R   0.210682 0.001208 0.662075 -0.139266
C32   C     C_R   0.789315 0.501199 0.337923 -0.139270
H7    H     H_    0.160457 0.914889 0.638568 0.197145
H8    H     H_    0.839539 0.414876 0.361429 0.197145
H9    H     H_    0.232588 0.314862 0.945192 0.134390
H10   H     H_    0.767412 0.814866 0.054809 0.134395
O11   O     O_R   0.920750 0.773600 0.061260 -0.538628
O12   O     O_R   0.079250 0.273600 0.938740 -0.538628
O13   O     O_R   0.085340 0.439850 0.092570 -0.532713
O14   O     O_R   0.914660 0.939850 0.907430 -0.532712
C33   C     C_R   0.111179 0.608490 0.115458 0.736739
C34   C     C_R   0.888821 0.108490 0.884542 0.736741
O15   O     O_R   0.921720 0.444130 0.070790 -0.519894
O16   O     O_R   0.078280 0.944130 0.929210 -0.519895
O17   O     O_R   0.914480 0.269530 0.916840 -0.543859
O18   O     O_R   0.085520 0.769530 0.083160 -0.543859
C35   C     C_R   0.896849 0.613092 0.086897 0.758626
C36   C     C_R   0.103151 0.113092 0.913103 0.758626
O19   O     O_3   0.997840 0.601520 0.949550 -0.372827
O20   O     O_3   0.002160 0.101520 0.050450 -0.372826
V3    V     V_3+5 0.000400 0.328340 0.009360 1.512785
V4    V     V_3+5 0.999600 0.828340 0.990640 1.512785
Br1   Br    Br    0.066852 0.894520 0.749386 -0.572706
Br2   Br    Br    0.933146 0.394513 0.250613 -0.572705
Br3   Br    Br    0.657545 0.919489 0.754371 -0.547477
Br4   Br    Br    0.342456 0.419492 0.245628 -0.547482
Br5   Br    Br    0.446837 0.339406 0.752860 -0.463320
Br6   Br    Br    0.553168 0.839428 0.247143 -0.463323
O21   O     O_3   0.253350 0.954538 0.537238 -0.550855
C37   C     C_3   0.225009 0.087905 0.478377 0.063684
H11   H     H_    0.273543 0.121457 0.444384 0.132607
H12   H     H_    0.204511 0.219895 0.502398 0.116473
C38   C     C_3   0.155181 0.007130 0.421109 -0.650146
H13   H     H_    0.104263 0.982587 0.452996 0.230659
H14   H     H_    0.136272 0.104716 0.371151 0.199792
H15   H     H_    0.172548 0.874112 0.396532 0.220631
O22   O     O_3   0.746645 0.454521 0.462759 -0.550853
C39   C     C_3   0.774999 0.587877 0.521620 0.063681
H16   H     H_    0.726468 0.621455 0.555613 0.132605
H17   H     H_    0.795510 0.719855 0.497600 0.116479
C40   C     C_3   0.844820 0.507068 0.578887 -0.650150
H18   H     H_    0.895735 0.482501 0.547000 0.230657
H19   H     H_    0.863737 0.604645 0.628847 0.199793
H20   H     H_    0.827441 0.374058 0.603462 0.220629
O23   O     O_3   0.352097 0.401236 0.870041 -0.522631
C41   C     C_3   0.386359 0.373645 0.951029 0.140544
H21   H     H_    0.391260 0.224429 0.967289 0.111770
H22   H     H_    0.350551 0.446622 0.990386 0.134267
C42   C     C_3   0.469742 0.456199 0.966274 -0.633361
H23   H     H_    0.467644 0.602519 0.946673 0.235353
H24   H     H_    0.494361 0.450071 0.030976 0.178890
H25   H     H_    0.509667 0.377642 0.933082 0.246125
O24   O     O_3   0.647904 0.901239 0.129958 -0.522630
C43   C     C_3   0.613635 0.873624 0.048974 0.140543
H26   H     H_    0.608726 0.724401 0.032725 0.111767
H27   H     H_    0.649443 0.946572 0.009607 0.134264
C44   C     C_3   0.530256 0.956202 0.033729 -0.633342
H28   H     H_    0.532364 0.102532 0.053318 0.235345
H29   H     H_    0.505632 0.950051 0.969028 0.178888
H30   H     H_    0.490330 0.877675 0.066931 0.246131

loop_
_geom_bond_atom_site_label_1
_geom_bond_atom_site_label_2
_ccdc_geom_bond_type
O23   C41   S    
C14   C30   A    
O1    C3    A    
C12   Br4   S    
C42   H25   S    
C2    O7    A    
C28   Br6   S    
C42   H23   S    
C21   C23   A    
O21   C37   S    
O5    C3    A    
C44   H29   S    
C33   O18   A    
C15   C21   A    
C34   O17   A    
C16   C22   A    
C17   C19   A    
O10   V1    S    
C43   H27   S    
C39   H17   S    
O13   C33   A    
O14   C34   A    
O16   V4    S    
C43   C44   S    
O11   C35   A    
O17   V3    S    
O20   V3    S    
C31   H7    S    
C6    C10   S    
C32   H8    S    
O18   V4    S    
C40   H19   S    
C17   C25   A    
C1    C14   S    
C19   H9    S    
C30   C32   A    
C2    C13   S    
O2    C4    A    
O6    V2    S    
C13   C29   A    
C23   C25   A    
C41   H21   S    
C24   C26   A    
C16   C35   S    
C23   C31   A    
C38   H14   S    
C26   C28   A    
C15   C36   S    
C38   H13   S    
C17   O23   S    
C9    H5    S    
C44   H30   S    
O16   C36   A    
C4    C11   S    
O24   C43   S    
C8    H4    S    
C29   C31   A    
C42   H24   S    
C39   H16   S    
O14   V4    S    
O5    V1    S    
C41   C42   S    
O22   C39   S    
C5    H1    S    
C18   O24   S    
C8    C33   S    
C16   C20   A    
O4    V2    S    
C7    H3    S    
C20   H10   S    
O6    C4    A    
C37   H12   S    
O1    V2    S    
C40   H20   S    
C41   H22   S    
O2    V1    S    
C25   C27   A    
C24   C32   A    
O4    C2    A    
C10   H6    S    
C18   C26   A    
C29   O21   S    
C18   C20   A    
C38   H15   S    
O3    V1    S    
O15   V3    S    
C22   Br2   S    
C37   H11   S    
C14   C28   A    
O3    C1    A    
C39   C40   S    
C7    C34   S    
C9    C11   D    
C44   H28   S    
C10   C12   D    
C27   Br5   S    
O19   V4    S    
C5    C9    S    
C6    H2    S    
O7    V1    S    
C1    O8    A    
O8    V2    S    
C37   C38   S    
C3    C12   S    
O12   C36   A    
C22   C24   A    
C5    C7    D    
C6    C8    D    
C43   H26   S    
C15   C19   A    
O11   V4    S    
O15   C35   A    
O12   V3    S    
C13   C27   A    
O9    V2    S    
C21   Br1   S    
C30   O22   S    
O13   V3    S    
C40   H18   S    
C11   Br3   S    
