data_mof_unit_30161.cif
_audit_creation_date              2012-12-10T18:37:06-0500
_audit_creation_method            fapswitch 2.2
_symmetry_space_group_name_H-M    P1
_symmetry_Int_Tables_number       1
_space_group_crystal_system       triclinic
_cell_length_a                    14.922308
_cell_length_b                    15.306689
_cell_length_c                    23.443054
_cell_angle_alpha                 89.606841
_cell_angle_beta                  104.55617
_cell_angle_gamma                 83.099775
_cell_volume                      5141.41206793

loop_
_atom_site_label
_atom_site_type_symbol
_atom_type_description
_atom_site_fract_x
_atom_site_fract_y
_atom_site_fract_z
_atom_type_partial_charge
C1    C     C_R   0.442669 0.663040 0.494358 0.909527
C2    C     C_R   0.557633 0.336940 0.509544 0.889269
C3    C     C_R   0.581697 0.475579 0.774819 -0.294561
C4    C     C_R   0.566056 0.536620 0.247051 -0.280054
C5    C     C_R   0.581246 0.466025 0.715939 0.468067
C6    C     C_R   0.559901 0.547148 0.305215 0.466060
C7    C     C_R   0.502077 0.502185 0.672319 -0.213906
C8    C     C_R   0.502601 0.495900 0.327349 -0.207936
C9    C     C_R   0.424276 0.545820 0.687799 -0.432718
C10   C     C_R   0.450926 0.438280 0.290567 -0.413399
C11   C     C_R   0.425562 0.558027 0.747321 0.563707
C12   C     C_R   0.447599 0.437407 0.230652 0.538525
C13   C     C_R   0.503376 0.517829 0.790593 0.155682
C14   C     C_R   0.507011 0.486083 0.208941 0.129049
C15   C     C_R   0.411459 0.754976 0.505671 -0.226829
C16   C     C_R   0.591336 0.244174 0.527210 -0.238549
C17   C     C_R   0.289394 0.866838 0.521262 0.480912
C18   C     C_R   0.718696 0.131630 0.576078 0.494826
C19   C     C_R   0.317895 0.781677 0.504799 -0.416002
C20   C     C_R   0.686587 0.217307 0.551110 -0.422647
C21   C     C_R   0.478131 0.813788 0.523546 0.417950
C22   C     C_R   0.526526 0.184500 0.526199 0.403200
C23   C     C_R   0.501096 0.499513 0.610448 0.904713
C24   C     C_R   0.499949 0.499333 0.389328 0.915786
C25   C     C_R   0.452933 0.895757 0.545661 -0.122766
C26   C     C_R   0.555163 0.102899 0.557026 -0.110090
C27   C     C_R   0.356908 0.925006 0.539408 0.021904
C28   C     C_R   0.652203 0.073838 0.577557 0.016655
C29   C     C_R   0.519908 0.954222 0.566319 0.092469
C30   C     C_R   0.489638 0.044772 0.560778 0.107766
C31   C     C_R   0.395076 0.073287 0.557897 -0.167996
C32   C     C_R   0.615839 0.926272 0.590008 -0.189222
C33   C     C_R   0.330123 0.013325 0.549683 -0.209220
C34   C     C_R   0.680831 0.985945 0.597432 -0.198416
C35   C     C_R   0.849634 0.623595 0.597364 -0.445688
C36   C     C_R   0.151456 0.365788 0.411455 -0.411044
C37   C     C_R   0.755402 0.609963 0.577326 0.655913
C38   C     C_R   0.236386 0.399399 0.418516 0.654507
C39   C     C_R   0.795442 0.506151 0.509696 -0.121814
C40   C     C_R   0.212840 0.475007 0.502609 -0.133217
C41   C     C_R   0.891509 0.514770 0.530045 -0.043909
C42   C     C_R   0.120845 0.451985 0.492567 -0.037638
C43   C     C_R   0.917932 0.574800 0.574999 0.015569
C44   C     C_R   0.092716 0.392703 0.447364 -0.002961
C45   C     C_R   0.521392 0.413865 0.119381 0.601096
C46   C     C_R   0.498223 0.589441 0.881496 0.611378
C47   C     C_R   0.961275 0.467572 0.506409 0.027449
C48   C     C_R   0.055058 0.487952 0.523729 0.032403
C49   C     C_R   0.078998 0.545105 0.570480 -0.336198
C50   C     C_R   0.939894 0.401526 0.465410 -0.315558
C51   C     C_R   0.012454 0.584530 0.597911 0.508202
C52   C     C_R   0.004991 0.363109 0.436988 0.510600
C53   C     C_R   0.484191 0.570299 0.118086 0.502968
C54   C     C_R   0.505175 0.432964 0.877665 0.532759
C55   C     C_R   0.486404 0.577634 0.058778 -0.105799
C56   C     C_R   0.509997 0.425513 0.938121 -0.125504
C57   C     C_R   0.501028 0.499436 0.028940 -0.081162
C58   C     C_R   0.500869 0.503686 0.968938 -0.083759
C59   C     C_R   0.516396 0.416928 0.059076 -0.087440
C60   C     C_R   0.492968 0.586248 0.940055 -0.069359
C61   C     C_R   0.474167 0.660265 0.028489 0.487620
C62   C     C_R   0.524711 0.342926 0.968724 0.493976
C63   C     C_R   0.481138 0.663648 0.970217 -0.278798
C64   C     C_R   0.527699 0.339483 0.028731 -0.274020
H1    H     H_    0.370947 0.141760 0.562536 0.196048
H2    H     H_    0.641521 0.858443 0.603194 0.207319
H3    H     H_    0.241460 0.516509 0.537627 0.151149
H4    H     H_    0.768767 0.462602 0.475497 0.161983
H5    H     H_    0.870268 0.671452 0.630198 0.187302
H6    H     H_    0.129623 0.322575 0.375716 0.200098
H7    H     H_    0.149233 0.560135 0.587497 0.140134
H8    H     H_    0.872794 0.377831 0.454029 0.154440
H9    H     H_    0.476076 0.727473 0.948566 0.195943
H10   H     H_    0.538474 0.275571 0.051250 0.200857
H11   H     H_    0.642052 0.447146 0.808740 0.170926
H12   H     H_    0.613653 0.571340 0.230222 0.177156
H13   H     H_    0.364048 0.570930 0.652944 0.170430
H14   H     H_    0.413908 0.393439 0.308579 0.219970
H15   H     H_    0.258046 0.037750 0.547295 0.191528
H16   H     H_    0.753909 0.961501 0.615052 0.186418
H17   H     H_    0.735353 0.263373 0.549380 0.191163
H18   H     H_    0.266908 0.736766 0.489851 0.183401
N1    N     N_R   0.503864 0.489683 0.147347 -0.342513
N2    N     N_R   0.501340 0.513814 0.851183 -0.328129
N3    N     N_R   0.731690 0.552740 0.533440 -0.132782
N4    N     N_R   0.268310 0.447260 0.466560 -0.130443
O1    O     O_R   0.383120 0.605620 0.483150 -0.641140
O2    O     O_R   0.616880 0.394380 0.516850 -0.643348
O3    O     O_R   0.531890 0.639510 0.504600 -0.513140
O4    O     O_R   0.468110 0.360490 0.495400 -0.541190
O5    O     O_R   0.425590 0.483070 0.573110 -0.638858
O6    O     O_R   0.574410 0.516930 0.426890 -0.578098
O7    O     O_R   0.574360 0.516970 0.594570 -0.552959
O8    O     O_R   0.425640 0.483030 0.405430 -0.586339
O9    O     O_2   0.544674 0.335970 0.150026 -0.529537
O10   O     O_2   0.501286 0.667216 0.855195 -0.594315
O11   O     O_2   0.461863 0.642829 0.146544 -0.549619
O12   O     O_2   0.504044 0.360427 0.845218 -0.530321
Zn1   Zn    Zn3+2 0.400660 0.477370 0.485670 0.981391
Zn2   Zn    Zn3+2 0.599340 0.522630 0.514330 1.017697
O13   O     O_3   0.464266 0.738165 0.057154 -0.563970
C65   C     C_3   0.370667 0.777573 0.038003 0.133795
H19   H     H_    0.321398 0.730935 0.043865 0.139155
H20   H     H_    0.353721 0.800204 0.990844 0.119812
C66   C     C_3   0.356607 0.857310 0.074594 -0.765827
H21   H     H_    0.403784 0.905838 0.069112 0.253762
H22   H     H_    0.283220 0.888969 0.059947 0.192768
H23   H     H_    0.371961 0.836717 0.121942 0.270537
O14   O     O_3   0.534191 0.264907 0.940178 -0.560614
C67   C     C_3   0.630234 0.234981 0.949482 0.129334
H24   H     H_    0.661386 0.213111 0.996430 0.126892
H25   H     H_    0.668899 0.287282 0.937338 0.129772
C68   C     C_3   0.642045 0.157067 0.910946 -0.766418
H26   H     H_    0.612620 0.177410 0.863705 0.272747
H27   H     H_    0.717321 0.132669 0.918081 0.191035
H28   H     H_    0.605450 0.102967 0.922304 0.255388
O15   O     O_3   0.195657 0.898412 0.513926 -0.661201
C69   C     C_3   0.147905 0.839265 0.538054 0.080062
H29   H     H_    0.191280 0.808048 0.580711 0.139886
H30   H     H_    0.126868 0.787361 0.506247 0.148597
C70   C     C_3   0.059533 0.890395 0.548866 -0.357754
H31   H     H_    0.078728 0.945629 0.578185 0.223662
H32   H     H_    0.013494 0.918490 0.506183 0.231300
C71   C     C_3   0.006023 0.831663 0.577391 -0.886674
H33   H     H_    0.986648 0.775447 0.549133 0.272952
H34   H     H_    0.941181 0.870373 0.583094 0.262424
H35   H     H_    0.049385 0.806437 0.621444 0.287405
O16   O     O_3   0.813368 0.099043 0.594293 -0.659971
C72   C     C_3   0.870691 0.161530 0.622702 0.086890
H36   H     H_    0.920402 0.127970 0.662367 0.159523
H37   H     H_    0.832132 0.218201 0.639681 0.122284
C73   C     C_3   0.927563 0.192184 0.581910 -0.355211
H38   H     H_    0.977091 0.135736 0.574484 0.218999
H39   H     H_    0.880753 0.215248 0.538384 0.213667
C74   C     C_3   0.982241 0.266766 0.608196 -0.955136
H40   H     H_    0.933630 0.325531 0.613087 0.267343
H41   H     H_    0.024899 0.285213 0.578488 0.267013
H42   H     H_    0.029598 0.245559 0.651968 0.268060
O17   O     O_3   0.038951 0.638414 0.644885 -0.678752
C75   C     C_3   0.087520 0.586747 0.696153 0.068565
H43   H     H_    0.124870 0.631451 0.728157 0.173404
H44   H     H_    0.141947 0.535530 0.687751 0.148687
C76   C     C_3   0.020068 0.544915 0.724683 -0.376469
H45   H     H_    0.966737 0.597090 0.732945 0.222204
H46   H     H_    0.983834 0.497204 0.694546 0.219593
C77   C     C_3   0.071813 0.496474 0.782905 -0.905295
H47   H     H_    0.124643 0.443142 0.775494 0.271891
H48   H     H_    0.021398 0.466718 0.802347 0.261639
H49   H     H_    0.107093 0.542914 0.814566 0.265821
O18   O     O_3   0.978034 0.303876 0.393478 -0.645124
C78   C     C_3   0.983068 0.219053 0.419438 0.078006
H50   H     H_    0.925958 0.185998 0.391723 0.177177
H51   H     H_    0.971883 0.219914 0.464742 0.119169
C79   C     C_3   0.076601 0.164921 0.420130 -0.408041
H52   H     H_    0.087865 0.165752 0.375030 0.235958
H53   H     H_    0.134201 0.194219 0.450409 0.225298
C80   C     C_3   0.079564 0.069837 0.440732 -0.886189
H54   H     H_    0.073558 0.067201 0.486970 0.263220
H55   H     H_    0.146994 0.032462 0.438478 0.294436
H56   H     H_    0.021987 0.038639 0.411926 0.259530
O19   O     O_3   0.289333 0.382411 0.378155 -0.597412
C81   C     C_3   0.235057 0.405719 0.319673 0.050556
H57   H     H_    0.268038 0.455691 0.300538 0.163617
H58   H     H_    0.162525 0.437971 0.315887 0.126566
C82   C     C_3   0.230991 0.324720 0.282011 -0.854817
H59   H     H_    0.196803 0.274315 0.299919 0.242682
H60   H     H_    0.189944 0.343615 0.236289 0.223121
H61   H     H_    0.302275 0.295365 0.281083 0.274349
O20   O     O_3   0.683758 0.654272 0.598489 -0.543959
C83   C     C_3   0.713202 0.679554 0.657519 0.085712
H62   H     H_    0.750406 0.738587 0.659485 0.122111
H63   H     H_    0.758721 0.624830 0.686281 0.143746
C84   C     C_3   0.628200 0.704478 0.681550 -0.786456
H64   H     H_    0.592865 0.645881 0.684719 0.254289
H65   H     H_    0.650162 0.730791 0.726252 0.208147
H66   H     H_    0.577832 0.755160 0.652276 0.252190
O21   O     O_3   0.660046 0.424163 0.701907 -0.639061
C85   C     C_3   0.645944 0.337232 0.684822 0.105312
H67   H     H_    0.695204 0.316242 0.657635 0.166399
H68   H     H_    0.574601 0.332532 0.656454 0.114123
C86   C     C_3   0.667134 0.273799 0.738829 -0.387015
H69   H     H_    0.737333 0.280778 0.767546 0.229818
H70   H     H_    0.614612 0.290131 0.764566 0.252028
C87   C     C_3   0.664519 0.178403 0.720694 -0.932153
H71   H     H_    0.595837 0.170307 0.690464 0.270712
H72   H     H_    0.675588 0.134704 0.760496 0.267232
H73   H     H_    0.720737 0.158243 0.698438 0.261183
O22   O     O_3   0.613892 0.602327 0.342050 -0.623480
C88   C     C_3   0.602424 0.688582 0.316595 0.062113
H74   H     H_    0.578048 0.735021 0.347108 0.150579
H75   H     H_    0.548561 0.700097 0.273666 0.159136
C89   C     C_3   0.696441 0.711116 0.309822 -0.334455
H76   H     H_    0.746520 0.708754 0.353983 0.229595
H77   H     H_    0.725134 0.661787 0.282424 0.226153
C90   C     C_3   0.686855 0.802520 0.280877 -0.938241
H78   H     H_    0.639994 0.804987 0.235668 0.285130
H79   H     H_    0.756476 0.817623 0.277828 0.267150
H80   H     H_    0.658076 0.853272 0.307338 0.255383
O23   O     O_3   0.351899 0.604765 0.765355 -0.638607
C91   C     C_3   0.313392 0.683623 0.730966 0.078793
H81   H     H_    0.255708 0.715161 0.748796 0.151148
H82   H     H_    0.279009 0.670161 0.684710 0.124406
C92   C     C_3   0.383694 0.751023 0.735046 -0.305080
H83   H     H_    0.393594 0.782512 0.778365 0.254804
H84   H     H_    0.452725 0.718928 0.731491 0.234976
C93   C     C_3   0.349308 0.822426 0.686151 -0.986767
H85   H     H_    0.347120 0.792962 0.642778 0.260916
H86   H     H_    0.398149 0.872931 0.692558 0.278631
H87   H     H_    0.278748 0.854806 0.686557 0.267606
O24   O     O_3   0.390668 0.384498 0.194518 -0.607921
C94   C     C_3   0.307739 0.436850 0.164014 0.056628
H88   H     H_    0.322467 0.494867 0.140499 0.140790
H89   H     H_    0.266088 0.460575 0.195382 0.133816
C95   C     C_3   0.250594 0.381192 0.118223 -0.298410
H90   H     H_    0.291439 0.358937 0.086158 0.235241
H91   H     H_    0.236151 0.321995 0.140418 0.228772
C96   C     C_3   0.158299 0.433354 0.085062 -0.975474
H92   H     H_    0.115612 0.454904 0.116206 0.264813
H93   H     H_    0.118650 0.391190 0.052088 0.270348
H94   H     H_    0.171206 0.492053 0.061625 0.266817
O25   O     O_3   0.436217 0.202923 0.491073 -0.602466
C97   C     C_3   0.433541 0.174206 0.433474 0.163690
H95   H     H_    0.483343 0.113819 0.432712 0.105164
H96   H     H_    0.449952 0.227867 0.407024 0.169644
C98   C     C_3   0.335990 0.152469 0.404407 -0.821151
H97   H     H_    0.283293 0.209303 0.405983 0.274787
H98   H     H_    0.330933 0.136531 0.357662 0.207291
H99   H     H_    0.320785 0.094810 0.427714 0.247775
O26   O     O_3   0.567862 0.791938 0.517404 -0.568320
C99   C     C_3   0.573871 0.827018 0.462892 0.121971
H100  H     H_    0.555371 0.899912 0.459437 0.130373
H101  H     H_    0.526726 0.797181 0.425716 0.115854
C100  C     C_3   0.673923 0.806262 0.458111 -0.793982
H102  H     H_    0.693112 0.733840 0.458195 0.266627
H103  H     H_    0.681213 0.836486 0.416637 0.197107
H104  H     H_    0.722258 0.833288 0.495978 0.255340

loop_
_geom_bond_atom_site_label_1
_geom_bond_atom_site_label_2
_ccdc_geom_bond_type
C1    O1    A    
C76   C77   S    
C92   H83   S    
C82   H59   S    
C1    O3    A    
C74   H42   S    
O20   C83   S    
C53   C55   A    
C75   C76   S    
O16   C72   S    
C69   H30   S    
C54   N2    A    
C85   H67   S    
C10   H14   S    
C74   H40   S    
C39   C41   A    
C86   H69   S    
C27   C33   A    
C96   H94   S    
C15   C19   A    
C92   H84   S    
C13   N2    S    
C59   C64   A    
O13   C65   S    
C38   N4    A    
C60   C63   A    
C37   N3    A    
C35   C37   A    
C75   H44   S    
C77   H47   S    
C29   C32   A    
C91   C92   S    
C37   O20   S    
C30   C31   A    
C65   H20   S    
C11   O23   S    
C95   H91   S    
C57   C59   A    
C83   H62   S    
C58   C60   A    
C76   H45   S    
C77   H49   S    
C6    O22   S    
C98   H99   S    
C87   H71   S    
C99   C100  S    
C76   H46   S    
C39   H4    S    
C78   C79   S    
C40   N4    A    
C61   C63   A    
C50   H8    S    
C67   H24   S    
C70   C71   S    
C62   C64   A    
C65   C66   S    
C34   H16   S    
C69   H29   S    
O24   C94   S    
C80   H54   S    
C45   C59   A    
C47   C48   A    
C56   C58   A    
C91   H81   S    
C49   C51   A    
C40   H3    S    
C50   C52   A    
C78   H50   S    
C31   C33   A    
C2    O2    A    
C1    C15   S    
C19   H18   S    
C3    H11   S    
C100  H102  S    
C77   H48   S    
C3    C13   A    
C17   O15   S    
C72   C73   S    
C18   O16   S    
C44   C52   A    
C40   C42   A    
C28   C34   A    
O23   C91   S    
C82   H60   S    
C20   H17   S    
C41   C43   A    
C45   N1    A    
C42   C44   A    
C14   N1    S    
C24   O6    A    
C92   C93   S    
O26   C99   S    
C36   H6    S    
O19   C81   S    
C47   C50   A    
O1    Zn1   S    
C38   O19   S    
C25   C29   A    
C98   H98   S    
C66   H23   S    
C54   C56   A    
C70   H31   S    
O3    Zn2   S    
C17   C27   A    
C89   C90   S    
C73   H39   S    
C18   C28   A    
C75   H43   S    
C79   C80   S    
C4    C6    A    
C86   H70   S    
C5    C7    A    
C31   H1    S    
C93   H85   S    
C73   H38   S    
C6    C8    A    
C63   H9    S    
C97   C98   S    
C53   O11   S    
C96   H92   S    
C84   H64   S    
C81   H57   S    
C88   H75   S    
C23   O7    A    
O22   C88   S    
C69   C70   S    
C89   H77   S    
C80   H55   S    
C88   C89   S    
C61   O13   S    
C90   H79   S    
C29   C30   A    
C24   O8    A    
C81   C82   S    
C66   H22   S    
C32   H2    S    
C94   H88   S    
C67   C68   S    
C16   C20   A    
C21   O26   S    
C98   H97   S    
C41   C47   A    
C42   C48   A    
C99   H101  S    
N4    Zn1   S    
C9    C11   A    
O7    Zn2   S    
C5    O21   S    
C79   H52   S    
O2    Zn2   S    
C84   H65   S    
C10   C12   A    
C71   H35   S    
C46   N2    A    
C91   H82   S    
C48   C49   A    
C94   H89   S    
C12   C14   A    
C26   C30   A    
C82   H61   S    
C55   C57   A    
C22   C26   A    
C4    H12   S    
C23   O5    A    
C36   C44   A    
C96   H93   S    
C39   N3    A    
C17   C19   A    
C45   O9    S    
O4    Zn1   S    
C2    C16   S    
O6    Zn2   S    
C71   H34   S    
C68   H26   S    
C84   H66   S    
C88   H74   S    
C74   H41   S    
C21   C25   A    
C97   H96   S    
C16   C22   A    
C2    O4    A    
C86   C87   S    
C46   C60   A    
C95   H90   S    
C79   H53   S    
C8    C10   A    
C33   H15   S    
C22   O25   S    
C3    C5    A    
C95   C96   S    
O25   C97   S    
C18   C20   A    
C85   H68   S    
O17   C75   S    
C80   H56   S    
C25   C27   A    
C66   H21   S    
C26   C28   A    
O18   C78   S    
C87   H73   S    
C53   N1    A    
C89   H76   S    
C68   H28   S    
C36   C38   A    
C9    H13   S    
C35   C43   A    
C12   O24   S    
C99   H100  S    
C81   H58   S    
O14   C67   S    
C11   C13   A    
C93   H87   S    
C43   C51   A    
C57   C58   A    
C62   O14   S    
C83   H63   S    
O8    Zn1   S    
C73   C74   S    
C7    C23   S    
C55   C61   A    
C72   H37   S    
C8    C24   S    
C87   H72   S    
C56   C62   A    
C78   H51   S    
C4    C14   A    
C65   H19   S    
C100  H104  S    
C67   H25   S    
C70   H32   S    
C85   C86   S    
C90   H78   S    
C90   H80   S    
C7    C9    A    
C15   C21   A    
C94   C95   S    
C46   O10   S    
C35   H5    S    
C52   O18   S    
O21   C85   S    
C49   H7    S    
C100  H103  S    
N3    Zn2   S    
C64   H10   S    
C72   H36   S    
C54   O12   S    
O5    Zn1   S    
O15   C69   S    
C93   H86   S    
C97   H95   S    
C32   C34   A    
C71   H33   S    
C68   H27   S    
C83   C84   S    
C51   O17   S    
