data_mof_unit_30465.cif
_audit_creation_date              2012-12-11T16:43:41-0500
_audit_creation_method            fapswitch 2.2
_symmetry_space_group_name_H-M    P1
_symmetry_Int_Tables_number       1
_space_group_crystal_system       triclinic
_cell_length_a                    25.903618
_cell_length_b                    25.888265
_cell_length_c                    27.327814
_cell_angle_alpha                 89.998238
_cell_angle_beta                  90.008441
_cell_angle_gamma                 90.032301
_cell_volume                      18326.0214948

loop_
_atom_site_label
_atom_site_type_symbol
_atom_type_description
_atom_site_fract_x
_atom_site_fract_y
_atom_site_fract_z
_atom_type_partial_charge
C1    C     C_R   0.121815 0.060883 0.582683 -0.150665
C2    C     C_R   0.879317 0.060137 0.584091 -0.147633
C3    C     C_R   0.167173 0.182315 0.206392 -0.217354
C4    C     C_R   0.828723 0.181093 0.793484 -0.248613
C5    C     C_R   0.182408 0.832357 0.206763 -0.221465
C6    C     C_R   0.184712 0.167108 0.792428 -0.224396
C7    C     C_R   0.832440 0.817736 0.206413 -0.219048
C8    C     C_R   0.763096 0.224568 0.136833 -0.231624
C9    C     C_R   0.226230 0.765086 0.863006 -0.224749
C10   C     C_R   0.223851 0.236858 0.136569 -0.232340
C11   C     C_R   0.762246 0.777040 0.863396 -0.232607
C12   C     C_R   0.237136 0.775782 0.136991 -0.242829
C13   C     C_R   0.060037 0.120937 0.416218 -0.149673
C14   C     C_R   0.774026 0.234442 0.865745 -0.240239
C15   C     C_R   0.775934 0.763440 0.136248 -0.220322
C16   C     C_R   0.237936 0.223387 0.863508 -0.228530
C17   C     C_R   0.104929 0.104231 0.607170 0.133970
C18   C     C_R   0.896550 0.896090 0.391806 0.136196
C19   C     C_R   0.101368 0.898366 0.610532 0.136886
C20   C     C_R   0.896114 0.103491 0.391888 0.136397
C21   C     C_R   0.895154 0.895988 0.607364 0.134516
C22   C     C_R   0.103354 0.103829 0.391728 0.136296
C23   C     C_R   0.897439 0.102817 0.609282 0.137982
C24   C     C_R   0.938549 0.878327 0.583031 -0.146651
C25   C     C_R   0.103701 0.896638 0.391717 0.136217
C26   C     C_R   0.620326 0.620734 0.078857 0.136150
C27   C     C_R   0.379032 0.379372 0.922012 0.138312
C28   C     C_R   0.620964 0.379491 0.078124 0.138793
C29   C     C_R   0.379655 0.621118 0.921865 0.137200
C30   C     C_R   0.379609 0.379144 0.078561 0.139411
C31   C     C_R   0.620769 0.620521 0.921505 0.139106
C32   C     C_R   0.379045 0.620542 0.078071 0.140761
C33   C     C_R   0.620673 0.378373 0.923119 0.140197
C34   C     C_R   0.875892 0.172711 0.332224 -0.403327
C35   C     C_R   0.879011 0.060101 0.416311 -0.150701
C36   C     C_R   0.080691 0.861903 0.692359 -0.426268
C37   C     C_R   0.172342 0.123809 0.331664 -0.407832
C38   C     C_R   0.863780 0.917461 0.690259 -0.419782
C39   C     C_R   0.123761 0.827522 0.331891 -0.402813
C40   C     C_R   0.916132 0.140517 0.690826 -0.420274
C41   C     C_R   0.827455 0.875827 0.331916 -0.408950
C42   C     C_R   0.135063 0.083044 0.690577 -0.422186
C43   C     C_R   0.876018 0.827535 0.668371 -0.434798
C44   C     C_R   0.082645 0.133046 0.307842 -0.416234
C45   C     C_R   0.168105 0.889775 0.675296 -0.425675
C46   C     C_R   0.119972 0.940537 0.584892 -0.147237
C47   C     C_R   0.866954 0.083051 0.307954 -0.421194
C48   C     C_R   0.126037 0.172940 0.667177 -0.402340
C49   C     C_R   0.917113 0.866903 0.307884 -0.416769
C50   C     C_R   0.828693 0.114149 0.671722 -0.433614
C51   C     C_R   0.132573 0.917217 0.307707 -0.421066
C52   C     C_R   0.355154 0.703399 0.882959 -0.404905
C53   C     C_R   0.657851 0.291245 0.066862 -0.415334
C54   C     C_R   0.702220 0.646675 0.881616 -0.407918
C55   C     C_R   0.291619 0.341978 0.067358 -0.385676
C56   C     C_R   0.644803 0.293460 0.888906 -0.393628
C57   C     C_R   0.939890 0.879004 0.416285 -0.150247
C58   C     C_R   0.342518 0.709002 0.067427 -0.383234
C59   C     C_R   0.296886 0.353436 0.883622 -0.384618
C60   C     C_R   0.707979 0.658394 0.066791 -0.420839
C61   C     C_R   0.353837 0.297411 0.118253 -0.408888
C62   C     C_R   0.657732 0.708613 0.932870 -0.388253
C63   C     C_R   0.703508 0.354171 0.116137 -0.386869
C64   C     C_R   0.291821 0.658948 0.932633 -0.418071
C65   C     C_R   0.646332 0.702022 0.118976 -0.400159
C66   C     C_R   0.342085 0.291248 0.934046 -0.418819
C67   C     C_R   0.296409 0.645879 0.116113 -0.391343
C68   C     C_R   0.061338 0.121677 0.583048 -0.145067
C69   C     C_R   0.709237 0.341811 0.933798 -0.384258
C70   C     C_R   0.859364 0.188530 0.285827 0.562137
C71   C     C_R   0.095327 0.845340 0.739587 0.627628
C72   C     C_R   0.187966 0.140304 0.285172 0.563107
C73   C     C_R   0.845332 0.903348 0.736762 0.593579
C74   C     C_R   0.140226 0.811776 0.285458 0.560987
C75   C     C_R   0.900493 0.157580 0.737432 0.617618
C76   C     C_R   0.811751 0.859321 0.285438 0.564709
C77   C     C_R   0.153770 0.097388 0.737003 0.595102
C78   C     C_R   0.859184 0.812268 0.715131 0.584425
C79   C     C_R   0.630173 0.569654 0.066873 -0.145109
C80   C     C_R   0.097392 0.151015 0.261329 0.613160
C81   C     C_R   0.183677 0.873163 0.721547 0.579594
C82   C     C_R   0.848894 0.097988 0.261529 0.613229
C83   C     C_R   0.143128 0.188246 0.713554 0.566985
C84   C     C_R   0.902296 0.848953 0.261375 0.612604
C85   C     C_R   0.811856 0.131789 0.717544 0.588608
C86   C     C_R   0.150549 0.902348 0.261229 0.613789
C87   C     C_R   0.317933 0.739623 0.868332 0.577109
C88   C     C_R   0.695451 0.253501 0.077686 0.624096
C89   C     C_R   0.737690 0.684771 0.867260 0.578815
C90   C     C_R   0.369787 0.430710 0.932974 -0.152561
C91   C     C_R   0.254281 0.304673 0.078336 0.608744
C92   C     C_R   0.681715 0.256727 0.876038 0.575553
C93   C     C_R   0.305360 0.746426 0.078641 0.612186
C94   C     C_R   0.261510 0.315649 0.869785 0.565877
C95   C     C_R   0.745677 0.696184 0.077265 0.622288
C96   C     C_R   0.315949 0.261676 0.132522 0.579116
C97   C     C_R   0.694816 0.746154 0.921822 0.608596
C98   C     C_R   0.739186 0.316692 0.129940 0.567387
C99   C     C_R   0.254738 0.697168 0.921883 0.618491
C100  C     C_R   0.684184 0.737746 0.133076 0.574116
C101  C     C_R   0.569786 0.369696 0.066492 -0.144385
C102  C     C_R   0.304676 0.253218 0.923271 0.626870
C103  C     C_R   0.260729 0.683434 0.129981 0.572723
C104  C     C_R   0.746091 0.303730 0.923649 0.616806
C105  C     C_3   0.231602 0.663534 0.800993 -0.175916
C106  C     C_3   0.880513 0.286064 0.118667 -0.028916
C107  C     C_3   0.657941 0.777680 0.802523 -0.152322
C108  C     C_3   0.285527 0.119765 0.118428 -0.027967
C109  C     C_3   0.771235 0.340105 0.805257 -0.150420
C110  C     C_3   0.119761 0.714568 0.117790 -0.021355
C111  C     C_3   0.343993 0.222074 0.805314 -0.149835
C112  C     C_R   0.878696 0.939115 0.416532 -0.147746
C113  C     C_R   0.430955 0.630224 0.932888 -0.153115
C114  C     C_3   0.713029 0.880164 0.119671 -0.035437
C115  C     C_3   0.223720 0.340388 0.198744 -0.153202
C116  C     C_3   0.879343 0.714964 0.880432 -0.016940
C117  C     C_3   0.658051 0.223436 0.196447 -0.155632
C118  C     C_3   0.286750 0.881550 0.883766 -0.012539
C119  C     C_3   0.778141 0.658914 0.197219 -0.161390
C120  C     C_3   0.120266 0.284641 0.880410 -0.030737
C121  C     C_3   0.341557 0.776448 0.197491 -0.143692
C122  C     C_3   0.717233 0.114915 0.887265 0.010601
C123  C     C_3   0.731437 0.154956 0.283548 -0.232769
C124  C     C_R   0.369777 0.430256 0.066688 -0.145424
C125  C     C_3   0.146782 0.914618 0.863089 -0.222961
C126  C     C_3   0.159310 0.270473 0.282425 -0.216209
C127  C     C_3   0.914783 0.850155 0.855709 -0.239344
C128  C     C_3   0.267986 0.845457 0.283801 -0.231357
C129  C     C_3   0.852417 0.085744 0.858954 -0.234185
C130  C     C_3   0.841465 0.728961 0.281563 -0.219065
C131  C     C_3   0.086554 0.150137 0.856709 -0.225481
C132  C     C_3   0.727203 0.841232 0.717990 -0.213430
C133  C     C_3   0.150377 0.085522 0.140006 -0.238955
C134  C     C_3   0.163241 0.733418 0.717188 -0.225407
C135  C     C_R   0.630127 0.569241 0.932708 -0.152618
C136  C     C_3   0.914333 0.151598 0.140860 -0.235852
C137  C     C_3   0.271471 0.154099 0.716939 -0.218763
C138  C     C_3   0.848140 0.915311 0.140883 -0.238350
C139  C     C_3   0.827202 0.267794 0.716025 -0.259919
C140  C     C_3   0.085890 0.848926 0.140022 -0.236469
C141  C     C_3   0.896447 0.267878 0.275700 -0.243063
C142  C     C_3   0.017733 0.801293 0.753898 -0.136434
C143  C     C_3   0.267232 0.103350 0.274655 -0.233455
C144  C     C_3   0.807010 0.983112 0.753044 -0.075087
C145  C     C_3   0.103177 0.732487 0.275000 -0.243617
C146  C     C_R   0.430213 0.630322 0.066443 -0.144791
C147  C     C_3   0.975131 0.205437 0.752658 -0.150867
C148  C     C_3   0.732278 0.896151 0.275632 -0.231639
C149  C     C_3   0.188922 0.016488 0.754727 -0.068183
C150  C     C_3   0.892089 0.728744 0.711190 -0.219980
C151  C     C_3   0.019206 0.190350 0.242677 -0.166729
C152  C     C_3   0.266123 0.843687 0.715489 -0.270832
C153  C     C_3   0.810060 0.019529 0.242564 -0.163136
C154  C     C_3   0.106505 0.267685 0.724455 -0.250437
C155  C     C_3   0.980724 0.810246 0.242402 -0.164386
C156  C     C_3   0.726930 0.148061 0.697376 -0.286725
C157  C     C_R   0.569208 0.369549 0.933576 -0.150580
C158  C     C_3   0.189006 0.980991 0.242198 -0.163926
C159  C     C_3   0.361928 0.763609 0.797358 -0.303256
C160  C     C_3   0.675613 0.200198 0.011694 -0.139012
C161  C     C_3   0.759345 0.647419 0.792754 -0.266136
C162  C     C_3   0.203860 0.292301 0.011562 -0.144339
C163  C     C_3   0.663124 0.228990 0.798814 -0.292710
C164  C     C_3   0.293272 0.798615 0.013137 -0.137806
C165  C     C_3   0.241759 0.328884 0.789568 -0.253199
C166  C     C_3   0.797666 0.675534 0.010218 -0.157035
C167  C     C_3   0.354010 0.239418 0.206577 -0.265713
C168  C     C_R   0.630455 0.429756 0.934229 -0.145642
C169  C     C_3   0.707217 0.796527 0.988644 -0.142022
C170  C     C_3   0.760158 0.330717 0.209754 -0.256209
C171  C     C_3   0.201430 0.677819 0.988094 -0.151006
C172  C     C_3   0.647207 0.758846 0.207937 -0.265170
C173  C     C_3   0.325446 0.200540 0.989656 -0.150683
C174  C     C_3   0.239190 0.669248 0.209601 -0.254499
C175  C     C_3   0.799002 0.293748 0.988869 -0.141318
C176  C     C_R   0.369805 0.569209 0.067064 -0.151271
C177  C     C_R   0.569678 0.630276 0.933334 -0.147001
C178  C     C_R   0.430852 0.369845 0.067338 -0.152293
C179  C     C_R   0.369718 0.569942 0.933577 -0.145494
C180  C     C_R   0.059067 0.880151 0.584974 -0.148627
C181  C     C_R   0.630190 0.430819 0.067097 -0.151870
C182  C     C_R   0.430212 0.369663 0.933572 -0.143660
C183  C     C_R   0.569116 0.630096 0.067496 -0.152777
C184  C     C_R   0.878735 0.120260 0.343558 0.039166
C185  C     C_R   0.117405 0.881952 0.659657 0.048801
C186  C     C_R   0.119965 0.121125 0.343278 0.039677
C187  C     C_R   0.877383 0.879724 0.655795 0.057354
C188  C     C_R   0.120927 0.879956 0.343304 0.038935
C189  C     C_R   0.880073 0.120568 0.657517 0.051464
C190  C     C_R   0.879855 0.878694 0.343406 0.040413
C191  C     C_R   0.939126 0.121363 0.416600 -0.148512
C192  C     C_R   0.122837 0.120638 0.655459 0.046554
C193  C     C_R   0.341403 0.661581 0.912338 0.038265
C194  C     C_R   0.661229 0.340919 0.087142 0.027768
C195  C     C_R   0.660750 0.659273 0.911955 0.023590
C196  C     C_R   0.340998 0.339034 0.088140 0.024047
C197  C     C_R   0.659009 0.337592 0.915045 0.014469
C198  C     C_R   0.338875 0.659146 0.087259 0.011609
C199  C     C_R   0.338843 0.340654 0.913164 0.027330
C200  C     C_R   0.658960 0.660857 0.088372 0.039769
C201  C     C_R   0.194716 0.738755 0.829150 0.437996
C202  C     C_R   0.878339 0.939373 0.582869 -0.151458
C203  C     C_R   0.817460 0.224722 0.135885 0.456954
C204  C     C_R   0.735066 0.809635 0.831109 0.439863
C205  C     C_R   0.223865 0.182491 0.135290 0.453748
C206  C     C_R   0.803634 0.262092 0.831230 0.424033
C207  C     C_R   0.182783 0.775761 0.135604 0.453910
C208  C     C_R   0.265535 0.191261 0.830939 0.419786
C209  C     C_R   0.775370 0.817819 0.135567 0.456190
C210  C     C_R   0.191492 0.263743 0.169262 0.441450
C211  C     C_R   0.816601 0.776849 0.864070 0.448880
C212  C     C_R   0.735978 0.192398 0.169749 0.422916
C213  C     C_R   0.121269 0.060866 0.416509 -0.147635
C214  C     C_R   0.225070 0.819344 0.866080 0.432109
C215  C     C_R   0.808793 0.736507 0.168464 0.437768
C216  C     C_R   0.183570 0.223427 0.863779 0.458550
C217  C     C_R   0.264049 0.807892 0.170109 0.425030
C218  C     C_R   0.775262 0.180065 0.866934 0.431578
C219  C     C_R   0.763138 0.164491 0.205189 0.431140
C220  C     C_R   0.193049 0.847345 0.833687 0.442298
C221  C     C_R   0.163844 0.236568 0.204844 0.430636
C222  C     C_R   0.843666 0.807471 0.829749 0.417227
C223  C     C_R   0.236650 0.835899 0.205301 0.429391
C224  C     C_R   0.940329 0.120491 0.584269 -0.150093
C225  C     C_R   0.805199 0.153387 0.831769 0.430573
C226  C     C_R   0.836280 0.763528 0.204292 0.432623
C227  C     C_R   0.156849 0.193032 0.829085 0.398336
C228  C     C_R   0.761853 0.837328 0.795291 0.434021
C229  C     C_R   0.193166 0.155097 0.169315 0.400677
C230  C     C_R   0.165970 0.766652 0.794904 0.432798
C231  C     C_R   0.844687 0.194221 0.170123 0.401311
C232  C     C_R   0.238906 0.163481 0.795002 0.432777
C233  C     C_R   0.806019 0.845111 0.169704 0.401900
C234  C     C_R   0.829581 0.235543 0.794135 0.435505
C235  C     C_R   0.060763 0.878721 0.416498 -0.148473
C236  C     C_R   0.155329 0.806258 0.169687 0.401422
C237  C     C_R   0.844655 0.150934 0.251140 -0.025144
C238  C     C_R   0.147520 0.849866 0.753231 -0.039245
C239  C     C_R   0.150254 0.155020 0.250623 -0.027083
C240  C     C_R   0.842845 0.850570 0.748511 -0.019841
C241  C     C_R   0.154883 0.849419 0.250800 -0.025302
C242  C     C_R   0.848028 0.153645 0.750085 -0.029309
C243  C     C_R   0.849414 0.844779 0.250784 -0.027284
C244  C     C_R   0.157985 0.150275 0.747843 -0.017763
C245  C     C_R   0.267492 0.735727 0.887545 -0.041290
C246  C     C_R   0.120885 0.939966 0.416200 -0.150369
C247  C     C_R   0.734371 0.265858 0.111752 -0.061360
C248  C     C_R   0.733434 0.734910 0.887222 -0.054480
C249  C     C_R   0.265771 0.265902 0.112732 -0.054501
C250  C     C_R   0.733210 0.262778 0.891969 -0.063792
C251  C     C_R   0.265892 0.734391 0.112162 -0.070194
C252  C     C_R   0.266203 0.265041 0.888580 -0.062605
C253  C     C_R   0.734041 0.734197 0.112467 -0.047357
C254  C     C_R   0.166966 0.821124 0.795894 -0.268237
C255  C     C_R   0.817367 0.168083 0.207005 -0.223119
C256  C     C_R   0.816055 0.833889 0.793146 -0.227829
H1    H     H_    0.157797 0.041364 0.589135 0.094487
H2    H     H_    0.844069 0.039795 0.591610 0.088505
H3    H     H_    0.323177 0.880906 0.905102 0.120754
H4    H     H_    0.746859 0.684418 0.211373 0.075125
H5    H     H_    0.799472 0.642209 0.228642 0.153315
H6    H     H_    0.759355 0.626610 0.177335 0.148853
H7    H     H_    0.081560 0.266789 0.884623 0.151426
H8    H     H_    0.126808 0.295383 0.841391 0.153132
H9    H     H_    0.120263 0.320983 0.901909 0.128336
H10   H     H_    0.342068 0.737967 0.179710 0.105463
H11   H     H_    0.323717 0.773224 0.234280 0.089156
H12   H     H_    0.382300 0.788319 0.202910 0.160110
H13   H     H_    0.039777 0.156285 0.408779 0.093687
H14   H     H_    0.736834 0.077109 0.891801 0.149361
H15   H     H_    0.704712 0.119939 0.848514 0.162300
H16   H     H_    0.681786 0.113970 0.910011 0.115414
H17   H     H_    0.743188 0.196390 0.285646 0.116797
H18   H     H_    0.754756 0.132537 0.310159 0.143783
H19   H     H_    0.690526 0.152376 0.295288 0.158798
H20   H     H_    0.148526 0.899118 0.901065 0.148478
H21   H     H_    0.110767 0.901618 0.844578 0.160466
H22   H     H_    0.145320 0.957360 0.865610 0.171745
H23   H     H_    0.202205 0.267496 0.279863 0.119518
H24   H     H_    0.958237 0.842613 0.590344 0.087664
H25   H     H_    0.144907 0.242109 0.309612 0.140667
H26   H     H_    0.150132 0.309496 0.296721 0.153364
H27   H     H_    0.902267 0.847730 0.894622 0.152639
H28   H     H_    0.901771 0.887205 0.839146 0.169254
H29   H     H_    0.957605 0.850018 0.855207 0.179446
H30   H     H_    0.255967 0.804103 0.285926 0.117025
H31   H     H_    0.244775 0.868028 0.310376 0.143942
H32   H     H_    0.308905 0.847798 0.295572 0.158856
H33   H     H_    0.850121 0.099340 0.897547 0.151831
H34   H     H_    0.888249 0.100408 0.841262 0.165149
H35   H     H_    0.843631 0.039854 0.408922 0.093128
H36   H     H_    0.854789 0.042967 0.859627 0.175038
H37   H     H_    0.798519 0.731225 0.279106 0.118972
H38   H     H_    0.855492 0.757445 0.308815 0.140572
H39   H     H_    0.851328 0.690043 0.295708 0.153312
H40   H     H_    0.098850 0.154382 0.895544 0.153205
H41   H     H_    0.100439 0.112744 0.841542 0.172298
H42   H     H_    0.043741 0.149331 0.856057 0.175296
H43   H     H_    0.729862 0.798318 0.720923 0.111454
H44   H     H_    0.755542 0.855133 0.690560 0.138130
H45   H     H_    0.688215 0.850575 0.703752 0.154765
H46   H     H_    0.154928 0.961137 0.592875 0.089690
H47   H     H_    0.154951 0.098751 0.101479 0.156413
H48   H     H_    0.112903 0.099097 0.155199 0.176046
H49   H     H_    0.149492 0.042685 0.139691 0.176470
H50   H     H_    0.205341 0.726915 0.722330 0.090958
H51   H     H_    0.157259 0.767042 0.692720 0.124991
H52   H     H_    0.147569 0.698999 0.698120 0.164298
H53   H     H_    0.901305 0.156392 0.102300 0.156351
H54   H     H_    0.900661 0.114012 0.155799 0.176830
H55   H     H_    0.957146 0.150724 0.140733 0.175572
H56   H     H_    0.259933 0.195580 0.714821 0.111378
H57   H     H_    0.960088 0.843605 0.408913 0.093550
H58   H     H_    0.248249 0.131777 0.690160 0.143037
H59   H     H_    0.312448 0.151400 0.705442 0.158752
H60   H     H_    0.843557 0.902382 0.102265 0.156297
H61   H     H_    0.885777 0.901928 0.155877 0.175856
H62   H     H_    0.848658 0.958154 0.140897 0.176721
H63   H     H_    0.784632 0.267377 0.722229 0.092019
H64   H     H_    0.837799 0.236727 0.689986 0.137805
H65   H     H_    0.836832 0.305034 0.698152 0.163605
H66   H     H_    0.099168 0.844160 0.101539 0.156256
H67   H     H_    0.099476 0.886497 0.155066 0.177027
H68   H     H_    0.041354 0.157178 0.590582 0.088275
H69   H     H_    0.043079 0.849813 0.139635 0.175799
H70   H     H_    0.888390 0.307842 0.263232 0.163751
H71   H     H_    0.924300 0.250750 0.249392 0.158548
H72   H     H_    0.913871 0.270512 0.312770 0.128177
H73   H     H_    0.029065 0.774682 0.723733 0.124809
H74   H     H_    0.988502 0.829827 0.741465 0.128737
H75   H     H_    0.999284 0.777436 0.782733 0.189073
H76   H     H_    0.250157 0.075650 0.248141 0.155684
H77   H     H_    0.269804 0.085658 0.311618 0.124741
H78   H     H_    0.307193 0.111555 0.262305 0.164245
H79   H     H_    0.667690 0.551522 0.064428 0.097240
H80   H     H_    0.778815 0.972991 0.723776 0.125905
H81   H     H_    0.836000 0.011378 0.739588 0.125734
H82   H     H_    0.785046 0.002289 0.782764 0.199482
H83   H     H_    0.111315 0.692454 0.262788 0.163898
H84   H     H_    0.075622 0.749522 0.248348 0.158939
H85   H     H_    0.085359 0.730059 0.311911 0.128024
H86   H     H_    0.961338 0.232025 0.723388 0.134226
H87   H     H_    0.006561 0.180039 0.739031 0.127700
H88   H     H_    0.991657 0.229757 0.782177 0.175951
H89   H     H_    0.749560 0.924642 0.249994 0.154626
H90   H     H_    0.332275 0.448804 0.935902 0.101499
H91   H     H_    0.729117 0.912835 0.312965 0.124569
H92   H     H_    0.692527 0.888084 0.262599 0.164084
H93   H     H_    0.217409 0.024746 0.725199 0.125306
H94   H     H_    0.158650 0.989259 0.741912 0.123722
H95   H     H_    0.210155 0.997010 0.784751 0.204032
H96   H     H_    0.930572 0.747290 0.715455 0.118735
H97   H     H_    0.885560 0.716889 0.672634 0.130794
H98   H     H_    0.892308 0.693113 0.733738 0.163722
H99   H     H_    0.030402 0.219938 0.270342 0.134022
H100  H     H_    0.989745 0.163496 0.257727 0.134734
H101  H     H_    0.551618 0.332171 0.063920 0.095743
H102  H     H_    0.001142 0.211179 0.211635 0.188378
H103  H     H_    0.306769 0.853919 0.723659 0.176299
H104  H     H_    0.262299 0.842041 0.674943 0.126601
H105  H     H_    0.258354 0.805149 0.731819 0.128138
H106  H     H_    0.780607 0.030221 0.270503 0.130787
H107  H     H_    0.837248 0.990174 0.257219 0.133766
H108  H     H_    0.789152 0.001525 0.211531 0.189100
H109  H     H_    0.078711 0.250444 0.750760 0.161046
H110  H     H_    0.088903 0.270729 0.687492 0.128037
H111  H     H_    0.114834 0.307501 0.737199 0.164098
H112  H     H_    0.843206 0.959091 0.409037 0.089394
H113  H     H_    0.449254 0.667682 0.935716 0.100777
H114  H     H_    0.969899 0.780524 0.270069 0.133025
H115  H     H_    0.010016 0.837337 0.257377 0.134042
H116  H     H_    0.998841 0.789627 0.211269 0.188344
H117  H     H_    0.688825 0.154002 0.714850 0.165323
H118  H     H_    0.720720 0.120982 0.666434 0.148897
H119  H     H_    0.740475 0.186361 0.683913 0.116463
H120  H     H_    0.218583 0.970459 0.270082 0.131105
H121  H     H_    0.161687 0.010196 0.256892 0.134118
H122  H     H_    0.209729 0.999105 0.211117 0.189161
H123  H     H_    0.351977 0.724527 0.783153 0.127081
H124  H     H_    0.332256 0.448372 0.064186 0.098781
H125  H     H_    0.402857 0.765346 0.809331 0.160786
H126  H     H_    0.357828 0.791051 0.766527 0.161808
H127  H     H_    0.692705 0.231174 0.988589 0.101694
H128  H     H_    0.632805 0.201185 0.009801 0.128485
H129  H     H_    0.688245 0.162720 0.996142 0.188454
H130  H     H_    0.720710 0.660885 0.780243 0.120858
H131  H     H_    0.758817 0.605232 0.800058 0.146027
H132  H     H_    0.786785 0.654200 0.762254 0.185142
H133  H     H_    0.214728 0.250777 0.009238 0.151005
H134  H     H_    0.229294 0.316085 0.987685 0.115836
H135  H     H_    0.667658 0.551151 0.935440 0.098547
H136  H     H_    0.163929 0.295990 0.997346 0.192908
H137  H     H_    0.702127 0.232865 0.782317 0.130593
H138  H     H_    0.640514 0.265115 0.793385 0.131421
H139  H     H_    0.642539 0.197891 0.778900 0.176931
H140  H     H_    0.251482 0.788800 0.011023 0.150658
H141  H     H_    0.316118 0.773059 0.988571 0.113926
H142  H     H_    0.297842 0.838750 0.999621 0.191755
H143  H     H_    0.255306 0.289941 0.778322 0.126007
H144  H     H_    0.273206 0.357810 0.785188 0.130090
H145  H     H_    0.210100 0.339966 0.764350 0.189392
H146  H     H_    0.448374 0.667849 0.063855 0.098913
H147  H     H_    0.765513 0.690380 0.987183 0.104748
H148  H     H_    0.798185 0.632640 0.010238 0.132275
H149  H     H_    0.834216 0.688732 0.993174 0.190898
H150  H     H_    0.340839 0.278050 0.219419 0.122526
H151  H     H_    0.396094 0.239815 0.198875 0.145928
H152  H     H_    0.347449 0.211805 0.236992 0.185196
H153  H     H_    0.748769 0.785816 0.990821 0.151685
H154  H     H_    0.683632 0.770947 0.012562 0.114589
H155  H     H_    0.703421 0.836445 0.002914 0.194066
H156  H     H_    0.747056 0.291762 0.221479 0.126703
H157  H     H_    0.550859 0.332160 0.936881 0.097433
H158  H     H_    0.728594 0.359437 0.214378 0.130518
H159  H     H_    0.792158 0.342232 0.234424 0.188282
H160  H     H_    0.233038 0.693682 0.011239 0.105131
H161  H     H_    0.201203 0.634949 0.989445 0.132323
H162  H     H_    0.164464 0.691309 0.004068 0.190011
H163  H     H_    0.660836 0.720141 0.220139 0.121123
H164  H     H_    0.604995 0.758270 0.200892 0.147223
H165  H     H_    0.654139 0.786122 0.238552 0.186097
H166  H     H_    0.309475 0.232015 0.012884 0.104078
H167  H     H_    0.368307 0.200963 0.990413 0.129509
H168  H     H_    0.667999 0.447786 0.937142 0.096468
H169  H     H_    0.312740 0.163419 0.005953 0.189585
H170  H     H_    0.252041 0.708220 0.221526 0.127808
H171  H     H_    0.270846 0.640646 0.214345 0.130220
H172  H     H_    0.207068 0.657510 0.234024 0.187627
H173  H     H_    0.788523 0.252218 0.992620 0.151047
H174  H     H_    0.774192 0.317976 0.012929 0.115787
H175  H     H_    0.839382 0.298181 0.001699 0.190596
H176  H     H_    0.332306 0.551036 0.064181 0.099715
H177  H     H_    0.551522 0.667794 0.935835 0.098827
H178  H     H_    0.448978 0.332315 0.064611 0.097515
H179  H     H_    0.332159 0.551878 0.936139 0.097536
H180  H     H_    0.038739 0.844887 0.592594 0.091483
H181  H     H_    0.667687 0.448988 0.064186 0.100657
H182  H     H_    0.448371 0.332156 0.936186 0.096648
H183  H     H_    0.551024 0.667647 0.064803 0.101574
H184  H     H_    0.884315 0.201226 0.360100 0.157843
H185  H     H_    0.040762 0.860110 0.680977 0.152537
H186  H     H_    0.200964 0.115356 0.359414 0.158960
H187  H     H_    0.868066 0.957795 0.680714 0.157085
H188  H     H_    0.115409 0.798953 0.359737 0.157998
H189  H     H_    0.956466 0.141576 0.680669 0.154564
H190  H     H_    0.798902 0.884187 0.359743 0.158502
H191  H     H_    0.959088 0.156912 0.409164 0.089452
H192  H     H_    0.129568 0.042723 0.681535 0.158593
H193  H     H_    0.886059 0.799052 0.641021 0.152930
H194  H     H_    0.042211 0.127920 0.316560 0.160621
H195  H     H_    0.196221 0.907505 0.651265 0.161533
H196  H     H_    0.872229 0.042573 0.316492 0.161461
H197  H     H_    0.117404 0.201716 0.639610 0.156918
H198  H     H_    0.957550 0.872175 0.316524 0.160658
H199  H     H_    0.801638 0.096180 0.646865 0.153891
H200  H     H_    0.127272 0.957676 0.316305 0.161408
H201  H     H_    0.394325 0.706007 0.869497 0.154813
H202  H     H_    0.842612 0.959251 0.589570 0.093978
H203  H     H_    0.625497 0.281857 0.043512 0.153273
H204  H     H_    0.705347 0.607840 0.867278 0.156898
H205  H     H_    0.281714 0.373390 0.042942 0.163653
H206  H     H_    0.605575 0.288746 0.875892 0.165793
H207  H     H_    0.374424 0.719282 0.043756 0.164240
H208  H     H_    0.293272 0.392022 0.868646 0.164683
H209  H     H_    0.716691 0.626718 0.042391 0.153004
H210  H     H_    0.392712 0.294339 0.132450 0.156719
H211  H     H_    0.626411 0.718341 0.957429 0.164131
H212  H     H_    0.707233 0.392935 0.130673 0.164582
H213  H     H_    0.156778 0.040922 0.409035 0.089498
H214  H     H_    0.282097 0.626822 0.956163 0.154000
H215  H     H_    0.607655 0.704700 0.133719 0.155769
H216  H     H_    0.374200 0.282350 0.957846 0.153311
H217  H     H_    0.292470 0.607032 0.130394 0.165943
H218  H     H_    0.720261 0.374787 0.955808 0.162877
H219  H     H_    0.260419 0.691695 0.786519 0.073106
H220  H     H_    0.214267 0.642626 0.769588 0.154408
H221  H     H_    0.252740 0.634913 0.823609 0.150663
H222  H     H_    0.919157 0.268257 0.113972 0.151242
H223  H     H_    0.874459 0.296700 0.157784 0.153043
H224  H     H_    0.960521 0.155938 0.591562 0.091662
H225  H     H_    0.880259 0.322462 0.097253 0.127766
H226  H     H_    0.683909 0.746712 0.788490 0.071828
H227  H     H_    0.640735 0.798442 0.770998 0.150361
H228  H     H_    0.626077 0.758501 0.822683 0.147942
H229  H     H_    0.267872 0.081021 0.113659 0.153582
H230  H     H_    0.295899 0.125883 0.157600 0.154009
H231  H     H_    0.322047 0.120157 0.097242 0.117974
H232  H     H_    0.735019 0.317632 0.800101 0.063820
H233  H     H_    0.788209 0.349822 0.769192 0.148460
H234  H     H_    0.760339 0.377001 0.823113 0.153770
H235  H     H_    0.040758 0.843211 0.409010 0.089424
H236  H     H_    0.081193 0.732448 0.112782 0.150787
H237  H     H_    0.125436 0.703888 0.156951 0.151604
H238  H     H_    0.120146 0.678181 0.096363 0.121705
H239  H     H_    0.343668 0.260848 0.822515 0.104285
H240  H     H_    0.327633 0.224577 0.767868 0.093371
H241  H     H_    0.384965 0.210325 0.801564 0.162665
H242  H     H_    0.730321 0.919116 0.115252 0.154206
H243  H     H_    0.702905 0.873476 0.158814 0.155992
H244  H     H_    0.676421 0.879706 0.098613 0.126401
H245  H     H_    0.254397 0.314030 0.212708 0.073656
H246  H     H_    0.156249 0.960211 0.408760 0.093332
H247  H     H_    0.203008 0.357512 0.230332 0.150870
H248  H     H_    0.243227 0.372269 0.178873 0.148975
H249  H     H_    0.918169 0.732426 0.885121 0.152731
H250  H     H_    0.873016 0.704782 0.841244 0.161186
H251  H     H_    0.878861 0.678339 0.901496 0.115074
H252  H     H_    0.657860 0.262041 0.178902 0.106016
H253  H     H_    0.675284 0.226372 0.233517 0.093752
H254  H     H_    0.617213 0.211565 0.201170 0.160842
H255  H     H_    0.269203 0.920296 0.888722 0.157709
H256  H     H_    0.297246 0.875720 0.844574 0.165343
N1    N     N_R   0.086860 0.049310 0.548290 -0.039078
N2    N     N_R   0.913140 0.049310 0.548290 -0.039429
N3    N     N_R   0.049310 0.086860 0.451710 -0.039511
N4    N     N_R   0.950690 0.913140 0.548290 -0.038895
N5    N     N_R   0.913140 0.049310 0.451710 -0.039368
N6    N     N_R   0.086860 0.950690 0.548290 -0.039591
N7    N     N_R   0.950690 0.913140 0.451710 -0.039427
N8    N     N_R   0.049310 0.086860 0.548290 -0.039081
N9    N     N_R   0.586860 0.549310 0.048290 -0.040049
N10   N     N_R   0.413140 0.450690 0.951710 -0.039801
N11   N     N_R   0.549310 0.413140 0.048290 -0.040225
N12   N     N_R   0.913140 0.950690 0.451710 -0.039175
N13   N     N_R   0.450690 0.586860 0.951710 -0.039610
N14   N     N_R   0.413140 0.450690 0.048290 -0.040173
N15   N     N_R   0.586860 0.549310 0.951710 -0.039575
N16   N     N_R   0.450690 0.586860 0.048290 -0.040459
N17   N     N_R   0.549310 0.413140 0.951710 -0.039787
N18   N     N_R   0.586860 0.450690 0.951710 -0.040160
N19   N     N_R   0.413140 0.549310 0.048290 -0.039845
N20   N     N_R   0.549310 0.586860 0.951710 -0.040103
N21   N     N_R   0.450690 0.413140 0.048290 -0.039587
N22   N     N_R   0.413140 0.549310 0.951710 -0.040073
N23   N     N_R   0.049310 0.913140 0.548290 -0.039696
N24   N     N_R   0.586860 0.450690 0.048290 -0.039674
N25   N     N_R   0.450690 0.413140 0.951710 -0.040500
N26   N     N_R   0.549310 0.586860 0.048290 -0.039588
N27   N     N_R   0.950690 0.086860 0.451710 -0.039311
N28   N     N_R   0.913140 0.950690 0.548290 -0.038918
N29   N     N_R   0.086860 0.049310 0.451710 -0.039210
N30   N     N_R   0.950690 0.086860 0.548290 -0.039453
N31   N     N_R   0.049310 0.913140 0.451710 -0.039378
N32   N     N_R   0.086860 0.950690 0.451710 -0.039423
Ni1   Ni    Ni4+2 0.086090 0.000000 0.500000 0.214644
Ni2   Ni    Ni4+2 0.913910 0.000000 0.500000 0.214126
Ni3   Ni    Ni4+2 0.000000 0.913910 0.500000 0.213936
Ni4   Ni    Ni4+2 0.000000 0.086090 0.500000 0.214383
Ni5   Ni    Ni4+2 0.586090 0.500000 0.000000 0.205454
Ni6   Ni    Ni4+2 0.413910 0.500000 0.000000 0.205933
Ni7   Ni    Ni4+2 0.500000 0.413910 0.000000 0.204428
Ni8   Ni    Ni4+2 0.500000 0.586090 0.000000 0.206488
O1    O     O_3   0.191580 0.685310 0.829537 -0.540086
O2    O     O_3   0.841404 0.748223 0.900173 -0.629111
O3    O     O_3   0.682871 0.186634 0.166439 -0.534056
O4    O     O_3   0.253423 0.843255 0.902843 -0.634977
O5    O     O_3   0.813469 0.683303 0.165241 -0.543244
O6    O     O_3   0.158368 0.251478 0.900026 -0.630576
O7    O     O_3   0.317210 0.813431 0.167318 -0.532051
O8    O     O_3   0.749459 0.154975 0.904744 -0.627449
O9    O     O_3   0.736073 0.132294 0.236623 -0.561281
O10   O     O_3   0.190944 0.900627 0.836103 -0.597472
O11   O     O_3   0.133109 0.263656 0.237461 -0.570144
O12   O     O_3   0.842150 0.252923 0.099409 -0.631393
O13   O     O_3   0.897011 0.807402 0.828627 -0.616105
O14   O     O_3   0.263501 0.868135 0.236869 -0.561875
O15   O     O_3   0.808129 0.100085 0.832301 -0.603314
O16   O     O_3   0.867380 0.736352 0.236538 -0.569269
O17   O     O_3   0.103511 0.192146 0.828156 -0.627789
O18   O     O_3   0.734393 0.867806 0.762721 -0.562820
O19   O     O_3   0.192137 0.101735 0.169251 -0.631628
O20   O     O_3   0.135811 0.739995 0.761459 -0.551035
O21   O     O_3   0.898024 0.193211 0.170248 -0.631811
O22   O     O_3   0.266436 0.131422 0.763827 -0.555680
O23   O     O_3   0.681832 0.813760 0.834110 -0.538421
O24   O     O_3   0.806615 0.898479 0.170109 -0.631093
O25   O     O_3   0.856732 0.263519 0.759384 -0.558002
O26   O     O_3   0.101993 0.807286 0.169482 -0.631995
O27   O     O_3   0.849560 0.240228 0.276490 -0.627489
O28   O     O_3   0.060733 0.826653 0.774557 -0.612010
O29   O     O_3   0.239588 0.150220 0.275674 -0.618522
O30   O     O_3   0.831723 0.939127 0.772671 -0.630196
O31   O     O_3   0.150079 0.760097 0.276098 -0.627445
O32   O     O_3   0.934810 0.175611 0.772840 -0.612471
O33   O     O_3   0.760122 0.849383 0.275944 -0.618597
O34   O     O_3   0.252406 0.157996 0.098961 -0.627510
O35   O     O_3   0.166240 0.061913 0.773555 -0.631753
O36   O     O_3   0.851431 0.760623 0.727532 -0.616987
O37   O     O_3   0.062021 0.162603 0.224577 -0.619397
O38   O     O_3   0.233986 0.881523 0.736582 -0.590154
O39   O     O_3   0.837314 0.062777 0.224609 -0.617806
O40   O     O_3   0.153229 0.239831 0.723250 -0.627238
O41   O     O_3   0.937589 0.837635 0.224486 -0.618529
O42   O     O_3   0.760787 0.126608 0.732377 -0.594173
O43   O     O_3   0.161966 0.937590 0.224289 -0.618232
O44   O     O_3   0.328830 0.779454 0.835571 -0.619988
O45   O     O_3   0.808471 0.315304 0.834807 -0.534016
O46   O     O_3   0.692330 0.202810 0.060811 -0.582164
O47   O     O_3   0.777272 0.674519 0.834250 -0.619000
O48   O     O_3   0.204655 0.309816 0.060387 -0.585082
O49   O     O_3   0.667041 0.214454 0.848405 -0.608306
O50   O     O_3   0.311253 0.796399 0.061764 -0.582585
O51   O     O_3   0.222162 0.328243 0.837703 -0.616633
O52   O     O_3   0.795775 0.694534 0.058624 -0.584317
O53   O     O_3   0.326411 0.221845 0.165245 -0.620001
O54   O     O_3   0.689538 0.795748 0.939877 -0.584307
O55   O     O_3   0.778971 0.329838 0.161345 -0.615739
O56   O     O_3   0.158357 0.747660 0.098883 -0.627348
O57   O     O_3   0.204148 0.695105 0.939138 -0.586583
O58   O     O_3   0.673950 0.777110 0.166372 -0.619550
O59   O     O_3   0.307375 0.202775 0.940941 -0.580178
O60   O     O_3   0.220715 0.670226 0.161076 -0.616686
O61   O     O_3   0.796312 0.309874 0.939673 -0.582277
O62   O     O_3   0.318564 0.185448 0.835091 -0.533532
O63   O     O_3   0.746381 0.842465 0.099656 -0.632875
O64   O     O_3   0.187556 0.317054 0.166879 -0.540516

loop_
_geom_bond_atom_site_label_1
_geom_bond_atom_site_label_2
_ccdc_geom_bond_type
C182  H182  S    
C132  H43   S    
C77   C244  A    
C164  H140  S    
C106  H223  S    
C136  O21   S    
C6    C244  S    
C16   C252  S    
C106  H225  S    
C159  H123  S    
C156  H118  S    
C147  O32   S    
C170  H158  S    
C118  H256  S    
C238  C254  S    
C79   H79   S    
C39   H188  S    
C160  H129  S    
C114  H242  S    
C10   C205  A    
C56   C197  A    
C63   C98   A    
C169  H153  S    
C143  O29   S    
C217  O7    S    
N22   Ni6   S    
C176  N19   A    
C218  O8    S    
C144  O30   S    
C81   C238  A    
C121  H12   S    
C27   C90   A    
N17   Ni7   S    
C39   C74   A    
C107  O23   S    
C152  H104  S    
C84   O41   S    
C152  H105  S    
C159  H126  S    
N4    N28   A    
C137  H59   S    
C228  C256  A    
C155  H115  S    
C181  N24   A    
C164  H141  S    
C116  H251  S    
C67   H217  S    
C46   N6    A    
C149  H95   S    
C24   N4    A    
C36   C71   A    
C20   C184  S    
C132  O18   S    
C145  H84   S    
C119  H4    S    
C13   N3    A    
C126  O11   S    
C205  O34   S    
C53   C194  A    
C160  H128  S    
C96   C249  A    
C145  H85   S    
C160  H127  S    
C139  H63   S    
C66   H216  S    
N15   N20   A    
C45   C81   A    
C19   C46   A    
C143  H78   S    
C104  C250  A    
C151  H102  S    
C56   H206  S    
C128  H32   S    
C15   C215  A    
C209  O63   S    
C164  O50   S    
C174  O60   S    
C24   H24   S    
C169  H155  S    
C83   C244  A    
C112  H112  S    
C45   H195  S    
C224  N30   A    
C71   C238  A    
C43   C187  A    
C97   O54   S    
C6    C227  A    
C202  N28   A    
C130  O16   S    
C4    C225  A    
C61   C196  A    
C121  O7    S    
C158  H120  S    
C122  H15   S    
C208  C232  A    
C77   O35   S    
N23   Ni3   S    
C132  H45   S    
C14   C206  A    
C133  H48   S    
C33   C168  A    
C201  O1    S    
C227  O17   S    
C216  O6    S    
C80   C239  A    
C96   O53   S    
C29   C113  A    
C18   C190  S    
C172  H164  S    
C165  H145  S    
C4    C234  A    
C175  H175  S    
C40   H189  S    
C176  H176  S    
C94   C252  A    
C34   H184  S    
C91   O48   S    
C92   C250  A    
N27   Ni4   S    
C130  H38   S    
N6    Ni1   S    
N10   Ni6   S    
C215  C226  A    
C103  C251  A    
N32   Ni1   S    
C95   O52   S    
C68   H68   S    
C214  C220  A    
C109  H234  S    
C41   C76   A    
C31   C195  S    
C211  C222  A    
C233  O24   S    
C45   C185  A    
C88   O46   S    
N16   N19   A    
C29   C193  S    
C85   C242  A    
C115  H247  S    
C11   C204  A    
C163  H138  S    
C95   C253  A    
C55   H205  S    
C60   C200  A    
C60   C95   A    
C158  H122  S    
C47   H196  S    
C153  H107  S    
C151  H100  S    
C29   C179  A    
C21   C24   A    
C133  O19   S    
C14   C218  A    
C146  H146  S    
C150  H96   S    
C111  H239  S    
C217  C223  A    
C134  O20   S    
N1    N8    A    
C148  H89   S    
C127  H29   S    
C205  C229  A    
C37   H186  S    
C67   C198  A    
C161  H131  S    
C20   C191  A    
C61   C96   A    
C67   C103  A    
C12   C251  S    
C219  C255  A    
C49   C84   A    
C94   O51   S    
C2    N2    A    
N18   Ni5   S    
C180  N23   A    
N8    Ni4   S    
C125  H22   S    
C170  O55   S    
C126  H25   S    
N11   N24   A    
C171  H160  S    
C114  O63   S    
N3    N29   A    
C50   C189  A    
N15   Ni5   S    
C101  H101  S    
C51   C188  A    
C202  H202  S    
C162  H133  S    
C134  H52   S    
C20   C35   A    
C140  O26   S    
C154  H111  S    
C10   C210  A    
C64   C99   A    
C35   H35   S    
C8    C247  S    
C220  C254  A    
C13   C22   A    
C55   C91   A    
C180  H180  S    
C131  H42   S    
C150  H98   S    
C222  O13   S    
C181  H181  S    
C234  O25   S    
C26   C200  S    
C109  O45   S    
C25   C246  A    
C55   C196  A    
C204  O23   S    
C162  O48   S    
C100  O58   S    
C173  H167  S    
C178  N21   A    
C166  H148  S    
C175  H173  S    
C116  H250  S    
C58   H207  S    
C54   H204  S    
C131  O17   S    
C4    C242  S    
C123  H19   S    
C87   C245  A    
C30   C178  A    
C72   C239  A    
C159  O44   S    
C12   C207  A    
C42   H192  S    
C76   C243  A    
C27   C199  S    
C162  H134  S    
C49   C190  A    
C230  O20   S    
C177  N20   A    
C115  H245  S    
C127  H28   S    
C22   C186  S    
C183  N26   A    
C105  H219  S    
C117  O3    S    
C13   H13   S    
C62   C97   A    
N31   N32   A    
N21   Ni7   S    
C120  H7    S    
C124  N14   A    
N5    Ni2   S    
N9    Ni5   S    
N17   N18   A    
C221  O11   S    
C63   C194  A    
N11   Ni7   S    
C138  H62   S    
C161  H130  S    
C41   H190  S    
C39   C188  A    
N10   N25   A    
C64   H214  S    
C82   O39   S    
C90   N10   A    
C174  H172  S    
C129  H34   S    
C157  N17   A    
C148  H91   S    
C236  O26   S    
C38   H187  S    
C9    C245  S    
C52   H201  S    
C15   C253  S    
C125  O10   S    
C142  O28   S    
C141  H71   S    
C5    C223  A    
N7    Ni3   S    
C167  O53   S    
C52   C193  A    
C30   C124  A    
C235  N31   A    
C62   H211  S    
C123  H18   S    
C223  O14   S    
C165  H144  S    
C162  H136  S    
C126  H23   S    
C1    C17   A    
C170  H159  S    
C48   C83   A    
C168  N18   A    
C206  C234  A    
C98   O55   S    
N24   Ni5   S    
C114  H243  S    
C225  O15   S    
C137  H56   S    
C134  H50   S    
C154  H109  S    
N2    Ni2   S    
C115  O64   S    
C123  O9    S    
C219  O9    S    
C178  H178  S    
C131  H40   S    
C1    N1    A    
C108  H229  S    
C127  O13   S    
C141  H70   S    
C159  H125  S    
C69   H218  S    
C42   C77   A    
C22   C213  A    
C3    C239  S    
C2    C23   A    
C164  H142  S    
C163  H139  S    
C8    C212  A    
C172  O58   S    
C125  H20   S    
C70   C237  A    
C123  H17   S    
C136  H53   S    
C171  H162  S    
C57   H57   S    
C173  H166  S    
C105  H220  S    
C107  H228  S    
C3    C229  A    
C43   C78   A    
C203  O12   S    
C143  H77   S    
C11   C248  S    
N14   N21   A    
C144  H81   S    
C58   C93   A    
C18   C112  A    
C147  H88   S    
C6    C232  A    
C105  H221  S    
C119  H6    S    
C32   C146  A    
C156  O42   S    
C137  O22   S    
C82   C237  A    
C155  O41   S    
C206  O45   S    
C36   C185  A    
C117  H254  S    
C16   C216  A    
C111  O62   S    
N13   Ni8   S    
C32   C198  S    
C50   C85   A    
C28   C101  A    
C30   C196  S    
C40   C189  A    
C174  H170  S    
C129  H36   S    
C208  O62   S    
C5    C236  A    
C170  H156  S    
C135  H135  S    
C231  O21   S    
C59   C94   A    
C99   C245  A    
C231  C255  A    
C34   C70   A    
C122  H16   S    
C48   H197  S    
C61   H210  S    
C147  H86   S    
C110  H237  S    
C26   C183  A    
C35   N5    A    
C146  N16   A    
N4    Ni3   S    
N28   Ni2   S    
C3    C221  A    
C133  H47   S    
C121  H11   S    
C106  H222  S    
C213  N29   A    
C62   C195  A    
C144  H80   S    
C51   C86   A    
C79   N9    A    
C33   C157  A    
N9    N26   A    
C145  O31   S    
C1    H1    S    
C156  H117  S    
C17   C192  S    
C142  H74   S    
C149  H94   S    
C44   C80   A    
C118  O4    S    
C73   C240  A    
C31   C135  A    
C169  H154  S    
C141  O27   S    
C235  H235  S    
C118  H3    S    
C145  H83   S    
C153  O39   S    
C130  H39   S    
C138  O24   S    
C70   O27   S    
C108  H231  S    
C109  H233  S    
C246  H246  S    
N19   Ni6   S    
N14   Ni6   S    
C65   C200  A    
C149  O35   S    
C18   C57   A    
C37   C186  A    
C63   H212  S    
C155  H116  S    
C182  N25   A    
C143  H76   S    
C161  O47   S    
C163  H137  S    
C104  O61   S    
C53   H203  S    
C220  O10   S    
N16   Ni8   S    
C122  O8    S    
C136  H55   S    
C153  H106  S    
C137  H58   S    
C92   O49   S    
C140  H67   S    
C179  H179  S    
C168  H168  S    
C169  O54   S    
C100  C253  A    
C107  H226  S    
C12   C217  A    
C128  O14   S    
C86   O43   S    
C139  H64   S    
C91   C249  A    
C17   C68   A    
C54   C195  A    
C103  O60   S    
C117  H253  S    
C21   C202  A    
C237  C255  S    
C8    C203  A    
C139  O25   S    
C128  H31   S    
C47   C184  A    
C230  C254  A    
C121  H10   S    
C158  H121  S    
C165  O51   S    
C14   C250  S    
C212  C219  A    
C150  O36   S    
C9    C214  A    
C183  H183  S    
C26   C79   A    
C40   C75   A    
N30   Ni4   S    
C59   H208  S    
C101  N11   A    
C111  H241  S    
C75   C242  A    
C132  H44   S    
C19   C185  S    
C203  C231  A    
C167  H150  S    
C99   O57   S    
C125  H21   S    
C86   C241  A    
C246  N32   A    
C126  H26   S    
C117  H252  S    
N13   N22   A    
C84   C243  A    
C113  H113  S    
C48   C192  A    
C122  H14   S    
C116  O2    S    
N20   Ni8   S    
C166  O52   S    
C37   C72   A    
C158  O43   S    
C131  H41   S    
C72   O29   S    
C19   C180  A    
N25   Ni7   S    
C44   C186  A    
C156  H119  S    
C228  O18   S    
C7    C233  A    
C172  H163  S    
C112  N12   A    
C66   C102  A    
C166  H149  S    
C89   O47   S    
C232  O22   S    
C142  H75   S    
C97   C248  A    
C135  N15   A    
C80   O37   S    
N1    Ni1   S    
C119  O5    S    
C32   C176  A    
C130  H37   S    
C41   C190  A    
C31   C177  A    
C102  C252  A    
C106  O12   S    
C177  H177  S    
C171  H161  S    
C47   C82   A    
C38   C187  A    
C155  H114  S    
C68   N8    A    
C65   C100  A    
C74   O31   S    
C115  H248  S    
C173  O59   S    
C240  C256  S    
C127  H27   S    
C76   O33   S    
C57   N7    A    
C157  H157  S    
C102  O59   S    
C11   C211  A    
N5    N27   A    
C74   C241  A    
C139  H65   S    
C153  H108  S    
C59   C199  A    
C93   O50   S    
C120  H8    S    
C151  H99   S    
C140  H69   S    
C110  H238  S    
C34   C184  A    
C211  O2    S    
C204  C228  A    
C218  C225  A    
C111  H240  S    
C49   H198  S    
C160  O46   S    
C85   O42   S    
C191  N27   A    
C210  C221  A    
C151  O37   S    
C69   C197  A    
C148  H92   S    
C161  H132  S    
C152  O38   S    
C179  N22   A    
C78   O36   S    
C207  C236  A    
C21   C187  S    
C147  H87   S    
C129  O15   S    
N7    N12   A    
C154  O40   S    
C216  C227  A    
C51   H200  S    
C44   H194  S    
C54   C89   A    
C108  O34   S    
C165  H143  S    
C229  O19   S    
C152  H103  S    
C171  O57   S    
C173  H169  S    
C114  H244  S    
C28   C181  A    
C46   H46   S    
C25   C188  S    
C167  H151  S    
C134  H51   S    
C154  H110  S    
C28   C194  S    
C33   C197  S    
C50   H199  S    
C212  O3    S    
C64   C193  A    
C207  O56   S    
C124  H124  S    
C150  H97   S    
C108  H230  S    
C23   C224  A    
C133  H49   S    
C71   O28   S    
C9    C201  A    
C191  H191  S    
N29   Ni1   S    
C201  C230  A    
C2    H2    S    
C113  N13   A    
C148  O33   S    
C65   H215  S    
C213  H213  S    
C172  H165  S    
C166  H147  S    
C90   H90   S    
C175  H174  S    
C116  H249  S    
C142  H73   S    
C23   C189  S    
C36   H185  S    
C69   C104  A    
C136  H54   S    
C210  O64   S    
C58   C198  A    
C78   C240  A    
C120  H9    S    
C140  H66   S    
C52   C87   A    
C66   C199  A    
C81   O38   S    
C16   C208  A    
C107  H227  S    
C167  H152  S    
C138  H60   S    
C83   O40   S    
C175  O61   S    
C7    C226  A    
C222  C256  A    
C118  H255  S    
C60   H209  S    
C89   C248  A    
C43   H193  S    
N2    N30   A    
C10   C249  S    
C110  O56   S    
C73   O30   S    
C144  H82   S    
C27   C182  A    
C128  H30   S    
C98   C247  A    
C15   C209  A    
C75   O32   S    
C88   C247  A    
N26   Ni8   S    
C119  H5    S    
C141  H72   S    
C105  O1    S    
N3    Ni4   S    
N6    N23   A    
C120  O6    S    
C109  H232  S    
C110  H236  S    
C149  H93   S    
C53   C88   A    
N31   Ni3   S    
C163  O49   S    
C226  O16   S    
C215  O5    S    
C209  C233  A    
C138  H61   S    
C129  H33   S    
C42   C192  A    
C56   C92   A    
C174  H171  S    
C25   C235  A    
C87   O44   S    
C7    C243  S    
C214  O4    S    
C5    C241  S    
N12   Ni2   S    
C93   C251  A    
C224  H224  S    
C38   C73   A    
