data_mof_unit_42586.cif
_audit_creation_date              2012-12-10T19:49:24-0500
_audit_creation_method            fapswitch 2.2
_symmetry_space_group_name_H-M    P1
_symmetry_Int_Tables_number       1
_space_group_crystal_system       triclinic
_cell_length_a                    14.912416
_cell_length_b                    14.215845
_cell_length_c                    14.937788
_cell_angle_alpha                 90.518421
_cell_angle_beta                  90.507325
_cell_angle_gamma                 89.929409
_cell_volume                      3166.4445735

loop_
_atom_site_label
_atom_site_type_symbol
_atom_type_description
_atom_site_fract_x
_atom_site_fract_y
_atom_site_fract_z
_atom_type_partial_charge
C1    C     C_R   0.327751 0.500001 0.500790 0.886697
C2    C     C_R   0.672378 0.499878 0.501095 0.984976
C3    C     C_R   0.354493 0.427614 0.051996 -0.221893
C4    C     C_R   0.645345 0.572470 0.948167 -0.304522
C5    C     C_R   0.089910 0.574663 0.484590 0.458830
C6    C     C_R   0.909496 0.419393 0.492567 0.474043
C7    C     C_R   0.902293 0.573397 0.567087 0.488939
C8    C     C_R   0.099877 0.431301 0.574195 0.505564
C9    C     C_R   0.182185 0.574722 0.476216 -0.313491
C10   C     C_R   0.817016 0.420145 0.483064 -0.312716
C11   C     C_R   0.811079 0.576166 0.550580 -0.312236
C12   C     C_R   0.191454 0.427909 0.557949 -0.370621
C13   C     C_R   0.232173 0.500085 0.510228 -0.164171
C14   C     C_R   0.768409 0.499416 0.509861 -0.155463
C15   C     C_R   0.048920 0.502341 0.533453 -0.070183
C16   C     C_R   0.952137 0.496731 0.534416 -0.076658
C17   C     C_R   0.474838 0.104468 0.422016 0.288856
C18   C     C_R   0.572204 0.896293 0.532871 0.261863
C19   C     C_R   0.519809 0.104771 0.577486 0.297871
C20   C     C_R   0.425347 0.893701 0.463592 0.256111
C21   C     C_R   0.469470 0.203889 0.426138 0.357422
C22   C     C_R   0.567127 0.797008 0.541948 0.346394
C23   C     C_R   0.528551 0.203804 0.573801 0.365940
C24   C     C_R   0.431846 0.794219 0.457470 0.342760
C25   C     C_R   0.497139 0.053072 0.499410 -0.112494
C26   C     C_R   0.498024 0.946498 0.498604 -0.084895
C27   C     C_R   0.502933 0.499639 0.327202 0.934972
C28   C     C_R   0.497068 0.500279 0.672856 0.837059
C29   C     C_R   0.562654 0.544306 0.813356 -0.271645
C30   C     C_R   0.437380 0.455232 0.187025 -0.256563
C31   C     C_R   0.492383 0.501101 0.768340 -0.109285
C32   C     C_R   0.508040 0.498239 0.231897 -0.098852
C33   C     C_R   0.423112 0.454888 0.813696 -0.075416
C34   C     C_R   0.578653 0.542344 0.186377 -0.067890
C35   C     C_R   0.420381 0.462438 0.908143 -0.007867
C36   C     C_R   0.580670 0.535083 0.091992 0.020806
C37   C     C_R   0.497165 0.500142 0.953422 0.046137
C38   C     C_R   0.503497 0.498021 0.046845 0.041711
C39   C     C_R   0.567866 0.540425 0.905175 0.143523
C40   C     C_R   0.432345 0.458701 0.095107 0.084025
C41   C     C_R   0.345214 0.433949 0.959354 0.016621
C42   C     C_R   0.655193 0.564808 0.040328 -0.025623
H1    H     H_    0.616967 0.574862 0.775855 0.145069
H2    H     H_    0.382804 0.424802 0.224682 0.142816
H3    H     H_    0.298463 0.403692 0.091665 0.179999
H4    H     H_    0.701066 0.597867 0.908794 0.136922
H5    H     H_    0.214201 0.631704 0.441121 0.219102
H6    H     H_    0.783729 0.359746 0.453064 0.178457
H7    H     H_    0.773631 0.637448 0.571541 0.229653
H8    H     H_    0.230789 0.369921 0.583632 0.172295
N1    N     N_R   0.500000 0.252470 0.500000 -0.222505
N2    N     N_R   0.500000 0.747530 0.500000 -0.195244
O1    O     O_R   0.369060 0.579480 0.500010 -0.564530
O2    O     O_R   0.630940 0.420520 0.499990 -0.657023
O3    O     O_R   0.630940 0.579480 0.499990 -0.544963
O4    O     O_R   0.369060 0.420520 0.500010 -0.644777
O5    O     O_R   0.499980 0.579490 0.367850 -0.612066
O6    O     O_R   0.500020 0.420510 0.632150 -0.570576
O7    O     O_R   0.500020 0.579490 0.632150 -0.623750
O8    O     O_R   0.499980 0.420510 0.367850 -0.560911
Zn1   Zn    Zn3+2 0.500000 0.606140 0.500000 1.014416
Zn2   Zn    Zn3+2 0.500000 0.393860 0.500000 0.986797
C43   C     C_2   0.361438 0.392673 0.761627 0.384165
H9    H     H_    0.334422 0.415771 0.697975 0.036261
O9    O     O_2   0.344045 0.313597 0.787554 -0.575352
C44   C     C_2   0.643083 0.603670 0.236206 0.477328
H10   H     H_    0.661531 0.671408 0.209007 0.015989
O10   O     O_2   0.678318 0.577891 0.305838 -0.562191
C45   C     C_2   0.253475 0.423015 0.920865 0.473608
H11   H     H_    0.234740 0.458806 0.859696 0.007514
O11   O     O_2   0.197002 0.375595 0.958245 -0.585269
C46   C     C_2   0.747593 0.577624 0.075784 0.366105
H12   H     H_    0.790538 0.631311 0.047831 0.048423
O12   O     O_2   0.778693 0.524157 0.131578 -0.542472
O13   O     O_3   0.040678 0.648662 0.449989 -0.562807
C47   C     C_3   0.020270 0.629413 0.359285 0.089776
H13   H     H_    0.974926 0.567605 0.353193 0.136921
H14   H     H_    0.082216 0.616465 0.319787 0.123570
C48   C     C_3   0.971688 0.713621 0.319654 -0.755464
H15   H     H_    0.015285 0.776839 0.323729 0.243713
H16   H     H_    0.954529 0.699149 0.248362 0.207193
H17   H     H_    0.908880 0.727507 0.357016 0.264358
O14   O     O_3   0.957266 0.340428 0.466474 -0.567130
C49   C     C_3   0.978817 0.347780 0.375065 0.102021
H18   H     H_    0.021098 0.410727 0.363058 0.112007
H19   H     H_    0.916996 0.351273 0.332782 0.157185
C50   C     C_3   0.032538 0.261579 0.347007 -0.796609
H20   H     H_    0.992463 0.196849 0.357393 0.257045
H21   H     H_    0.050044 0.266395 0.275094 0.207817
H22   H     H_    0.095403 0.257317 0.387281 0.252228
O15   O     O_3   0.943083 0.649154 0.609298 -0.560778
C51   C     C_3   0.954036 0.627847 0.700826 0.087103
H23   H     H_    0.999437 0.566369 0.709872 0.135836
H24   H     H_    0.888248 0.612638 0.732375 0.127553
C52   C     C_3   0.995664 0.711948 0.748970 -0.802894
H25   H     H_    0.951266 0.774329 0.742254 0.255784
H26   H     H_    0.004714 0.696002 0.821123 0.201263
H27   H     H_    0.062080 0.728063 0.719760 0.258949
O16   O     O_3   0.057638 0.362150 0.623337 -0.574497
C53   C     C_3   0.093769 0.359179 0.711068 0.082462
H28   H     H_    0.106530 0.430956 0.739255 0.113107
H29   H     H_    0.157284 0.318146 0.711679 0.178423
C54   C     C_3   0.027249 0.310453 0.771646 -0.761541
H30   H     H_    0.014069 0.237886 0.746712 0.256685
H31   H     H_    0.054955 0.306834 0.840766 0.247487
H32   H     H_    0.963168 0.350368 0.772901 0.236845
O17   O     O_3   0.453919 0.058017 0.342961 -0.538685
C55   C     C_3   0.531388 0.053806 0.289615 0.139269
H33   H     H_    0.588414 0.020695 0.326329 0.105568
H34   H     H_    0.551165 0.125482 0.267750 0.172116
C56   C     C_3   0.511505 0.994222 0.206787 -0.835918
H35   H     H_    0.455280 0.025660 0.167991 0.264143
H36   H     H_    0.571800 0.990737 0.163788 0.206417
H37   H     H_    0.492935 0.921762 0.226709 0.234705
O18   O     O_3   0.647485 0.944608 0.562488 -0.553142
C57   C     C_3   0.716792 0.932318 0.499745 0.126152
H38   H     H_    0.693697 0.949648 0.430676 0.103366
H39   H     H_    0.742367 0.858759 0.500762 0.186419
C58   C     C_3   0.793786 0.997970 0.524228 -0.809573
H40   H     H_    0.818893 0.982353 0.592740 0.262344
H41   H     H_    0.849397 0.988274 0.476051 0.212990
H42   H     H_    0.770661 0.072238 0.521887 0.247490
O19   O     O_3   0.538317 0.058448 0.656506 -0.549251
C59   C     C_3   0.462417 0.064256 0.711992 0.149500
H43   H     H_    0.402220 0.033911 0.677901 0.101508
H44   H     H_    0.448386 0.138528 0.731692 0.208317
C60   C     C_3   0.480193 0.008446 0.796662 -0.818187
H45   H     H_    0.540327 0.036615 0.832130 0.265215
H46   H     H_    0.421552 0.013887 0.841720 0.217074
H47   H     H_    0.491553 0.933238 0.779469 0.228808
O20   O     O_3   0.349799 0.938836 0.431074 -0.547166
C61   C     C_3   0.282899 0.937116 0.497166 0.130001
H48   H     H_    0.306334 0.973221 0.559524 0.108852
H49   H     H_    0.263171 0.863560 0.512828 0.168324
C62   C     C_3   0.200382 0.988680 0.462544 -0.786692
H50   H     H_    0.174621 0.953593 0.400770 0.258193
H51   H     H_    0.147130 0.988097 0.514028 0.211186
H52   H     H_    0.217599 0.062763 0.447237 0.245976
O21   O     O_3   0.437535 0.252038 0.352649 -0.564274
C63   C     C_3   0.342462 0.251184 0.351518 0.189184
H53   H     H_    0.318245 0.324478 0.360447 0.150351
H54   H     H_    0.310966 0.208115 0.405000 0.105246
C64   C     C_3   0.308675 0.215524 0.260915 -0.821734
H55   H     H_    0.326333 0.140271 0.251686 0.294186
H56   H     H_    0.234592 0.222780 0.257092 0.202360
H57   H     H_    0.338947 0.256779 0.206178 0.255374
O22   O     O_3   0.633350 0.749136 0.588197 -0.580321
C65   C     C_3   0.626563 0.769680 0.680882 0.140864
H58   H     H_    0.571550 0.727770 0.710266 0.148631
H59   H     H_    0.613103 0.845234 0.695756 0.181824
C66   C     C_3   0.714434 0.744946 0.727588 -0.871373
H60   H     H_    0.770066 0.786604 0.698957 0.277955
H61   H     H_    0.709584 0.761077 0.800261 0.208178
H62   H     H_    0.729408 0.669056 0.719056 0.231792
O23   O     O_3   0.562676 0.251387 0.647399 -0.561971
C67   C     C_3   0.656384 0.263627 0.637872 0.207585
H63   H     H_    0.672968 0.337023 0.657982 0.159846
H64   H     H_    0.681525 0.253673 0.568137 0.105976
C68   C     C_3   0.707266 0.197945 0.700371 -0.836963
H65   H     H_    0.699275 0.123861 0.677841 0.298740
H66   H     H_    0.779787 0.215623 0.699967 0.210137
H67   H     H_    0.681876 0.205648 0.769728 0.269424
O24   O     O_3   0.365676 0.743088 0.413932 -0.571341
C69   C     C_3   0.375827 0.752867 0.320491 0.170816
H68   H     H_    0.445949 0.737748 0.299333 0.122706
H69   H     H_    0.357356 0.825072 0.298971 0.181861
C70   C     C_3   0.313792 0.683813 0.272275 -0.865671
H70   H     H_    0.242795 0.701428 0.286830 0.247573
H71   H     H_    0.324357 0.687630 0.198903 0.210851
H72   H     H_    0.327788 0.610937 0.294637 0.251332

loop_
_geom_bond_atom_site_label_1
_geom_bond_atom_site_label_2
_ccdc_geom_bond_type
O6    Zn2   S    
C62   H52   S    
C44   O10   D    
C50   H20   S    
C43   O9    D    
C24   N2    A    
C23   O23   S    
C64   H57   S    
C36   C42   A    
C52   H25   S    
C18   C26   A    
C49   C50   S    
C34   C44   S    
C52   H27   S    
O19   C59   S    
C70   H71   S    
C4    H4    S    
C55   H33   S    
C7    C11   A    
C12   C13   A    
C19   O19   S    
C20   C26   A    
O14   C49   S    
C22   N2    A    
C69   H68   S    
C35   C37   A    
C1    O4    A    
C65   H59   S    
C10   H6    S    
N2    Zn1   S    
C17   O17   S    
C11   C14   A    
C28   O7    A    
C15   C16   S    
C57   H38   S    
C62   H51   S    
C66   H62   S    
C45   O11   D    
C9    C13   A    
C53   H28   S    
C1    O1    A    
C54   H30   S    
O22   C65   S    
O1    Zn1   S    
C49   H18   S    
C3    C41   A    
C56   H36   S    
C20   C24   A    
C57   H39   S    
C61   H48   S    
C66   H60   S    
C68   H66   S    
C54   H32   S    
C33   C43   S    
C66   H61   S    
C44   H10   S    
C70   H70   S    
C38   C40   A    
C29   H1    S    
C30   H2    S    
C45   H11   S    
N1    Zn2   S    
C2    C14   S    
C51   H24   S    
C70   H72   S    
C58   H41   S    
O7    Zn1   S    
C31   C33   A    
C57   C58   S    
C62   H50   S    
C65   C66   S    
C47   H13   S    
C46   O12   D    
C2    O2    A    
O15   C51   S    
C48   H16   S    
O2    Zn2   S    
C25   C26   S    
C3    H3    S    
C53   C54   S    
C17   C21   A    
C48   H15   S    
C32   C34   A    
C5    O13   S    
C19   C23   A    
O13   C47   S    
C60   H46   S    
C5    C9    A    
C37   C38   A    
C11   H7    S    
C23   N1    A    
C68   H65   S    
C67   H64   S    
C4    C39   A    
C8    C12   A    
C7    O15   S    
C29   C39   A    
C42   C46   S    
C68   H67   S    
C30   C40   A    
C54   H31   S    
C55   C56   S    
C63   H53   S    
C63   C64   S    
C27   O5    A    
C35   C41   A    
C59   C60   S    
C61   H49   S    
C7    C16   A    
C3    C40   A    
C9    H5    S    
C8    C15   A    
C28   O6    A    
C50   H21   S    
C10   C14   A    
O4    Zn2   S    
C24   O24   S    
C1    C13   S    
C51   C52   S    
O17   C55   S    
C60   H45   S    
C21   N1    A    
C59   H44   S    
C53   H29   S    
C58   H42   S    
C64   H56   S    
C67   H63   S    
C6    O14   S    
C56   H35   S    
C27   C32   S    
C18   C22   A    
C8    O16   S    
C28   C31   S    
C47   H14   S    
C46   H12   S    
C18   O18   S    
C6    C10   A    
C48   H17   S    
C12   H8    S    
O21   C63   S    
C52   H26   S    
O5    Zn1   S    
C63   H54   S    
C67   C68   S    
O16   C53   S    
C27   O8    A    
C17   C25   A    
C69   H69   S    
C60   H47   S    
C29   C31   A    
O8    Zn2   S    
C30   C32   A    
O18   C57   S    
C4    C42   A    
C61   C62   S    
O3    Zn1   S    
C36   C38   A    
C51   H23   S    
C33   C35   A    
C55   H34   S    
C2    O3    A    
C56   H37   S    
C34   C36   A    
C65   H58   S    
C69   C70   S    
O20   C61   S    
C19   C25   A    
C5    C15   A    
O24   C69   S    
C6    C16   A    
C43   H9    S    
C47   C48   S    
C22   O22   S    
C37   C39   A    
C58   H40   S    
C50   H22   S    
O23   C67   S    
C21   O21   S    
C49   H19   S    
C20   O20   S    
C41   C45   S    
C64   H55   S    
C59   H43   S    
