data_mof_unit_42932.cif
_audit_creation_date              2012-12-10T17:05:45-0500
_audit_creation_method            fapswitch 2.2
_symmetry_space_group_name_H-M    P1
_symmetry_Int_Tables_number       1
_space_group_crystal_system       triclinic
_cell_length_a                    15.879655
_cell_length_b                    10.909426
_cell_length_c                    9.810108
_cell_angle_alpha                 110.573342
_cell_angle_beta                  98.165314
_cell_angle_gamma                 90.583822
_cell_volume                      1571.64977221

loop_
_atom_site_label
_atom_site_type_symbol
_atom_type_description
_atom_site_fract_x
_atom_site_fract_y
_atom_site_fract_z
_atom_type_partial_charge
C1    C     C_R   0.493019 0.252716 0.441341 0.777630
C2    C     C_3   0.956623 0.415066 0.582336 -0.398570
C3    C     C_3   0.916805 0.499935 0.494864 0.222687
C4    C     C_3   0.958697 0.641271 0.572926 -0.358407
C5    C     C_3   0.056144 0.641429 0.571995 -0.352514
C6    C     C_1   0.824546 0.499868 0.495096 -0.085599
C7    C     C_1   0.175263 0.499860 0.502828 -0.092031
C8    C     C_1   0.250851 0.499683 0.503463 -0.145884
C9    C     C_2   0.484151 0.110632 0.411754 -0.158960
C10   C     C_2   0.463393 0.073229 0.521052 -0.295651
C11   C     C_2   0.500149 0.886872 0.588398 -0.357392
C12   C     C_R   0.340282 0.499263 0.501141 0.872386
C13   C     C_2   0.445995 0.936491 0.505516 0.047802
C14   C     C_2   0.507236 0.511117 0.081033 -0.033648
C15   C     C_2   0.492246 0.489742 0.919224 -0.056945
C16   C     C_R   0.502360 0.746315 0.558555 0.904754
C17   C     C_R   0.659697 0.499953 0.498678 0.821481
C18   C     C_3   0.054413 0.414693 0.584673 -0.375661
C19   C     C_3   0.036491 0.443315 0.338284 -0.425305
C20   C     C_3   0.938055 0.439921 0.334495 -0.126731
C21   C     C_1   0.749095 0.499810 0.496033 -0.136828
C22   C     C_3   0.082879 0.499745 0.499697 0.286777
Cu1   Cu    Cu3+1 0.514650 0.521810 0.644910 0.966799
Cu2   Cu    Cu3+1 0.485350 0.478190 0.355090 1.006833
H1    H     H_    0.927973 0.312576 0.531408 0.173957
H2    H     H_    0.087353 0.453311 0.700869 0.176103
H3    H     H_    0.942775 0.454055 0.697467 0.186190
H4    H     H_    0.930172 0.708925 0.519705 0.206084
H5    H     H_    0.457225 0.145884 0.627803 0.174025
H6    H     H_    0.549915 0.950587 0.671821 0.153597
H7    H     H_    0.442605 0.417654 0.847238 0.155002
H8    H     H_    0.556426 0.583921 0.153214 0.170535
H9    H     H_    0.583893 0.621614 0.933300 0.195846
H10   H     H_    0.072586 0.312129 0.533933 0.173459
H11   H     H_    0.417036 0.376857 0.066331 0.201630
H12   H     H_    0.057055 0.503195 0.275958 0.187411
H13   H     H_    0.055697 0.342008 0.283359 0.161052
H14   H     H_    0.913866 0.334916 0.289267 0.135028
H15   H     H_    0.090262 0.685729 0.687082 0.172394
H16   H     H_    0.074196 0.703542 0.510420 0.187681
H17   H     H_    0.946505 0.680291 0.689032 0.168912
N1    N     N_2   0.463320 0.445430 0.137380 -0.274903
N2    N     N_2   0.536720 0.554500 0.862620 -0.280549
O1    O     O_R   0.507820 0.332330 0.577400 -0.584692
O2    O     O_R   0.483070 0.295500 0.332660 -0.530759
O3    O     O_R   0.391820 0.518430 0.622420 -0.577143
O4    O     O_R   0.367070 0.481600 0.377680 -0.556849
O5    O     O_R   0.516930 0.704500 0.667340 -0.568098
O6    O     O_R   0.492180 0.667670 0.422600 -0.542500
O7    O     O_R   0.632930 0.518400 0.622320 -0.571556
O8    O     O_R   0.608180 0.481570 0.377580 -0.566762
C23   C     C_2   0.366848 0.863646 0.407978 0.910618
O9    O     O_2   0.332242 0.900074 0.310536 -0.591493
O10   O     O_R   0.328929 0.758820 0.432730 -0.780216
H18   H     H_    0.274755 0.719615 0.360875 0.327396
C24   C     C_2   0.498834 0.014708 0.266037 0.909910
O11   O     O_2   0.492595 0.047590 0.158197 -0.575654
O12   O     O_R   0.521952 0.888014 0.252429 -0.761414
H19   H     H_    0.530139 0.833123 0.148323 0.323089
C25   C     C_2   0.894321 0.502892 0.230404 0.840802
O13   O     O_2   0.914583 0.615916 0.245527 -0.607869
O14   O     O_R   0.830748 0.429976 0.115400 -0.761678
H20   H     H_    0.805988 0.481723 0.052930 0.334389

loop_
_geom_bond_atom_site_label_1
_geom_bond_atom_site_label_2
_ccdc_geom_bond_type
C17   O7    A    
Cu1   Cu2   S    
C15   H7    S    
O14   H20   S    
C16   O6    A    
C20   C25   S    
C7    C22   S    
C20   H14   S    
C9    C10   D    
C1    O1    A    
C19   C20   S    
C18   H2    S    
C14   N1    D    
C8    C12   S    
C3    C6    S    
Cu1   N2    S    
C17   O8    A    
Cu2   O8    S    
C2    C3    S    
C15   N2    D    
C7    C8    T    
C6    C21   T    
Cu1   O3    S    
C18   C22   S    
Cu2   N1    S    
C23   O9    D    
C11   C13   D    
C10   H5    S    
C1    O2    A    
C2    H3    S    
C18   H10   S    
C12   O4    A    
Cu2   O2    S    
C12   O3    A    
C4    H4    S    
C24   O12   S    
C2    H1    S    
C19   H12   S    
C5    H15   S    
C16   O5    A    
C2    C18   S    
C4    H17   S    
Cu1   O1    S    
C3    C4    S    
C13   C23   S    
C3    C20   S    
C19   C22   S    
C1    C9    S    
C24   O11   D    
C25   O14   S    
C11   C16   S    
C5    H16   S    
C14   H8    S    
Cu2   O6    S    
C9    C24   S    
H11   N1    S    
O10   H18   S    
C25   O13   D    
Cu1   O7    S    
Cu1   O5    S    
C19   H13   S    
O12   H19   S    
C14   C15   S    
Cu2   O4    S    
C17   C21   S    
C5    C22   S    
C11   H6    S    
C23   O10   S    
C4    C5    S    
C10   C13   S    
H9    N2    S    
