data_mof_unit_10127.cif
_audit_creation_date              2012-12-10T16:54:02-0500
_audit_creation_method            fapswitch 2.2
_symmetry_space_group_name_H-M    P1
_symmetry_Int_Tables_number       1
_space_group_crystal_system       triclinic
_cell_length_a                    9.688508
_cell_length_b                    10.930616
_cell_length_c                    13.510663
_cell_angle_alpha                 90.246609
_cell_angle_beta                  73.045252
_cell_angle_gamma                 89.904174
_cell_volume                      1368.5894208

loop_
_atom_site_label
_atom_site_type_symbol
_atom_type_description
_atom_site_fract_x
_atom_site_fract_y
_atom_site_fract_z
_atom_type_partial_charge
C1    C     C_R   0.500709 0.734630 0.497940 0.846987
C2    C     C_R   0.445728 0.457209 0.976348 0.124920
C3    C     C_R   0.491213 0.453086 0.866549 0.091536
C4    C     C_R   0.551261 0.477294 0.029464 0.012182
C5    C     C_R   0.697060 0.497771 0.972180 -0.011092
C6    C     C_R   0.741594 0.473016 0.866798 -0.181377
C7    C     C_R   0.641093 0.442041 0.816580 -0.217672
C8    C     C_R   0.517032 0.478718 0.137380 -0.324346
C9    C     C_R   0.759130 0.546963 0.129085 0.357414
C10   C     C_R   0.385581 0.460354 0.811451 -0.143338
C11   C     C_2   0.616689 0.066796 0.490979 -0.154678
C12   C     C_R   0.424756 0.487251 0.699101 0.806019
C13   C     C_2   0.496140 0.133289 0.504876 -0.311843
C14   C     C_2   0.615365 0.932821 0.495398 -0.162984
C15   C     C_2   0.500978 0.866514 0.491216 -0.321633
C16   C     C_2   0.051609 0.564718 0.564446 -0.067786
C17   C     C_2   0.896885 0.568004 0.562010 -0.090143
C18   C     C_R   0.499758 0.265313 0.500652 0.843232
C19   C     C_R   0.576767 0.503266 0.300539 0.845866
C20   C     C_R   0.797699 0.537710 0.021539 0.485074
C21   C     C_R   0.620116 0.509135 0.187440 -0.240173
C22   C     C_R   0.239479 0.445976 0.865971 -0.146951
C23   C     C_R   0.196876 0.432961 0.972813 -0.064867
C24   C     C_R   0.296839 0.443779 0.028019 -0.202398
Cu1   Cu    Cu3+1 0.361370 0.499980 0.499980 0.941585
Cu2   Cu    Cu3+1 0.638630 0.500020 0.500020 0.939752
H1    H     H_    0.390311 0.092349 0.521615 0.147844
H2    H     H_    0.712877 0.888090 0.501274 0.165268
H3    H     H_    0.404739 0.907526 0.480426 0.149560
H4    H     H_    0.079232 0.620180 0.622640 0.164058
H5    H     H_    0.129028 0.451580 0.443671 0.195100
H6    H     H_    0.823567 0.629488 0.615733 0.164800
H7    H     H_    0.913460 0.439883 0.452449 0.198643
H8    H     H_    0.854975 0.473837 0.823297 0.183862
H9    H     H_    0.411383 0.452746 0.184456 0.187005
H10   H     H_    0.157492 0.445118 0.825984 0.183026
H11   H     H_    0.253178 0.441638 0.110938 0.138810
H12   H     H_    0.084466 0.418590 0.014112 0.199393
H13   H     H_    0.685291 0.406806 0.739282 0.188424
H14   H     H_    0.720524 0.111463 0.477896 0.166163
N1    N     N_2   0.152660 0.501340 0.501130 -0.283508
N2    N     N_2   0.846520 0.501370 0.501160 -0.288154
O1    O     O_R   0.382960 0.678040 0.499980 -0.572964
O2    O     O_R   0.617100 0.678080 0.500020 -0.581678
O3    O     O_R   0.325800 0.499940 0.650950 -0.575267
O4    O     O_R   0.559930 0.499980 0.650990 -0.588687
O5    O     O_R   0.382900 0.321920 0.499980 -0.581736
O6    O     O_R   0.617040 0.321960 0.500020 -0.583086
O7    O     O_R   0.440070 0.500020 0.349010 -0.588739
O8    O     O_R   0.674200 0.500060 0.349050 -0.549150
O9    O     O_3   0.861970 0.584477 0.175543 -0.582769
C25   C     C_3   0.831917 0.705442 0.214178 0.105884
H15   H     H_    0.869164 0.713347 0.284336 0.174157
H16   H     H_    0.714568 0.728911 0.239232 0.100999
C26   C     C_3   0.914666 0.798082 0.134190 -0.319429
H17   H     H_    0.031470 0.774633 0.110167 0.246422
H18   H     H_    0.875200 0.794375 0.064848 0.241623
C27   C     C_3   0.894467 0.927906 0.178271 -0.938932
H19   H     H_    0.778436 0.953753 0.201536 0.263162
H20   H     H_    0.955060 0.993075 0.118569 0.264574
H21   H     H_    0.935787 0.934780 0.246640 0.255776
F1    F     F_    0.931749 0.572494 0.964867 -0.703744

loop_
_geom_bond_atom_site_label_1
_geom_bond_atom_site_label_2
_ccdc_geom_bond_type
C2    C4    A    
C26   H17   S    
C6    C7    A    
C1    C15   S    
C23   H12   S    
C22   H10   S    
Cu1   O5    S    
C9    C20   A    
C3    C7    A    
C9    O9    S    
C25   C26   S    
Cu2   O6    S    
C4    C8    A    
C1    O2    A    
C18   O5    A    
Cu1   O1    S    
C27   H21   S    
C26   H18   S    
C24   H11   S    
C27   H19   S    
Cu2   O2    S    
C3    C10   A    
C10   C22   A    
C2    C24   A    
C11   C13   D    
C19   O8    A    
C9    C21   A    
C5    C6    A    
C10   C12   S    
C13   C18   S    
H7    N2    S    
C19   C21   S    
C25   H16   S    
C15   H3    S    
C2    C3    A    
Cu2   O8    S    
C20   F1    S    
C11   H14   S    
C11   C14   S    
Cu1   O7    S    
C16   C17   S    
Cu2   O4    S    
C23   C24   A    
C16   H4    S    
O9    C25   S    
Cu1   O3    S    
C25   H15   S    
Cu2   N2    S    
C12   O4    A    
C26   C27   S    
Cu1   N1    S    
C5    C20   A    
C17   H6    S    
C19   O7    A    
C14   C15   D    
C12   O3    A    
C7    H13   S    
H5    N1    S    
C14   H2    S    
Cu1   Cu2   S    
C17   N2    D    
C27   H20   S    
C16   N1    D    
C1    O1    A    
C22   C23   A    
C13   H1    S    
C6    H8    S    
C18   O6    A    
C4    C5    A    
C8    H9    S    
C8    C21   A    
