data_mof_unit_30437.cif
_audit_creation_date              2012-12-11T14:34:11-0500
_audit_creation_method            fapswitch 2.2
_symmetry_space_group_name_H-M    P1
_symmetry_Int_Tables_number       1
_space_group_crystal_system       triclinic
_cell_length_a                    13.968074
_cell_length_b                    14.045675
_cell_length_c                    27.248536
_cell_angle_alpha                 89.826516
_cell_angle_beta                  90.105026
_cell_angle_gamma                 119.98488
_cell_volume                      4630.38471466

loop_
_atom_site_label
_atom_site_type_symbol
_atom_type_description
_atom_site_fract_x
_atom_site_fract_y
_atom_site_fract_z
_atom_type_partial_charge
C1    C     C_R   0.233504 0.787567 0.568350 0.547807
C2    C     C_1   0.724538 0.865560 0.857845 0.009172
C3    C     C_3   0.023867 0.648118 0.816829 -0.205742
C4    C     C_3   0.906219 0.618509 0.801268 -0.338573
C5    C     C_3   0.823589 0.497384 0.810609 -0.403153
C6    C     C_3   0.338216 0.376961 0.817934 -0.209777
C7    C     C_3   0.365929 0.287611 0.803674 -0.336659
C8    C     C_3   0.487066 0.324960 0.813751 -0.403643
C9    C     C_3   0.598309 0.656052 0.118204 -0.248528
C10   C     C_3   0.471422 0.595885 0.120906 -0.321730
C11   C     C_3   0.419643 0.501228 0.084321 -0.426180
C12   C     C_3   0.345606 0.942911 0.117766 -0.248350
C13   C     C_1   0.111747 0.884217 0.851995 0.005352
C14   C     C_3   0.405898 0.876621 0.120280 -0.318814
C15   C     C_3   0.499983 0.918974 0.083060 -0.428898
C16   C     C_3   0.057648 0.401415 0.117518 -0.248420
C17   C     C_3   0.124097 0.527608 0.120333 -0.321337
C18   C     C_3   0.081254 0.579582 0.083498 -0.424877
C19   C     C_1   0.104609 0.229330 0.852303 0.003838
C20   C     C_1   0.643851 0.818126 0.656081 -0.009152
C21   C     C_1   0.175159 0.822100 0.654901 -0.003861
C22   C     C_1   0.170424 0.355612 0.655551 -0.005775
C23   C     C_1   0.610219 0.799677 0.614526 0.052429
C24   C     C_1   0.197441 0.807846 0.614033 0.056280
C25   C     C_1   0.189375 0.391070 0.614460 0.054330
C26   C     C_R   0.108166 0.224247 0.087206 0.560880
C27   C     C_R   0.211929 0.446000 0.568396 0.548968
C28   C     C_R   0.775896 0.883765 0.087274 0.548487
C29   C     C_R   0.116674 0.891986 0.087047 0.560075
C30   C     C_R   0.068496 0.159885 0.943572 0.528242
C31   C     C_R   0.781142 0.887366 0.950468 0.539828
C32   C     C_R   0.090516 0.930459 0.943469 0.526551
C33   C     C_R   0.648197 0.907225 0.364009 0.215064
C34   C     C_R   0.092321 0.740175 0.363849 0.215358
C35   C     C_R   0.259466 0.352342 0.364175 0.215064
C36   C     C_R   0.661618 0.922165 0.312025 -0.032708
C37   C     C_R   0.077627 0.738543 0.311848 -0.032537
C38   C     C_R   0.554509 0.766134 0.568338 0.547158
C39   C     C_R   0.260975 0.338637 0.312248 -0.032673
C40   C     C_R   0.693062 0.941754 0.208689 -0.024513
C41   C     C_R   0.058299 0.750531 0.208489 -0.024175
C42   C     C_R   0.248806 0.306057 0.209013 -0.024131
C43   C     C_R   0.232606 0.789213 0.431595 0.565042
C44   C     C_R   0.210607 0.443494 0.431602 0.566744
C45   C     C_R   0.556612 0.767229 0.431654 0.564076
C46   C     C_R   0.703424 0.031181 0.236084 0.227989
C47   C     C_R   0.968360 0.671194 0.235962 0.228049
C48   C     C_R   0.328270 0.295787 0.236731 0.228932
C49   C     C_3   0.691418 0.740707 0.786624 0.210206
C50   C     C_R   0.683419 0.020716 0.287014 0.281068
C51   C     C_R   0.978748 0.661581 0.286912 0.281680
C52   C     C_R   0.338135 0.316605 0.287571 0.281953
C53   C     C_R   0.723531 0.953367 0.159186 -0.121124
C54   C     C_R   0.046701 0.769538 0.158976 -0.121951
C55   C     C_R   0.229976 0.275444 0.159541 -0.122014
C56   C     C_R   0.710486 0.863132 0.132084 -0.020765
C57   C     C_R   0.137426 0.847177 0.131835 -0.021897
C58   C     C_R   0.152831 0.289012 0.132069 -0.022139
C59   C     C_R   0.631066 0.726571 0.356835 0.194634
C60   C     C_3   0.241815 0.962101 0.781468 0.208090
C61   C     C_R   0.273982 0.903801 0.356468 0.194377
C62   C     C_R   0.095611 0.370608 0.356424 0.194203
C63   C     C_R   0.631332 0.733715 0.305954 0.010138
C64   C     C_R   0.267102 0.896875 0.305600 0.010043
C65   C     C_R   0.102225 0.369450 0.305545 0.010420
C66   C     C_R   0.648650 0.831688 0.283272 -0.068299
C67   C     C_R   0.168706 0.816185 0.283011 -0.068401
C68   C     C_R   0.183036 0.351456 0.283197 -0.068327
C69   C     C_R   0.611152 0.642607 0.277374 -0.048660
C70   C     C_R   0.358879 0.967836 0.276947 -0.048269
C71   C     C_3   0.023893 0.283097 0.781809 0.209177
C72   C     C_R   0.030843 0.389362 0.276606 -0.047689
C73   C     C_R   0.610016 0.647695 0.226823 -0.108239
C74   C     C_R   0.353966 0.961771 0.226404 -0.107959
C75   C     C_R   0.036899 0.389790 0.226074 -0.107357
C76   C     C_R   0.636753 0.746529 0.203143 0.040989
C77   C     C_R   0.254606 0.889813 0.202800 0.041026
C78   C     C_R   0.109394 0.362802 0.202759 0.041257
C79   C     C_3   0.583425 0.855299 0.734516 -0.130309
C80   C     C_3   0.133716 0.733904 0.736724 -0.128011
C81   C     C_3   0.255151 0.401335 0.737414 -0.128642
C82   C     C_3   0.658534 0.723124 0.731074 0.177011
C83   C     C_R   0.658341 0.839872 0.231708 0.005432
C84   C     C_R   0.160670 0.817798 0.231440 0.005718
C85   C     C_R   0.181411 0.341201 0.231662 0.005472
C86   C     C_R   0.649708 0.756415 0.151773 -0.000736
C87   C     C_R   0.244710 0.893322 0.151440 -0.002420
C88   C     C_R   0.106606 0.349867 0.151418 -0.001897
C89   C     C_R   0.619937 0.804401 0.385021 0.005267
C90   C     C_R   0.195513 0.814988 0.384813 0.005067
C91   C     C_R   0.184677 0.381016 0.384883 0.005071
C92   C     C_3   0.785048 0.927727 0.719883 -0.305128
C93   C     C_3   0.263097 0.940438 0.727500 0.176058
C94   C     C_3   0.058030 0.855480 0.712551 -0.303898
C95   C     C_3   0.130672 0.205386 0.713461 -0.304384
C96   C     C_3   0.805308 0.940303 0.776173 -0.326412
C97   C     C_3   0.040970 0.871289 0.767405 -0.328275
C98   C     C_3   0.112462 0.172383 0.768173 -0.330670
C99   C     C_1   0.745057 0.875725 0.900902 0.024807
C100  C     C_1   0.101225 0.903860 0.893936 0.018945
C101  C     C_1   0.091127 0.197896 0.894092 0.009525
C102  C     C_3   0.667782 0.830439 0.709044 -0.011542
C103  C     C_3   0.158156 0.837913 0.706713 -0.011393
C104  C     C_3   0.048222 0.327428 0.727733 0.176538
C105  C     C_3   0.150798 0.323243 0.707331 -0.011786
C106  C     C_3   0.596822 0.859351 0.791457 0.225936
C107  C     C_3   0.124249 0.750995 0.792890 0.228472
C108  C     C_3   0.236058 0.375186 0.793454 0.226863
C109  C     C_3   0.702943 0.851880 0.804888 0.072022
C110  C     C_3   0.128814 0.865130 0.800469 0.072648
C111  C     C_3   0.120668 0.266383 0.800983 0.073830
C112  C     C_3   0.591273 0.958756 0.814206 -0.203114
C113  C     C_3   0.684130 0.076144 0.801840 -0.336303
C114  C     C_3   0.645837 0.159838 0.807717 -0.403984
Cl1   Cl    Cl    0.476122 0.741760 0.816388 -0.377333
Cl2   Cl    Cl    0.679654 0.131792 0.315755 -0.299112
Cl3   Cl    Cl    0.867308 0.546366 0.315783 -0.298405
Cl4   Cl    Cl    0.454233 0.321678 0.316575 -0.296642
Cl5   Cl    Cl    0.653105 0.624123 0.384657 -0.378395
Cl6   Cl    Cl    0.376905 0.028127 0.384046 -0.377652
Cl7   Cl    Cl    0.971198 0.350627 0.383916 -0.377095
Cl8   Cl    Cl    0.524839 0.605665 0.720006 -0.598274
Cl9   Cl    Cl    0.383868 0.927831 0.720379 -0.614006
Cl10  Cl    Cl    0.064849 0.462059 0.721107 -0.595511
Cl11  Cl    Cl    0.614823 0.624408 0.826233 -0.577100
Cl12  Cl    Cl    0.240657 0.753633 0.822816 -0.387456
Cl13  Cl    Cl    0.356342 0.007627 0.823099 -0.588465
Cl14  Cl    Cl    0.979278 0.352769 0.823151 -0.567567
Cl15  Cl    Cl    0.234103 0.489451 0.822530 -0.377601
Cl16  Cl    Cl    0.684041 0.016454 0.405774 -0.379930
Cl17  Cl    Cl    0.982254 0.666535 0.405644 -0.378560
Cl18  Cl    Cl    0.333013 0.316225 0.406255 -0.379922
Cl19  Cl    Cl    0.738279 0.157150 0.206380 -0.538716
Cl20  Cl    Cl    0.841852 0.579895 0.206346 -0.538907
Cl21  Cl    Cl    0.419603 0.260192 0.207536 -0.534781
Cr1   Cr    Cr6+3 0.164410 0.584450 0.499910 1.157312
Cr2   Cr    Cr6+3 0.415550 0.579960 0.499910 1.157660
Cr3   Cr    Cr6+3 0.420040 0.835590 0.499910 1.157138
Cr4   Cr    Cr6+3 0.155170 0.075460 0.019960 1.039874
Cr5   Cr    Cr6+3 0.924540 0.079710 0.019960 1.031692
Cr6   Cr    Cr6+3 0.920290 0.844830 0.019960 1.036337
H1    H     H_    0.497823 0.792786 0.723693 0.240262
H2    H     H_    0.594060 0.574819 0.206879 0.175110
H3    H     H_    0.427342 0.018770 0.206405 0.175268
H4    H     H_    0.979604 0.405562 0.205859 0.175694
H5    H     H_    0.592903 0.565108 0.293751 0.234483
H6    H     H_    0.436736 0.027083 0.293267 0.234786
H7    H     H_    0.971338 0.407936 0.292655 0.234938
H8    H     H_    0.594898 0.934285 0.719966 0.142837
H9    H     H_    0.056342 0.663086 0.722554 0.145919
H10   H     H_    0.325724 0.393357 0.723803 0.144841
H11   H     H_    0.848353 0.913211 0.702162 0.127637
H12   H     H_    0.199035 0.712368 0.729656 0.245429
H13   H     H_    0.071901 0.929115 0.691272 0.128941
H14   H     H_    0.056816 0.146723 0.691877 0.128956
H15   H     H_    0.794674 0.005386 0.704343 0.137263
H16   H     H_    0.981945 0.783763 0.697715 0.141031
H17   H     H_    0.202368 0.199802 0.699251 0.139935
H18   H     H_    0.831344 0.024043 0.787939 0.117540
H19   H     H_    0.955960 0.813757 0.778587 0.114158
H20   H     H_    0.168866 0.144487 0.780063 0.114948
H21   H     H_    0.877499 0.931057 0.785095 0.100026
H22   H     H_    0.048362 0.952618 0.771708 0.103971
H23   H     H_    0.278768 0.488286 0.729941 0.248234
H24   H     H_    0.029278 0.099567 0.772200 0.104937
H25   H     H_    0.718004 0.705832 0.711402 0.111020
H26   H     H_    0.279337 0.013341 0.704968 0.113360
H27   H     H_    0.975079 0.272606 0.704833 0.112813
H28   H     H_    0.581491 0.144594 0.779942 0.214516
H29   H     H_    0.612355 0.154959 0.845168 0.194891
H30   H     H_    0.716731 0.243901 0.801875 0.169760
H31   H     H_    0.753833 0.099930 0.827800 0.180428
H32   H     H_    0.713638 0.082455 0.763603 0.167787
H33   H     H_    0.511766 0.950421 0.802272 0.286157
H34   H     H_    0.774068 0.748059 0.788891 0.066934
H35   H     H_    0.585912 0.950576 0.854871 0.182581
H36   H     H_    0.841695 0.445184 0.786213 0.214298
H37   H     H_    0.827031 0.475580 0.849544 0.190326
H38   H     H_    0.738874 0.480989 0.802463 0.167549
H39   H     H_    0.879470 0.666918 0.823693 0.176437
H40   H     H_    0.902055 0.634923 0.761744 0.167632
H41   H     H_    0.034737 0.576570 0.808836 0.274695
H42   H     H_    0.028846 0.657284 0.857451 0.183602
H43   H     H_    0.540829 0.394962 0.789366 0.206141
H44   H     H_    0.508055 0.349938 0.852707 0.188936
H45   H     H_    0.234469 0.036607 0.779933 0.064432
H46   H     H_    0.502710 0.256516 0.806088 0.175687
H47   H     H_    0.315482 0.213250 0.826402 0.183352
H48   H     H_    0.350231 0.266497 0.764214 0.167835
H49   H     H_    0.410405 0.457906 0.808792 0.276272
H50   H     H_    0.329750 0.375227 0.858572 0.186674
H51   H     H_    0.449347 0.531184 0.046543 0.172655
H52   H     H_    0.440579 0.437070 0.094330 0.182920
H53   H     H_    0.328557 0.464398 0.084679 0.147061
H54   H     H_    0.442050 0.562546 0.158305 0.172151
H55   H     H_    0.442261 0.654625 0.112248 0.158773
H56   H     H_    0.947982 0.201501 0.780032 0.065839
H57   H     H_    0.619756 0.680172 0.079264 0.169059
H58   H     H_    0.630265 0.599871 0.127206 0.183626
H59   H     H_    0.468744 0.917935 0.045439 0.171908
H60   H     H_    0.564895 0.004066 0.092450 0.182215
H61   H     H_    0.536863 0.865063 0.083385 0.143229
H62   H     H_    0.440448 0.881199 0.157497 0.172344
H63   H     H_    0.346437 0.788816 0.112155 0.159364
H64   H     H_    0.321290 0.940795 0.078876 0.173467
H65   H     H_    0.402247 0.030688 0.126782 0.182482
H66   H     H_    0.134947 0.670209 0.084241 0.146631
H67   H     H_    0.764216 0.033743 0.142106 0.186601
H68   H     H_    0.082816 0.550923 0.045723 0.176237
H69   H     H_    0.995463 0.558206 0.092958 0.182775
H70   H     H_    0.212404 0.556621 0.112045 0.159411
H71   H     H_    0.119531 0.556545 0.157665 0.172209
H72   H     H_    0.060865 0.380292 0.078630 0.173688
H73   H     H_    0.969139 0.369710 0.126181 0.182832
H74   H     H_    0.965916 0.729656 0.141933 0.186439
H75   H     H_    0.269794 0.234544 0.142745 0.185851
O1    O     O_R   0.137150 0.468200 0.553200 -0.481694
O2    O     O_R   0.140110 0.470540 0.446010 -0.443268
O3    O     O_R   0.529460 0.669570 0.446010 -0.443265
O4    O     O_R   0.330430 0.859890 0.446010 -0.442339
O5    O     O_R   0.176710 0.690910 0.450560 -0.459075
O6    O     O_R   0.309090 0.485800 0.450560 -0.458774
O7    O     O_R   0.514200 0.823290 0.450560 -0.458349
O8    O     O_3   0.333333 0.666667 0.499990 -0.339163
O9    O     O_R   0.176750 0.985260 0.074180 -0.504519
O10   O     O_R   0.014740 0.191490 0.074180 -0.502459
O11   O     O_R   0.808510 0.823250 0.074180 -0.504918
O12   O     O_R   0.531800 0.668950 0.553200 -0.479200
O13   O     O_R   0.146100 0.172630 0.068980 -0.488866
O14   O     O_R   0.827370 0.973470 0.068980 -0.493285
O15   O     O_R   0.026530 0.853900 0.068980 -0.487136
O16   O     O_3   1.000000 0.000000 0.020040 -0.268298
O17   O     O_R   0.148270 0.170520 0.969620 -0.505663
O18   O     O_R   0.829480 0.977750 0.969620 -0.530517
O19   O     O_R   0.022250 0.851730 0.969620 -0.489133
O20   O     O_R   0.331050 0.862850 0.553200 -0.479143
O21   O     O_R   0.179100 0.982980 0.967000 -0.481078
O22   O     O_R   0.017020 0.196120 0.967000 -0.472108
O23   O     O_R   0.803880 0.820900 0.967000 -0.504559
O24   O     O_R   0.173970 0.688730 0.549930 -0.489905
O25   O     O_R   0.311270 0.485240 0.549930 -0.487642
O26   O     O_R   0.514760 0.826030 0.549930 -0.488721

loop_
_geom_bond_atom_site_label_1
_geom_bond_atom_site_label_2
_ccdc_geom_bond_type
C33   Cl16  S    
Cr6   O11   S    
C114  H28   S    
C112  H33   S    
C71   C104  S    
C2    C109  S    
Cr5   O14   S    
C97   C110  S    
C28   O14   A    
Cr4   O21   S    
C34   C37   A    
C39   C68   A    
C48   Cl21  S    
Cr3   O20   S    
C43   O4    A    
C11   H53   S    
C29   O9    A    
C17   H71   S    
C93   C103  S    
C34   C90   A    
C28   C56   S    
C95   C98   S    
C7    C8    S    
C106  C112  S    
C75   H4    S    
Cr6   O16   S    
C80   H9    S    
Cr2   O8    S    
C32   O19   A    
C113  H32   S    
C18   H69   S    
C30   O22   A    
Cr2   O12   S    
C10   H55   S    
C73   H2    S    
C9    C86   S    
C36   C66   A    
C79   H1    S    
C20   C102  S    
C32   O21   A    
C1    O20   A    
Cr1   O8    S    
C95   H17   S    
C92   C96   S    
C33   C36   A    
C76   C83   A    
C11   H51   S    
C59   C89   A    
C5    H38   S    
C74   H3    S    
C95   C105  S    
C51   Cl3   S    
C66   C83   A    
C93   H26   S    
Cr1   O5    S    
C63   C69   A    
C16   C17   S    
C97   H22   S    
C22   C25   T    
C14   H63   S    
C6    H50   S    
Cr4   O17   S    
C59   Cl5   S    
C79   C102  S    
C69   C73   A    
Cr4   O16   S    
C64   C70   A    
C4    H40   S    
C45   C89   S    
C9    C10   S    
C95   H14   S    
Cr3   O26   S    
Cr6   O19   S    
C68   C85   A    
C79   H8    S    
Cr2   O25   S    
C60   C93   S    
C8    H43   S    
C39   C52   A    
C81   C108  S    
Cr3   O4    S    
C67   C84   A    
C1    O24   A    
C14   H62   S    
C61   Cl6   S    
Cr5   O18   S    
C69   H5    S    
C112  C113  S    
C40   C83   A    
C6    H49   S    
C54   H74   S    
C4    H39   S    
C72   C75   A    
C27   O25   A    
C28   O11   A    
C104  C105  S    
C15   H60   S    
C71   H56   S    
C113  H31   S    
C8    H46   S    
C82   C102  S    
C114  H30   S    
C38   O26   A    
C31   O18   A    
C81   C105  S    
C43   C90   S    
C80   C103  S    
C45   O7    A    
C64   C67   A    
C11   H52   S    
C7    H47   S    
C80   H12   S    
C18   H68   S    
C44   O2    A    
C29   O15   A    
C92   H15   S    
C26   O13   A    
C55   H75   S    
C47   C51   A    
Cr1   O1    S    
C5    H37   S    
C94   C97   S    
C3    C107  S    
C75   C78   A    
C81   H10   S    
C41   C84   A    
Cr2   O6    S    
C74   C77   A    
C32   C100  S    
C79   C106  S    
C71   C111  S    
C18   H66   S    
C12   H65   S    
C49   C82   S    
C61   C64   A    
C35   C39   A    
C97   H19   S    
C70   C74   A    
C13   C110  S    
C33   C89   A    
C42   C55   A    
C104  H27   S    
C56   C86   A    
C80   C107  S    
C20   C23   T    
Cr3   O8    S    
C94   H13   S    
C65   C68   A    
C62   C91   A    
Cr2   O3    S    
Cr5   O22   S    
C17   C18   S    
C41   C47   A    
Cr4   O13   S    
C42   C85   A    
C42   C48   A    
C16   H73   S    
C26   C58   S    
C5    H36   S    
C108  Cl15  S    
C44   C91   S    
C78   C85   A    
C112  H35   S    
C12   C14   S    
C34   Cl17  S    
Cr5   O16   S    
C94   H16   S    
C31   C99   S    
Cr1   O24   S    
C47   Cl20  S    
C9    H57   S    
C45   O3    A    
C81   H23   S    
C71   Cl14  S    
C21   C24   T    
C44   O6    A    
C40   C46   A    
C3    C4    S    
C65   C72   A    
C76   C86   A    
C49   H34   S    
C98   H20   S    
C36   C50   A    
C61   C90   A    
C38   O12   A    
C113  C114  S    
C82   H25   S    
C53   C56   A    
C78   C88   A    
C114  H29   S    
C31   O23   A    
C8    H44   S    
C60   H45   S    
C98   C111  S    
C62   C65   A    
C43   O5    A    
C59   C63   A    
C53   H67   S    
C60   Cl13  S    
C93   Cl9   S    
C107  Cl12  S    
C29   C57   S    
C4    C5    S    
C17   H70   S    
C58   C88   A    
C94   C103  S    
C108  C111  S    
C27   O1    A    
C6    C7    S    
C104  Cl10  S    
C19   C111  S    
C15   H61   S    
C25   C27   S    
C22   C105  S    
C49   Cl11  S    
C96   C109  S    
C46   C50   A    
Cr5   O10   S    
C77   C84   A    
C23   C38   S    
C106  Cl1   S    
Cr4   O9    S    
C12   H64   S    
C13   C100  T    
C2    C99   T    
C49   C109  S    
C12   C87   S    
C72   H7    S    
C10   H54   S    
C54   C57   A    
C46   Cl19  S    
C15   H59   S    
C19   C101  T    
Cr3   O7    S    
C26   O10   A    
C37   C51   A    
C37   C67   A    
C30   C101  S    
C107  C110  S    
C96   H21   S    
C50   Cl2   S    
C30   O17   A    
C16   H72   S    
C3    H41   S    
C41   C54   A    
C63   C66   A    
C98   H24   S    
C60   C110  S    
C10   C11   S    
C21   C103  S    
C57   C87   A    
C92   H11   S    
C48   C52   A    
C96   H18   S    
Cr1   O2    S    
C73   C76   A    
C77   C87   A    
C1    C24   S    
Cr6   O23   S    
C40   C53   A    
C55   C58   A    
C16   C88   S    
C6    C108  S    
C14   C15   S    
C7    H48   S    
C70   H6    S    
C3    H42   S    
C35   Cl18  S    
C82   Cl8   S    
C62   Cl7   S    
Cr6   O15   S    
C9    H58   S    
C52   Cl4   S    
C92   C102  S    
C106  C109  S    
C35   C91   A    
