data_mof_unit_56913.cif
_audit_creation_date              2013-03-05T15:46:12-0500
_audit_creation_method            fapswitch 2.2
_symmetry_space_group_name_H-M    P1
_symmetry_Int_Tables_number       1
_space_group_crystal_system       triclinic
_cell_length_a                    10.159025
_cell_length_b                    10.561481
_cell_length_c                    12.845553
_cell_angle_alpha                 89.864435
_cell_angle_beta                  91.458639
_cell_angle_gamma                 93.681781
_cell_volume                      1374.96459972

loop_
_atom_site_label
_atom_site_type_symbol
_atom_site_description
_atom_site_fract_x
_atom_site_fract_y
_atom_site_fract_z
_atom_type_partial_charge
O1    O     O_R   0.567930 0.307680 0.508550 -0.538212
O2    O     O_R   0.432070 0.692320 0.491450 -0.554894
O3    O     O_R   0.351090 0.340020 0.481290 -0.576807
O4    O     O_R   0.648910 0.659980 0.518710 -0.582268
C1    C     C_R   0.448034 0.266026 0.489996 0.988412
C2    C     C_R   0.553553 0.734072 0.499533 0.976082
O5    O     O_R   0.590490 0.486480 0.665020 -0.567466
O6    O     O_R   0.409510 0.513520 0.334980 -0.563467
O7    O     O_R   0.373660 0.518820 0.637760 -0.643621
O8    O     O_R   0.626340 0.481180 0.362240 -0.591864
C3    C     C_R   0.472920 0.496940 0.698343 0.920462
C4    C     C_R   0.525395 0.497609 0.301243 0.923133
Zn1   Zn    Zn3+2 0.644780 0.478400 0.518200 1.071561
Zn2   Zn    Zn3+2 0.355220 0.521600 0.481800 1.042998
C5    C     C_R   0.534220 0.480537 0.190901 -0.225610
C6    C     C_R   0.451135 0.485078 0.808160 -0.228704
C7    C     C_R   0.338119 0.559654 0.955243 0.383117
C8    C     C_R   0.598068 0.348715 0.050228 0.369061
C9    C     C_R   0.350558 0.551318 0.849218 -0.315911
C10   C     C_R   0.605592 0.382332 0.154628 -0.329872
C11   C     C_R   0.530146 0.410319 0.871866 0.298666
C12   C     C_R   0.449812 0.544806 0.124602 0.310159
C13   C     C_R   0.519831 0.418624 0.980505 -0.126250
C14   C     C_R   0.433586 0.506699 0.021017 -0.125479
H1    H     H_    0.661905 0.327104 0.208804 0.204207
H2    H     H_    0.282967 0.599849 0.798796 0.203181
C15   C     C_2   0.427363 0.131780 0.469357 -0.425136
C16   C     C_2   0.580290 0.868775 0.479778 -0.424988
C17   C     C_2   0.518103 0.071241 0.417206 0.395790
C18   C     C_2   0.500366 0.931729 0.414809 0.409781
H3    H     H_    0.663135 0.918274 0.520891 0.154414
H4    H     H_    0.339031 0.081386 0.498361 0.138705
N1    N     N_2   0.162330 0.550370 0.457540 -0.203160
N2    N     N_2   0.837670 0.449630 0.542460 -0.193765
C19   C     C_2   0.070708 0.475640 0.498061 0.384077
C20   C     C_2   0.926693 0.499449 0.481552 0.413937
H5    H     H_    0.865802 0.388775 0.599958 0.176227
H6    H     H_    0.133956 0.633303 0.423881 0.183980
N3    N     N_R   0.397900 0.660638 0.158554 0.220722
O9    O     O_R   0.288367 0.658087 0.209039 -0.339781
O10   O     O_R   0.449945 0.768517 0.125311 -0.372252
N4    N     N_R   0.627702 0.336606 0.826169 0.241479
O11   O     O_R   0.591814 0.246356 0.760612 -0.357469
O12   O     O_R   0.752486 0.369916 0.839982 -0.347087
N5    N     N_R   0.223772 0.614592 0.994344 0.242393
O13   O     O_R   0.142683 0.545677 0.051218 -0.346423
O14   O     O_R   0.185796 0.720420 0.955231 -0.333741
N6    N     N_R   0.659119 0.236260 0.019602 0.237059
O15   O     O_R   0.587808 0.144019 0.974982 -0.318552
O16   O     O_R   0.776905 0.215205 0.054949 -0.361270
O17   O     O_3   0.398181 0.865982 0.357568 -0.569607
C21   C     C_3   0.326973 0.945296 0.290722 -0.101815
H7    H     H_    0.393064 0.002647 0.238501 0.160291
H8    H     H_    0.263982 0.006356 0.335533 0.120638
H9    H     H_    0.258330 0.885748 0.240326 0.247430
O18   O     O_3   0.630086 0.138833 0.379363 -0.608733
C22   C     C_3   0.695836 0.070018 0.304725 -0.230598
H10   H     H_    0.627834 0.035873 0.240135 0.195389
H11   H     H_    0.745980 0.990200 0.341376 0.174411
H12   H     H_    0.773796 0.134204 0.270313 0.210369
O19   O     O_3   0.887496 0.579747 0.402785 -0.608125
C23   C     C_3   0.908652 0.523600 0.305351 -0.177436
H13   H     H_    0.870562 0.422299 0.302024 0.161100
H14   H     H_    0.014533 0.531636 0.285490 0.182281
H15   H     H_    0.854367 0.575266 0.244333 0.212723
O20   O     O_3   0.104958 0.364454 0.546306 -0.599716
C24   C     C_3   0.115184 0.380652 0.655576 -0.188827
H16   H     H_    0.034467 0.323283 0.693284 0.184077
H17   H     H_    0.114377 0.480925 0.682657 0.138733
H18   H     H_    0.207942 0.341267 0.684274 0.201864

loop_
_geom_bond_atom_site_label_1
_geom_bond_atom_site_label_2
_geom_bond_distance
_ccdc_geom_bond_type
O6    Zn2   1.981963 S    
O7    Zn2   2.007698 S    
C4    C5    1.435031 S    
C6    C11   1.407934 A    
C17   O18   1.400838 S    
C15   C17   1.347789 D    
N2    H5    1.025123 S    
C3    C6    1.437408 S    
C8    C10   1.387062 A    
C19   C20   1.509939 S    
C23   H15   1.109451 S    
C21   H9    1.106128 S    
O6    C4    1.285983 A    
C24   H18   1.108528 S    
C23   H13   1.114639 S    
N6    O16   1.301336 A    
O20   C24   1.414805 S    
C22   H12   1.108894 S    
C5    C12   1.398632 A    
Zn1   N2    2.018491 S    
N3    O10   1.300719 A    
N5    O13   1.301249 A    
O18   C22   1.411335 S    
C24   H16   1.108675 S    
O5    C3    1.290429 A    
O7    C3    1.290345 A    
C22   H10   1.111722 S    
O2    C2    1.285359 A    
O3    Zn2   1.915540 S    
N4    O12   1.301474 A    
Zn2   N1    2.018490 S    
C6    C9    1.390171 A    
O1    C1    1.284849 A    
C12   N3    1.435981 S    
O8    C4    1.294995 A    
C16   C18   1.352786 D    
N6    O15   1.301261 A    
C7    C9    1.374555 A    
C18   O17   1.404090 S    
C21   H8    1.109151 S    
N2    C20   1.296104 D    
C11   C13   1.405482 A    
O19   C23   1.413463 S    
O2    Zn2   1.921262 S    
C12   C14   1.393738 A    
C22   H11   1.110346 S    
C7    C14   1.411727 A    
O1    Zn1   1.921260 S    
N4    O11   1.301588 A    
C13   C14   1.426162 A    
C17   C18   1.473191 S    
C8    C13   1.419518 A    
O5    Zn1   1.981963 S    
O17   C21   1.416025 S    
C21   H7    1.111970 S    
O4    C2    1.302214 A    
C10   H1    1.082815 S    
N5    O14   1.301303 A    
C24   H17   1.116076 S    
N3    O9    1.300892 A    
C9    H2    1.083844 S    
N1    H6    1.030293 S    
C23   H14   1.109709 S    
C11   N4    1.436592 S    
C19   O20   1.386418 S    
N1    C19   1.299465 D    
C15   H4    1.087248 S    
C1    C15   1.444067 S    
C16   H3    1.087519 S    
C2    C16   1.454078 S    
C20   O19   1.385756 S    
O4    Zn1   1.915540 S    
C7    N5    1.433890 S    
C5    C10   1.390923 A    
O3    C1    1.298458 A    
O8    Zn1   2.007700 S    
C8    N6    1.435024 S    
