data_mof_unit_53590.cif
_audit_creation_date              2012-12-10T21:29:37-0500
_audit_creation_method            fapswitch 2.2
_symmetry_space_group_name_H-M    P1
_symmetry_Int_Tables_number       1
_space_group_crystal_system       triclinic
_cell_length_a                    10.702777
_cell_length_b                    16.211736
_cell_length_c                    16.800879
_cell_angle_alpha                 86.035825
_cell_angle_beta                  91.920488
_cell_angle_gamma                 92.20598
_cell_volume                      2904.60873611

loop_
_atom_site_label
_atom_site_type_symbol
_atom_type_description
_atom_site_fract_x
_atom_site_fract_y
_atom_site_fract_z
_atom_type_partial_charge
C1    C     C_R   0.498133 0.487796 0.652448 0.879399
C2    C     C_R   0.505651 0.512409 0.347385 0.895065
C3    C     C_R   0.496922 0.477431 0.738219 -0.155841
C4    C     C_R   0.516278 0.524088 0.261412 -0.142466
C5    C     C_R   0.404624 0.513261 0.780897 -0.083069
C6    C     C_R   0.608344 0.484829 0.221273 -0.042329
C7    C     C_R   0.416021 0.508627 0.863742 -0.090004
C8    C     C_R   0.605977 0.492311 0.138306 -0.072608
C9    C     C_R   0.517669 0.469335 0.903551 0.182471
C10   C     C_R   0.514270 0.538662 0.095510 0.177528
C11   C     C_R   0.604178 0.428451 0.860739 -0.040212
C12   C     C_R   0.431479 0.584862 0.135925 -0.059960
C13   C     C_R   0.593425 0.433670 0.777644 -0.090358
C14   C     C_R   0.433610 0.577060 0.219084 -0.052503
C15   C     C_R   0.453335 0.764253 0.450436 -0.036132
C16   C     C_R   0.514796 0.235428 0.559438 0.000270
C17   C     C_R   0.453871 0.852411 0.450601 -0.136677
C18   C     C_R   0.494030 0.147507 0.565023 -0.130603
C19   C     C_R   0.514865 0.892003 0.514359 0.260649
C20   C     C_R   0.449099 0.107869 0.497229 0.213257
C21   C     C_R   0.575408 0.842540 0.573660 -0.229609
C22   C     C_R   0.428815 0.156201 0.426786 -0.129952
C23   C     C_R   0.738210 0.500889 0.488569 0.907651
C24   C     C_R   0.258663 0.501011 0.497089 0.887851
C25   C     C_R   0.576676 0.756054 0.570809 0.085872
C26   C     C_R   0.454633 0.242198 0.422378 0.069210
C27   C     C_R   0.873908 0.354544 0.429396 -0.159427
C28   C     C_R   0.108759 0.644512 0.535762 -0.141440
C29   C     C_R   0.940103 0.292898 0.396460 -0.019934
C30   C     C_R   0.052615 0.721613 0.528110 -0.033153
C31   C     C_R   0.061654 0.312690 0.369717 -0.127478
C32   C     C_R   0.943648 0.730813 0.478690 -0.100100
C33   C     C_R   0.118922 0.390039 0.386417 -0.047031
C34   C     C_R   0.886579 0.660087 0.445427 -0.034713
C35   C     C_R   0.060904 0.441260 0.438574 0.102103
C36   C     C_R   0.936263 0.580754 0.465962 0.113796
C37   C     C_R   0.931660 0.432080 0.446196 0.021915
C38   C     C_R   0.058594 0.576631 0.495296 0.002614
C39   C     C_R   0.124649 0.505332 0.479711 -0.153762
C40   C     C_R   0.867927 0.503913 0.464288 -0.179108
H1    H     H_    0.624636 0.872163 0.622108 0.174878
H2    H     H_    0.405337 0.125011 0.372957 0.210849
H3    H     H_    0.776132 0.340469 0.435232 0.197222
H4    H     H_    0.191111 0.638804 0.574009 0.202143
H5    H     H_    0.675033 0.461468 0.106470 0.189767
H6    H     H_    0.346190 0.536072 0.897852 0.191532
H7    H     H_    0.662826 0.406264 0.743126 0.190988
H8    H     H_    0.367240 0.609812 0.251015 0.240165
N1    N     N_2   0.534455 0.471297 0.986773 -0.188066
N2    N     N_2   0.501105 0.537207 0.011961 -0.193736
N3    N     N_R   0.515300 0.716920 0.509720 -0.155292
N4    N     N_R   0.484700 0.283080 0.490280 -0.181778
N5    N     N_2   0.526730 0.980358 0.518616 -0.121755
N6    N     N_2   0.432200 0.019712 0.495559 -0.132795
O1    O     O_R   0.494530 0.422540 0.612660 -0.618840
O2    O     O_R   0.505470 0.577460 0.387340 -0.616964
O3    O     O_R   0.504350 0.561840 0.618900 -0.597678
O4    O     O_R   0.495650 0.438160 0.381100 -0.689655
O5    O     O_R   0.678310 0.430340 0.496890 -0.678755
O6    O     O_R   0.321690 0.569660 0.503110 -0.663215
O7    O     O_R   0.688140 0.569650 0.503130 -0.569599
O8    O     O_R   0.311860 0.430350 0.496870 -0.610380
Zn1   Zn    Zn3+2 0.493440 0.406980 0.495830 0.938164
Zn2   Zn    Zn3+2 0.506560 0.593020 0.504170 0.984953
C41   C     C_2   0.889964 0.813423 0.461547 0.831569
O9    O     O_2   0.854453 0.851749 0.516207 -0.625192
O10   O     O_R   0.879836 0.847131 0.382844 -0.761484
H9    H     H_    0.841012 0.903395 0.378778 0.371984
C42   C     C_2   0.122932 0.255658 0.319323 0.877852
O11   O     O_2   0.141541 0.276195 0.249195 -0.541841
O12   O     O_R   0.154647 0.177174 0.351485 -0.805796
H10   H     H_    0.191620 0.142745 0.310620 0.368108
C43   C     C_2   0.522029 0.096711 0.640041 1.012144
O13   O     O_2   0.441822 0.048648 0.668403 -0.573364
O14   O     O_R   0.640898 0.102117 0.676858 -0.754085
H11   H     H_    0.648611 0.063852 0.726979 0.365012
C44   C     C_2   0.392493 0.901939 0.383801 1.008058
O15   O     O_2   0.453351 0.954545 0.344509 -0.582918
O16   O     O_R   0.265352 0.887769 0.365700 -0.776936
H12   H     H_    0.234159 0.925298 0.319064 0.369995
C45   C     C_2   0.646253 0.711155 0.636316 0.504328
H13   H     H_    0.639712 0.729767 0.696826 0.050911
O17   O     O_2   0.718595 0.657829 0.623525 -0.535646
C46   C     C_2   0.479491 0.279928 0.342148 0.455137
H14   H     H_    0.563330 0.317977 0.332882 0.090943
O18   O     O_2   0.414351 0.262175 0.284340 -0.553152
C47   C     C_2   0.874637 0.212338 0.381230 0.477204
H15   H     H_    0.916200 0.168352 0.345281 0.117803
O19   O     O_2   0.772659 0.193696 0.409187 -0.589387
C48   C     C_2   0.115919 0.793096 0.566060 0.481028
H16   H     H_    0.082377 0.855128 0.554879 0.123079
O20   O     O_2   0.208159 0.783748 0.610113 -0.552714
C49   C     C_2   0.219513 0.426065 0.335138 0.474953
H17   H     H_    0.284809 0.387383 0.309147 0.122990
O21   O     O_2   0.225247 0.500371 0.317733 -0.604360
C50   C     C_2   0.784460 0.670020 0.383471 0.533864
H18   H     H_    0.722477 0.721454 0.382719 0.093369
O22   O     O_2   0.770156 0.621098 0.331598 -0.589396
C51   C     C_2   0.710257 0.439647 0.264808 0.479476
H19   H     H_    0.722153 0.442620 0.328517 0.051772
O23   O     O_2   0.782735 0.399400 0.229987 -0.548732
C52   C     C_2   0.295454 0.553694 0.740012 0.475649
H20   H     H_    0.277188 0.548520 0.676738 0.037711
O24   O     O_2   0.223714 0.592636 0.776731 -0.527782
C53   C     C_2   0.708541 0.383586 0.902331 0.489097
H21   H     H_    0.718424 0.380516 0.966940 0.088101
O25   O     O_2   0.784861 0.349138 0.864940 -0.518474
C54   C     C_2   0.339071 0.638084 0.091551 0.503458
H22   H     H_    0.336281 0.643746 0.026796 0.080859
O26   O     O_2   0.264870 0.676609 0.126779 -0.492461
C55   C     C_2   0.582614 0.274293 0.625595 0.555245
H23   H     H_    0.660311 0.317558 0.612997 0.082607
O27   O     O_2   0.551393 0.259651 0.694541 -0.544542
C56   C     C_2   0.387688 0.723743 0.384196 0.513009
H24   H     H_    0.321737 0.672666 0.395764 0.119954
O28   O     O_2   0.406913 0.747725 0.315040 -0.542340

loop_
_geom_bond_atom_site_label_1
_geom_bond_atom_site_label_2
_ccdc_geom_bond_type
C47   H15   S    
C49   H17   S    
C27   C29   A    
C43   O13   D    
C2    C4    S    
C55   H23   S    
C30   C48   S    
C45   H13   S    
C44   O15   D    
C23   O5    A    
C53   O25   D    
C35   C37   A    
C46   O18   D    
C37   C40   A    
C1    O3    A    
C38   C39   A    
C23   C40   S    
C24   C39   S    
C54   H22   S    
C7    C9    A    
C42   O12   S    
C8    H5    S    
C33   C35   A    
C13   H7    S    
C41   O10   S    
C50   O22   D    
C11   C53   S    
C24   O8    A    
O2    Zn2   S    
C15   N3    A    
C18   C20   A    
C3    C13   A    
C19   N5    S    
C49   O21   D    
C25   C45   S    
C43   O14   S    
C52   H20   S    
C17   C44   S    
C45   O17   D    
C56   H24   S    
C44   O16   S    
O10   H9    S    
C7    H6    S    
C36   C40   A    
C9    N1    S    
C46   H14   S    
C20   N6    S    
C12   C54   S    
C6    C8    A    
N5    N6    D    
C28   H4    S    
O1    Zn1   S    
C1    C3    S    
C32   C34   A    
O7    Zn2   S    
C35   C39   A    
O14   H11   S    
C25   N3    A    
O8    Zn1   S    
C26   N4    A    
C48   O20   D    
C51   H19   S    
C31   C42   S    
C24   O6    A    
C50   H18   S    
C31   C33   A    
C15   C56   S    
C55   O27   D    
C16   C18   A    
C52   O24   D    
C9    C11   A    
C10   C12   A    
C21   H1    S    
C4    C6    A    
C51   O23   D    
C12   C14   A    
C41   O9    D    
C18   C43   S    
C47   O19   D    
C20   C22   A    
C10   N2    S    
O3    Zn2   S    
C5    C7    A    
O4    Zn1   S    
C15   C17   A    
C21   C25   A    
C5    C52   S    
C26   C46   S    
C19   C21   A    
N3    Zn2   S    
C16   N4    A    
C34   C50   S    
C3    C5    A    
N4    Zn1   S    
C33   C49   S    
C56   O28   D    
C2    O4    A    
C53   H21   S    
O5    Zn1   S    
O6    Zn2   S    
C6    C51   S    
C28   C30   A    
C1    O1    A    
O12   H10   S    
C29   C31   A    
C2    O2    A    
C30   C32   A    
C11   C13   A    
C48   H16   S    
C22   H2    S    
C27   C37   A    
C36   C38   A    
C17   C19   A    
C54   O26   D    
C34   C36   A    
C4    C14   A    
C42   O11   D    
C29   C47   S    
O16   H12   S    
C27   H3    S    
C23   O7    A    
C8    C10   A    
N1    N2    D    
C22   C26   A    
C14   H8    S    
C28   C38   A    
C16   C55   S    
C32   C41   S    
