data_mof_unit_34278.cif
_audit_creation_date              2012-12-10T18:12:29-0500
_audit_creation_method            fapswitch 2.2
_symmetry_space_group_name_H-M    P1
_symmetry_Int_Tables_number       1
_space_group_crystal_system       triclinic
_cell_length_a                    9.660312
_cell_length_b                    11.104791
_cell_length_c                    17.259495
_cell_angle_alpha                 89.705493
_cell_angle_beta                  84.810245
_cell_angle_gamma                 92.876011
_cell_volume                      1841.52531932

loop_
_atom_site_label
_atom_site_type_symbol
_atom_type_description
_atom_site_fract_x
_atom_site_fract_y
_atom_site_fract_z
_atom_type_partial_charge
C1    C     C_R   0.502143 0.739247 0.506628 0.756515
C2    C     C_R   0.350125 0.501556 0.780510 -0.145458
C3    C     C_R   0.413622 0.510079 0.144226 -0.126869
C4    C     C_R   0.407612 0.502618 0.224658 -0.203698
C5    C     C_R   0.657536 0.509230 0.218543 -0.162919
C6    C     C_R   0.664670 0.516995 0.137614 -0.152280
C7    C     C_R   0.542586 0.520089 0.100088 0.175910
C8    C     C_2   0.454429 0.581447 0.977239 -0.147452
C9    C     C_2   0.551938 0.529876 0.014917 -0.173677
C10   C     C_R   0.529132 0.503676 0.263484 -0.040252
C11   C     C_3   0.353930 0.916319 0.495998 -0.040792
C12   C     C_R   0.481086 0.505906 0.649333 0.847269
C13   C     C_3   0.355636 0.052780 0.470885 0.134532
C14   C     C_3   0.527551 0.933005 0.593981 -0.387079
C15   C     C_3   0.618272 0.939132 0.451231 -0.188966
C16   C     C_3   0.503963 0.878005 0.512465 -0.030618
C17   C     C_3   0.488302 0.120411 0.505977 -0.067444
C18   C     C_3   0.508389 0.074195 0.592160 -0.140703
C19   C     C_3   0.621073 0.077438 0.459067 -0.454071
C20   C     C_3   0.918289 0.382325 0.469831 -0.074759
C21   C     C_3   0.083447 0.390426 0.459240 -0.070490
C22   C     C_3   0.930678 0.604345 0.454023 -0.077699
C23   C     C_R   0.496042 0.259798 0.500826 0.896576
C24   C     C_3   0.903643 0.512854 0.578479 -0.273454
C25   C     C_3   0.095251 0.608936 0.460159 0.024525
C26   C     C_3   0.067678 0.497285 0.580183 0.073965
C27   C     C_R   0.519327 0.500451 0.349779 0.866344
C28   C     C_R   0.472508 0.529148 0.732958 -0.042753
C29   C     C_R   0.587076 0.586295 0.764727 -0.260248
C30   C     C_R   0.581902 0.613529 0.843923 0.021341
C31   C     C_R   0.460272 0.577929 0.892186 0.097968
C32   C     C_R   0.344161 0.525653 0.859654 -0.164600
Cu1   Cu    Cu3+1 0.357600 0.500140 0.499960 0.947312
Cu2   Cu    Cu3+1 0.642400 0.499860 0.500040 0.981242
H1    H     H_    0.679596 0.613152 0.727139 0.178085
H2    H     H_    0.765529 0.522235 0.104408 0.141054
H3    H     H_    0.321800 0.862989 0.446249 0.173185
H4    H     H_    0.458711 0.885786 0.640462 0.207890
H5    H     H_    0.589309 0.914539 0.392185 0.141910
H6    H     H_    0.644292 0.120289 0.401377 0.256133
H7    H     H_    0.306820 0.494939 0.255651 0.188604
H8    H     H_    0.711694 0.108919 0.490533 0.206961
H9    H     H_    0.632293 0.916069 0.611208 0.208963
H10   H     H_    0.608666 0.116476 0.608401 0.115655
H11   H     H_    0.888770 0.315510 0.517772 0.091853
H12   H     H_    0.112007 0.314223 0.492204 0.114420
H13   H     H_    0.876427 0.601875 0.603338 0.153580
H14   H     H_    0.752409 0.507604 0.245279 0.222272
H15   H     H_    0.843773 0.446395 0.618435 0.197547
H16   H     H_    0.110912 0.575284 0.612207 0.161574
H17   H     H_    0.896922 0.685980 0.485227 0.137606
H18   H     H_    0.114610 0.683572 0.500164 0.144044
H19   H     H_    0.642199 0.494523 0.982107 0.146979
H20   H     H_    0.250477 0.498813 0.896269 0.145501
H21   H     H_    0.316874 0.506069 0.117058 0.137398
H22   H     H_    0.260656 0.458509 0.757053 0.161495
H23   H     H_    0.362878 0.616705 0.008515 0.150841
N1    N     N_3   0.856560 0.499750 0.498270 -0.223867
N2    N     N_3   0.143860 0.496700 0.498910 -0.178922
O1    O     O_R   0.379740 0.682430 0.499960 -0.616995
O2    O     O_R   0.620260 0.682190 0.500020 -0.548139
O3    O     O_R   0.365800 0.500150 0.613560 -0.591878
O4    O     O_R   0.606310 0.499910 0.613620 -0.608877
O5    O     O_R   0.379740 0.317810 0.499980 -0.543579
O6    O     O_R   0.620260 0.317570 0.500040 -0.623093
O7    O     O_R   0.393690 0.500090 0.386380 -0.585489
O8    O     O_R   0.634200 0.499850 0.386440 -0.526380
C33   C     C_3   0.240981 0.878117 0.564793 -0.783809
H24   H     H_    0.228944 0.948436 0.609198 0.276914
H25   H     H_    0.137248 0.861569 0.543467 0.215304
H26   H     H_    0.263125 0.795215 0.596341 0.235957
C34   C     C_2   0.362978 0.058103 0.380468 0.849043
O9    O     O_2   0.277878 0.997684 0.346666 -0.601906
O10   O     O_R   0.456953 0.136476 0.336314 -0.781956
H27   H     H_    0.450472 0.128191 0.278251 0.339719
C35   C     C_3   0.213440 0.104478 0.498186 -0.779987
H28   H     H_    0.212438 0.150609 0.554863 0.232255
H29   H     H_    0.181513 0.160671 0.452428 0.255529
H30   H     H_    0.123881 0.038529 0.500050 0.233767
C36   C     C_2   0.405732 0.118458 0.656335 0.810553
O11   O     O_2   0.386613 0.226102 0.661371 -0.645075
O12   O     O_R   0.343104 0.039880 0.714313 -0.768314
H31   H     H_    0.279931 0.082137 0.754446 0.342506
C37   C     C_2   0.767972 0.905770 0.455336 0.947459
O13   O     O_2   0.810538 0.876516 0.516852 -0.662175
O14   O     O_R   0.862367 0.925830 0.389640 -0.689593
H32   H     H_    0.961186 0.908353 0.399807 0.332477
C38   C     C_2   0.861800 0.311496 0.403218 0.910472
O15   O     O_2   0.885369 0.204393 0.399090 -0.633190
O16   O     O_R   0.811135 0.365573 0.339909 -0.696313
H33   H     H_    0.785203 0.305342 0.298972 0.334700
C39   C     C_2   0.147358 0.369570 0.375797 0.877904
O17   O     O_2   0.089750 0.400735 0.319595 -0.567615
O18   O     O_R   0.265437 0.303596 0.362192 -0.732057
H34   H     H_    0.290402 0.290195 0.304680 0.340515
C40   C     C_2   0.882926 0.627591 0.373249 0.946080
O19   O     O_2   0.787693 0.693884 0.366432 -0.596614
O20   O     O_R   0.953279 0.585284 0.305704 -0.725785
H35   H     H_    0.933461 0.631137 0.257296 0.320774
C41   C     C_3   0.178856 0.658872 0.384524 -0.703631
H36   H     H_    0.180185 0.596742 0.336304 0.272012
H37   H     H_    0.131973 0.742374 0.365897 0.199729
H38   H     H_    0.287663 0.687159 0.388044 0.245785
C42   C     C_3   0.088728 0.384381 0.630433 -0.821762
H39   H     H_    0.070436 0.406591 0.692966 0.218118
H40   H     H_    0.014238 0.308252 0.620099 0.201175
H41   H     H_    0.192753 0.349217 0.618580 0.304750
C43   C     C_2   0.702036 0.682406 0.873580 0.821996
O21   O     O_2   0.818395 0.677620 0.839620 -0.608931
O22   O     O_R   0.682069 0.755407 0.939031 -0.741442
H42   H     H_    0.771723 0.797648 0.953129 0.341114

loop_
_geom_bond_atom_site_label_1
_geom_bond_atom_site_label_2
_ccdc_geom_bond_type
C10   C27   S    
C14   C18   S    
C35   H30   S    
C42   H40   S    
C15   C19   S    
C17   C23   S    
C12   C28   S    
C39   O17   D    
C28   C29   A    
C35   H29   S    
C21   N2    S    
C3    C7    A    
C26   H16   S    
C30   C31   A    
C36   O11   D    
C22   H17   S    
C4    H7    S    
C15   C16   S    
C43   O21   D    
C2    C32   A    
C11   H3    S    
O22   H42   S    
Cu2   O4    S    
C26   C42   S    
C33   H24   S    
C3    H21   S    
C6    H2    S    
C8    C9    D    
C22   C25   S    
C40   O20   S    
C26   N2    S    
C20   H11   S    
C19   H8    S    
Cu1   N2    S    
C8    C31   S    
Cu2   O6    S    
C32   H20   S    
C42   H39   S    
Cu1   O7    S    
C17   C18   S    
C5    H14   S    
O10   H27   S    
C37   O13   D    
C34   O10   S    
C1    O1    A    
C12   O4    A    
O14   H32   S    
Cu1   O3    S    
C41   H38   S    
C29   C30   A    
C18   H10   S    
C8    H23   S    
C14   H4    S    
C12   O3    A    
C11   C16   S    
C25   C41   S    
C31   C32   A    
C13   C35   S    
C40   O19   D    
C20   C21   S    
C39   O18   S    
Cu1   Cu2   S    
C1    C16   S    
C35   H28   S    
C15   H5    S    
C15   C37   S    
C24   N1    S    
C23   O5    A    
C41   H37   S    
C38   O16   S    
O12   H31   S    
Cu1   O1    S    
C14   C16   S    
C9    H19   S    
C4    C10   A    
C3    C4    A    
C11   C33   S    
C21   H12   S    
C24   H15   S    
C7    C9    S    
C30   C43   S    
C24   H13   S    
C22   C40   S    
C24   C26   S    
C34   O9    D    
C1    O2    A    
Cu2   O8    S    
C22   N1    S    
C33   H26   S    
C6    C7    A    
C13   C34   S    
C29   H1    S    
C13   C17   S    
C23   O6    A    
C25   H18   S    
C5    C10   A    
C27   O7    A    
C2    H22   S    
C11   C13   S    
O16   H33   S    
C5    C6    A    
Cu1   O5    S    
C20   C38   S    
C41   H36   S    
C17   C19   S    
C36   O12   S    
C43   O22   S    
Cu2   O2    S    
O18   H34   S    
C27   O8    A    
C19   H6    S    
C38   O15   D    
C18   C36   S    
O20   H35   S    
Cu2   N1    S    
C33   H25   S    
C37   O14   S    
C2    C28   A    
C25   N2    S    
C20   N1    S    
C42   H41   S    
C14   H9    S    
C21   C39   S    
