data_mof_unit_49531.cif
_audit_creation_date              2012-12-10T18:00:43-0500
_audit_creation_method            fapswitch 2.2
_symmetry_space_group_name_H-M    P1
_symmetry_Int_Tables_number       1
_space_group_crystal_system       triclinic
_cell_length_a                    15.918378
_cell_length_b                    10.780712
_cell_length_c                    9.566389
_cell_angle_alpha                 89.821449
_cell_angle_beta                  90.049293
_cell_angle_gamma                 90.880302
_cell_volume                      1641.49959851

loop_
_atom_site_label
_atom_site_type_symbol
_atom_type_description
_atom_site_fract_x
_atom_site_fract_y
_atom_site_fract_z
_atom_type_partial_charge
C1    C     C_R   0.499728 0.262523 0.500065 0.933453
C2    C     C_R   0.500271 0.737477 0.499934 0.933475
C3    C     C_R   0.564280 0.936238 0.428773 0.327134
C4    C     C_R   0.435676 0.063763 0.571148 0.327168
C5    C     C_R   0.500144 0.871557 0.499966 -0.121072
C6    C     C_R   0.499842 0.128442 0.500021 -0.121070
C7    C     C_R   0.446760 0.422878 0.075126 0.180790
C8    C     C_R   0.553234 0.577134 0.924874 0.180800
C9    C     C_R   0.446766 0.422938 0.925413 0.171730
C10   C     C_R   0.553230 0.577068 0.074585 0.171845
C11   C     C_R   0.340085 0.499763 0.499935 0.834042
C12   C     C_R   0.659915 0.500237 0.500065 0.834161
C13   C     C_3   0.970948 0.391607 0.548522 -0.035649
C14   C     C_3   0.029052 0.608392 0.451479 -0.035624
C15   C     C_3   0.026817 0.408489 0.418359 0.282714
C16   C     C_3   0.973184 0.591510 0.581642 0.282743
C17   C     C_1   0.250809 0.499614 0.499875 -0.138619
C18   C     C_1   0.749191 0.500386 0.500125 -0.138488
C19   C     C_3   0.027788 0.482655 0.630166 0.324418
C20   C     C_3   0.972212 0.517344 0.369835 0.324455
C21   C     C_3   0.084342 0.499715 0.499893 -0.024928
C22   C     C_3   0.915658 0.500284 0.500108 -0.024939
C23   C     C_1   0.175589 0.499567 0.499889 0.115388
C24   C     C_1   0.824412 0.500433 0.500112 0.115450
C25   C     C_R   0.563899 0.066844 0.428579 -0.027332
C26   C     C_R   0.436071 0.933154 0.571371 -0.027381
Cu1   Cu    Cu3+1 0.500000 0.500020 0.640660 1.024000
Cu2   Cu    Cu3+1 0.500000 0.499980 0.359340 1.023890
N1    N     N_R   0.500020 0.500030 0.852070 -0.161196
N2    N     N_R   0.499980 0.499970 0.147930 -0.161205
O1    O     O_R   0.500000 0.319660 0.618740 -0.548882
O2    O     O_R   0.500000 0.680340 0.381260 -0.549090
O3    O     O_R   0.499990 0.319630 0.381170 -0.556899
O4    O     O_R   0.500010 0.680370 0.618830 -0.556726
O5    O     O_R   0.379080 0.500000 0.618760 -0.545756
O6    O     O_R   0.620920 0.500000 0.381240 -0.545714
O7    O     O_R   0.379080 0.499970 0.381190 -0.564518
O8    O     O_R   0.620920 0.500030 0.618810 -0.564553
O9    O     O_3   0.055373 0.312906 0.333120 -0.698550
H1    H     H_    0.003994 0.273178 0.293981 0.335717
O10   O     O_3   0.944628 0.687094 0.666881 -0.698498
H2    H     H_    0.996006 0.726819 0.706023 0.335706
N3    N     N_3   0.939335 0.273502 0.602603 -0.549784
H3    H     H_    0.991259 0.217531 0.620757 0.258938
H4    H     H_    0.904321 0.231335 0.522928 0.221160
N4    N     N_3   0.060665 0.726498 0.397398 -0.549818
H5    H     H_    0.008742 0.782468 0.379242 0.258969
H6    H     H_    0.095678 0.768665 0.477075 0.221104
O11   O     O_3   0.942606 0.535597 0.233828 -0.699149
H7    H     H_    0.993543 0.541791 0.174551 0.353275
O12   O     O_3   0.057394 0.464403 0.766173 -0.699174
H8    H     H_    0.006457 0.458209 0.825449 0.353279
N5    N     N_3   0.628755 0.138741 0.360500 -0.591172
H9    H     H_    0.628746 0.117441 0.253960 0.228428
H10   H     H_    0.686816 0.116533 0.404364 0.223638
N6    N     N_3   0.371279 0.861254 0.639606 -0.591114
H11   H     H_    0.371193 0.882863 0.746066 0.228767
H12   H     H_    0.313209 0.883141 0.595564 0.223092
O13   O     O_3   0.626826 0.868338 0.365638 -0.730687
H13   H     H_    0.666678 0.923568 0.315418 0.327229
O14   O     O_3   0.373176 0.131687 0.634415 -0.730838
H14   H     H_    0.332780 0.076375 0.683315 0.327356
N7    N     N_3   0.391242 0.341837 0.151281 -0.512382
H15   H     H_    0.404084 0.250209 0.124327 0.197674
H16   H     H_    0.329380 0.361199 0.123005 0.212600
N8    N     N_3   0.608739 0.658196 0.848719 -0.512324
H17   H     H_    0.595923 0.749815 0.875748 0.197677
H18   H     H_    0.670607 0.638795 0.876921 0.212618
N9    N     N_3   0.391195 0.341968 0.849914 -0.477318
H19   H     H_    0.403279 0.250650 0.879491 0.217553
H20   H     H_    0.329388 0.362470 0.876794 0.214100
N10   N     N_3   0.608768 0.658091 0.150078 -0.477376
H21   H     H_    0.596543 0.749425 0.120616 0.217247
H22   H     H_    0.670610 0.637760 0.123061 0.214046

loop_
_geom_bond_atom_site_label_1
_geom_bond_atom_site_label_2
_ccdc_geom_bond_type
N8    H18   S    
N7    H16   S    
C8    N8    S    
Cu1   N1    S    
O10   H2    S    
C1    O3    A    
C14   N4    S    
N5    H9    S    
C17   C23   T    
C18   C24   T    
C8    N1    A    
C14   C21   S    
C19   C21   S    
C25   N5    S    
C6    C25   A    
Cu1   O8    S    
C1    O1    A    
N6    H11   S    
C2    O2    A    
C11   O7    A    
C12   O6    A    
C9    N1    A    
C2    O4    A    
N8    H17   S    
O13   H13   S    
Cu1   O4    S    
C7    N2    A    
N9    H19   S    
N5    H10   S    
C21   C23   S    
C15   C20   S    
N4    H6    S    
N9    H20   S    
C13   C19   S    
Cu1   O1    S    
O12   H8    S    
C14   C20   S    
Cu2   O2    S    
N10   H22   S    
O9    H1    S    
Cu1   O5    S    
C4    O14   S    
N7    H15   S    
N3    H3    S    
C20   O11   S    
C10   N2    A    
C3    C25   A    
C7    N7    S    
N3    H4    S    
C15   O9    S    
C4    C6    A    
C20   C22   S    
Cu2   O3    S    
C13   C15   S    
C14   C16   S    
C2    C5    S    
C13   N3    S    
C7    C9    A    
N4    H5    S    
C11   C17   S    
C16   C22   S    
C1    C6    S    
C9    N9    S    
N10   H21   S    
C3    C5    A    
C26   N6    S    
C4    C26   A    
Cu2   N2    S    
Cu2   O7    S    
C16   C19   S    
C11   O5    A    
N6    H12   S    
C13   C22   S    
C22   C24   S    
C12   O8    A    
O14   H14   S    
C5    C26   A    
C19   O12   S    
C15   C21   S    
Cu2   O6    S    
C8    C10   A    
O11   H7    S    
C12   C18   S    
Cu1   Cu2   S    
C16   O10   S    
C3    O13   S    
C10   N10   S    
