data_mof_unit_55477.cif
_audit_creation_date              2012-12-10T17:52:25-0500
_audit_creation_method            fapswitch 2.2
_symmetry_space_group_name_H-M    P1
_symmetry_Int_Tables_number       1
_space_group_crystal_system       triclinic
_cell_length_a                    18.928617
_cell_length_b                    10.626988
_cell_length_c                    9.909195
_cell_angle_alpha                 89.782684
_cell_angle_beta                  90.420374
_cell_angle_gamma                 91.345677
_cell_volume                      1992.659613

loop_
_atom_site_label
_atom_site_type_symbol
_atom_type_description
_atom_site_fract_x
_atom_site_fract_y
_atom_site_fract_z
_atom_type_partial_charge
C1    C     C_R   0.501283 0.260603 0.500201 0.845993
C2    C     C_R   0.854128 0.608484 0.496019 0.087738
C3    C     C_R   0.623374 0.135408 0.610619 -0.141161
C4    C     C_R   0.365062 0.502741 0.499478 0.834446
C5    C     C_R   0.680786 0.071939 0.664689 -0.093742
C6    C     C_R   0.680645 0.940949 0.665328 -0.156816
C7    C     C_R   0.623174 0.873095 0.611592 -0.186421
C8    C     C_R   0.564296 0.936218 0.557363 0.097716
C9    C     C_R   0.564291 0.068066 0.557394 0.075635
C10   C     C_R   0.505609 0.128400 0.500110 -0.087503
C11   C     C_R   0.449836 0.062370 0.438967 -0.212195
C12   C     C_R   0.289351 0.525729 0.497572 -0.040482
C13   C     C_R   0.449968 0.933704 0.438367 -0.185265
C14   C     C_R   0.505799 0.871766 0.499161 -0.096466
C15   C     C_R   0.407439 0.335960 0.139444 -0.215435
C16   C     C_R   0.501379 0.739399 0.499751 0.868655
C17   C     C_R   0.362084 0.254340 0.069399 -0.176238
C18   C     C_R   0.361949 0.253026 0.928933 0.005724
C19   C     C_R   0.407794 0.334880 0.859540 -0.269904
C20   C     C_R   0.454472 0.418796 0.927526 0.181641
C21   C     C_R   0.454393 0.419081 0.071996 0.178303
C22   C     C_R   0.543780 0.577225 0.071789 -0.111680
C23   C     C_R   0.930443 0.633406 0.491400 0.299823
C24   C     C_R   0.543750 0.577230 0.928635 -0.074427
C25   C     C_R   0.635332 0.501850 0.500898 0.844408
C26   C     C_R   0.254168 0.550150 0.618328 -0.187904
C27   C     C_R   0.184302 0.587019 0.615359 -0.145642
C28   C     C_R   0.148430 0.599089 0.491633 0.080248
C29   C     C_R   0.183520 0.573418 0.370957 -0.150935
C30   C     C_R   0.253428 0.536783 0.373915 -0.189372
C31   C     C_2   0.314228 0.166534 0.852504 0.417373
C32   C     C_2   0.727038 0.489529 0.758180 0.397958
C33   C     C_R   0.073021 0.626531 0.489500 0.293471
C34   C     C_R   0.822361 0.577007 0.619187 -0.254003
C35   C     C_R   0.752748 0.531436 0.624023 -0.011236
C36   C     C_R   0.712332 0.524787 0.502437 -0.067324
C37   C     C_R   0.744718 0.558237 0.379687 -0.209224
C38   C     C_R   0.814803 0.598957 0.376428 -0.159062
H1    H     H_    0.280893 0.543134 0.715020 0.163480
H2    H     H_    0.405499 0.330042 0.752548 0.198858
H3    H     H_    0.158348 0.604805 0.710184 0.157440
H4    H     H_    0.579494 0.640312 0.875011 0.135948
H5    H     H_    0.156969 0.580743 0.274173 0.156273
H6    H     H_    0.279556 0.519078 0.279187 0.163474
H7    H     H_    0.853092 0.580937 0.711917 0.147450
H8    H     H_    0.715591 0.555161 0.285208 0.166193
H9    H     H_    0.838311 0.622037 0.279861 0.151154
H10   H     H_    0.405653 0.110733 0.393794 0.138287
H11   H     H_    0.314934 0.166905 0.742936 0.048000
H12   H     H_    0.626179 0.236959 0.608710 0.186884
H13   H     H_    0.742705 0.542247 0.847579 0.045430
H14   H     H_    0.725782 0.124539 0.704999 0.171913
H15   H     H_    0.725486 0.891748 0.706218 0.141983
H16   H     H_    0.625883 0.771573 0.611278 0.135384
H17   H     H_    0.405841 0.882040 0.392905 0.157532
H18   H     H_    0.579549 0.640319 0.125786 0.143494
H19   H     H_    0.404051 0.330826 0.246352 0.206996
H20   H     H_    0.327028 0.191936 0.125749 0.185778
N1    N     N_R   0.035605 0.619547 0.372429 -0.172418
N2    N     N_R   0.965538 0.622826 0.373359 -0.173134
N3    N     N_R   0.968076 0.646779 0.607595 -0.173514
N4    N     N_R   0.038087 0.643527 0.606661 -0.172097
N5    N     N_R   0.499340 0.498800 0.142780 -0.116355
N6    N     N_R   0.499320 0.498720 0.857170 -0.107805
O1    O     O_R   0.500000 0.316780 0.614690 -0.625524
O2    O     O_2   0.692791 0.391664 0.771702 -0.575223
O3    O     O_R   0.499990 0.316750 0.385360 -0.621461
O4    O     O_R   0.398140 0.500000 0.614700 -0.635025
O5    O     O_R   0.398130 0.499970 0.385370 -0.636285
O6    O     O_R   0.500010 0.683250 0.614640 -0.615960
O7    O     O_R   0.500000 0.683220 0.385310 -0.609136
O8    O     O_R   0.601870 0.500030 0.614630 -0.581692
O9    O     O_R   0.601860 0.500000 0.385300 -0.617356
O10   O     O_2   0.273660 0.093904 0.910542 -0.560181
Zn1   Zn    Zn3+2 0.500000 0.500020 0.653130 0.960329
Zn2   Zn    Zn3+2 0.500000 0.499980 0.346870 0.944193

loop_
_geom_bond_atom_site_label_1
_geom_bond_atom_site_label_2
_ccdc_geom_bond_type
C24   H4    S    
C19   C20   A    
C7    C8    A    
O4    Zn1   S    
C26   C27   A    
C37   C38   A    
C36   C37   A    
C18   C19   A    
C5    C6    A    
C26   H1    S    
N5    Zn2   S    
O5    Zn2   S    
C34   C35   A    
C27   H3    S    
C22   N5    A    
C35   C36   A    
C33   N4    A    
C1    O1    A    
C5    H14   S    
C14   C16   S    
C4    C12   S    
C9    C10   A    
C17   H20   S    
C2    C34   A    
N1    N2    A    
C24   N6    A    
C13   C14   A    
C29   H5    S    
C15   H19   S    
C30   H6    S    
C11   H10   S    
C16   O7    A    
C31   H11   S    
O8    Zn1   S    
C4    O5    A    
C3    H12   S    
C23   N2    A    
C32   C35   S    
C16   O6    A    
C19   H2    S    
C25   O8    A    
C8    C9    A    
C31   O10   D    
C22   H18   S    
C4    O4    A    
C12   C26   A    
C20   N6    A    
C32   H13   S    
C29   C30   A    
C3    C9    A    
C2    C38   A    
C23   N3    A    
C2    C23   S    
C17   C18   A    
C34   H7    S    
C38   H9    S    
C28   C33   S    
O9    Zn2   S    
C22   C24   A    
C6    H15   S    
O6    Zn1   S    
C32   O2    D    
C15   C17   A    
C28   C29   A    
C8    C14   A    
C12   C30   A    
C1    C10   S    
C3    C5    A    
C6    C7    A    
C18   C31   S    
O1    Zn1   S    
C11   C13   A    
O7    Zn2   S    
C1    O3    A    
N6    Zn1   S    
C25   O9    A    
N3    N4    A    
C21   N5    A    
C10   C11   A    
C25   C36   S    
C15   C21   A    
C20   C21   A    
C33   N1    A    
C27   C28   A    
O3    Zn2   S    
C7    H16   S    
C37   H8    S    
C13   H17   S    
