data_mof_unit_57855.cif
_audit_creation_date              2012-10-26T21:00:14-0400
_audit_creation_method            fapswitch 2.2
_symmetry_space_group_name_H-M    P1
_symmetry_Int_Tables_number       1
_space_group_crystal_system       triclinic
_cell_length_a                    19.415941
_cell_length_b                    8.824528
_cell_length_c                    7.398572
_cell_angle_alpha                 102.973494
_cell_angle_beta                  93.838885
_cell_angle_gamma                 92.298149
_cell_volume                      1230.53309921

loop_
_atom_site_label
_atom_site_type_symbol
_atom_type_description
_atom_site_fract_x
_atom_site_fract_y
_atom_site_fract_z
_atom_type_partial_charge
C1    C     C_R   0.497574 0.200374 0.453862 0.534085
C2    C     C_R   0.813307 0.438341 0.328905 0.234071
C3    C     C_R   0.145004 0.501090 0.504277 -0.000696
C4    C     C_R   0.854994 0.498839 0.495721 -0.000701
C5    C     C_R   0.175428 0.432758 0.340237 -0.051609
C6    C     C_R   0.824573 0.567172 0.659766 -0.051613
C7    C     C_R   0.247572 0.425027 0.341348 -0.044804
C8    C     C_R   0.752430 0.574932 0.658654 -0.044801
C9    C     C_R   0.290366 0.490921 0.506364 -0.073910
C10   C     C_R   0.709634 0.509060 0.493634 -0.073909
C11   C     C_R   0.930473 0.498536 0.497128 0.314022
C12   C     C_R   0.502426 0.799626 0.546138 0.534086
C13   C     C_R   0.069524 0.501379 0.502861 0.314014
C14   C     C_1   0.298441 0.614829 0.848166 0.317721
C15   C     C_1   0.701556 0.385182 0.151822 0.317717
C16   C     C_1   0.132211 0.365860 0.170503 0.270994
C17   C     C_1   0.867792 0.634047 0.829502 0.271003
C18   C     C_1   0.276367 0.341629 0.173385 0.267789
C19   C     C_1   0.723639 0.658336 0.826618 0.267793
C20   C     C_1   0.470323 0.948951 0.239470 0.258344
C21   C     C_1   0.529680 0.051049 0.760529 0.258343
C22   C     C_2   0.492889 0.034172 0.427952 -0.076683
C23   C     C_2   0.507112 0.965828 0.572048 -0.076682
C24   C     C_R   0.367131 0.496266 0.502475 0.535292
C25   C     C_R   0.632869 0.503732 0.497525 0.535291
C26   C     C_R   0.258659 0.553992 0.672332 0.005116
C27   C     C_R   0.741338 0.445990 0.327661 0.005111
C28   C     C_R   0.186689 0.561617 0.671091 0.234084
Cu1   Cu    Cu3+1 0.507710 0.517380 0.684380 1.049370
Cu2   Cu    Cu3+1 0.492290 0.482620 0.315620 1.049368
H1    H     H_    0.445155 0.381829 0.948353 0.254747
H2    H     H_    0.554845 0.618171 0.051647 0.254748
H3    H     H_    0.112398 0.664808 0.809563 0.354659
H4    H     H_    0.887584 0.335083 0.190442 0.354644
N1    N     N_R   0.032993 0.571730 0.385426 -0.186564
N2    N     N_1   0.902140 0.687134 0.964680 -0.196300
N3    N     N_1   0.299033 0.274887 0.039400 -0.273568
N4    N     N_1   0.700976 0.725084 0.960605 -0.273571
N5    N     N_1   0.452597 0.882850 0.089048 -0.221501
N6    N     N_1   0.547408 0.117149 0.910950 -0.221506
N7    N     N_R   0.967005 0.428183 0.614561 -0.186574
N8    N     N_R   0.964467 0.570514 0.382755 -0.174498
N9    N     N_R   0.035530 0.429398 0.617232 -0.174533
N10   N     N_2   0.480680 0.456420 0.038530 -0.230200
N11   N     N_2   0.519320 0.543580 0.961470 -0.230199
N12   N     N_1   0.329556 0.662830 0.989838 -0.224325
N13   N     N_1   0.670440 0.337202 0.010146 -0.224332
N14   N     N_1   0.097865 0.312754 0.035328 -0.196316
O1    O     O_R   0.505010 0.286130 0.619770 -0.508981
O2    O     O_3   0.840747 0.368865 0.164216 -0.663671
O3    O     O_R   0.494990 0.713870 0.380230 -0.508982
O4    O     O_R   0.491990 0.256780 0.308370 -0.480851
O5    O     O_R   0.508010 0.743220 0.691630 -0.480849
O6    O     O_R   0.406650 0.514660 0.655750 -0.508037
O7    O     O_R   0.593350 0.485340 0.344250 -0.508038
O8    O     O_R   0.393640 0.485310 0.344340 -0.479966
O9    O     O_R   0.606360 0.514690 0.655660 -0.479964
O10   O     O_3   0.159249 0.631102 0.835776 -0.663679

loop_
_geom_bond_atom_site_label_1
_geom_bond_atom_site_label_2
_ccdc_geom_bond_type
C10   C27   A    
C2    C4    A    
Cu2   O3    S    
C9    C24   S    
Cu2   O8    S    
H3    O10   S    
C17   N2    T    
C28   O10   S    
C24   O8    A    
H2    N11   S    
C15   C27   S    
C12   O5    A    
C3    C13   S    
C15   N13   T    
C7    C18   S    
C16   N14   T    
C1    C22   S    
C14   N12   T    
Cu1   O1    S    
C2    C27   A    
C14   C26   S    
C4    C11   S    
N7    N9    A    
C12   C23   S    
Cu2   N10   S    
Cu1   Cu2   S    
C21   N6    T    
C25   O9    A    
C10   C25   S    
C8    C10   A    
C3    C28   A    
C19   N4    T    
C18   N3    T    
Cu1   O9    S    
C9    C26   A    
C11   N7    A    
C5    C7    A    
C21   C23   S    
C1    O4    A    
H4    O2    S    
C8    C19   S    
H1    N10   S    
C24   O6    A    
C6    C17   S    
C7    C9    A    
C13   N9    A    
C12   O3    A    
N10   N11   D    
C11   N8    A    
C4    C6    A    
Cu2   O7    S    
Cu1   O6    S    
Cu1   N11   S    
N1    N8    A    
C20   N5    T    
Cu2   O4    S    
C22   C23   D    
C5    C16   S    
C6    C8    A    
C2    O2    S    
C3    C5    A    
C26   C28   A    
C13   N1    A    
C25   O7    A    
C20   C22   S    
Cu1   O5    S    
C1    O1    A    
