data_mof_unit_48116.cif
_audit_creation_date              2013-03-05T15:49:45-0500
_audit_creation_method            fapswitch 2.2
_symmetry_space_group_name_H-M    P1
_symmetry_Int_Tables_number       1
_space_group_crystal_system       triclinic
_cell_length_a                    6.934616
_cell_length_b                    20.044628
_cell_length_c                    22.369698
_cell_angle_alpha                 90.0
_cell_angle_beta                  90.001278
_cell_angle_gamma                 90.000256
_cell_volume                      3109.42824287

loop_
_atom_site_label
_atom_site_type_symbol
_atom_site_description
_atom_site_fract_x
_atom_site_fract_y
_atom_site_fract_z
_atom_type_partial_charge
O1    O     O_R   0.620180 0.810610 0.187990 -0.600270
O2    O     O_R   0.379820 0.189390 0.812010 -0.594275
O3    O     O_R   0.379820 0.189390 0.687990 -0.600255
O4    O     O_R   0.620180 0.810610 0.312010 -0.594251
O5    O     O_R   0.120180 0.689390 0.312010 -0.594254
O6    O     O_R   0.879820 0.310610 0.687990 -0.600259
O7    O     O_R   0.879820 0.310610 0.812010 -0.594299
O8    O     O_R   0.120180 0.689390 0.187990 -0.600281
O9    O     O_R   0.290420 0.818570 0.311590 -0.578374
O10   O     O_R   0.709580 0.181430 0.688410 -0.590306
O11   O     O_R   0.709580 0.181430 0.811590 -0.578411
O12   O     O_R   0.290420 0.818570 0.188410 -0.590334
O13   O     O_R   0.790420 0.681430 0.188410 -0.590330
O14   O     O_R   0.209580 0.318570 0.811590 -0.578460
O15   O     O_R   0.209580 0.318570 0.688410 -0.590310
O16   O     O_R   0.790420 0.681430 0.311590 -0.578377
C1    C     C_R   0.459334 0.834659 0.332140 0.960103
C2    C     C_R   0.540652 0.165327 0.667829 0.957909
C3    C     C_R   0.540668 0.165340 0.832139 0.960103
C4    C     C_R   0.459346 0.834674 0.167830 0.957900
C5    C     C_R   0.959346 0.665327 0.167829 0.957909
C6    C     C_R   0.040668 0.334659 0.832140 0.960122
C7    C     C_R   0.040652 0.334673 0.667829 0.957924
C8    C     C_R   0.959333 0.665341 0.332140 0.960112
H1    H     H_    0.769313 0.428013 0.650824 0.158971
H2    H     H_    0.217721 0.567276 0.345379 0.164079
H3    H     H_    0.230774 0.572024 0.150799 0.158990
H4    H     H_    0.782062 0.432664 0.845434 0.163992
H5    H     H_    0.282161 0.067315 0.845408 0.164077
H6    H     H_    0.730752 0.927986 0.150803 0.158974
H7    H     H_    0.717713 0.932728 0.345376 0.164087
H8    H     H_    0.269329 0.071979 0.650829 0.158962
H9    H     H_    0.288417 0.349612 0.576811 0.150543
H10   H     H_    0.724208 0.655422 0.426486 0.157990
H11   H     H_    0.711510 0.650353 0.076828 0.150527
H12   H     H_    0.275978 0.344644 0.926449 0.157939
H13   H     H_    0.775923 0.155370 0.926457 0.157966
H14   H     H_    0.211500 0.849649 0.076835 0.150541
H15   H     H_    0.224217 0.844575 0.426487 0.158003
H16   H     H_    0.788401 0.150396 0.576806 0.150534
O17   O     O_3   0.453640 0.707610 0.250000 -0.267902
O18   O     O_3   0.546360 0.292390 0.750000 -0.267936
O19   O     O_3   0.953640 0.792390 0.250000 -0.267898
O20   O     O_3   0.046360 0.207610 0.750000 -0.267898
V1    V     V_3+5 0.178800 0.757860 0.250000 1.231383
V2    V     V_3+5 0.821200 0.242140 0.750000 1.231334
V3    V     V_3+5 0.678800 0.742140 0.250000 1.231387
V4    V     V_3+5 0.321200 0.257860 0.750000 1.231311
C9    C     C_R   0.170642 0.384840 0.573717 -0.047738
C10   C     C_R   0.833992 0.617107 0.427516 -0.007012
C11   C     C_R   0.829330 0.615146 0.073724 -0.047747
C12   C     C_R   0.166096 0.382924 0.927496 -0.007185
C13   C     C_R   0.666060 0.117083 0.927501 -0.007059
C14   C     C_R   0.329314 0.884859 0.073730 -0.047757
C15   C     C_R   0.333997 0.882891 0.427517 -0.007013
C16   C     C_R   0.670632 0.115165 0.573715 -0.047714
C17   C     C_R   0.030303 0.384171 0.618699 -0.189639
C18   C     C_R   0.969527 0.615841 0.381198 -0.206631
C19   C     C_R   0.969701 0.615830 0.118697 -0.189612
C20   C     C_R   0.030478 0.384160 0.881197 -0.206519
C21   C     C_R   0.530476 0.115838 0.881196 -0.206587
C22   C     C_R   0.469692 0.884173 0.118700 -0.189628
C23   C     C_R   0.469527 0.884159 0.381197 -0.206640
C24   C     C_R   0.530302 0.115829 0.618699 -0.189633
C25   C     C_R   0.877999 0.429960 0.616171 -0.076513
C26   C     C_R   0.116726 0.568087 0.382216 -0.032199
C27   C     C_R   0.122055 0.570064 0.116156 -0.076622
C28   C     C_R   0.883205 0.431887 0.882236 -0.032375
C29   C     C_R   0.383225 0.068104 0.882228 -0.032325
C30   C     C_R   0.622032 0.929945 0.116161 -0.076574
C31   C     C_R   0.616722 0.931915 0.382214 -0.032188
C32   C     C_R   0.378009 0.070037 0.616174 -0.076524
C33   C     C_R   0.867477 0.478142 0.570328 0.019551
C34   C     C_R   0.131774 0.521639 0.429376 0.024218
C35   C     C_R   0.132582 0.521882 0.070314 0.019420
C36   C     C_R   0.868236 0.478355 0.929381 0.024247
C37   C     C_R   0.368202 0.021647 0.929381 0.024254
C38   C     C_R   0.632543 0.978130 0.070320 0.019524
C39   C     C_R   0.631770 0.978364 0.429374 0.024212
C40   C     C_R   0.367489 0.021855 0.570329 0.019554
C41   C     C_R   0.005869 0.476772 0.523673 0.058386
C42   C     C_R   0.993257 0.522994 0.476011 0.022935
C43   C     C_R   0.994162 0.523238 0.023667 0.058287
C44   C     C_R   0.006776 0.477014 0.976007 0.023084
C45   C     C_R   0.506739 0.022991 0.976009 0.023013
C46   C     C_R   0.494125 0.976771 0.023672 0.058339
C47   C     C_R   0.493257 0.977006 0.476010 0.022911
C48   C     C_R   0.505870 0.023229 0.523672 0.058367
C49   C     C_R   0.156804 0.429023 0.524792 0.016832
C50   C     C_R   0.842422 0.570800 0.474955 0.008540
C51   C     C_R   0.843195 0.570973 0.024793 0.016921
C52   C     C_R   0.157631 0.429221 0.974942 0.008596
C53   C     C_R   0.657594 0.070786 0.974946 0.008532
C54   C     C_R   0.343161 0.929036 0.024801 0.016869
C55   C     C_R   0.342428 0.929198 0.474956 0.008532
C56   C     C_R   0.656794 0.070981 0.524790 0.016831
C57   C     C_R   0.719336 0.526695 0.569705 0.185231
C58   C     C_R   0.280615 0.473349 0.430258 0.210508
C59   C     C_R   0.280734 0.473334 0.069686 0.185140
C60   C     C_R   0.719437 0.526651 0.930257 0.210615
C61   C     C_R   0.219359 0.973361 0.930266 0.210549
C62   C     C_R   0.780683 0.026681 0.069694 0.185174
C63   C     C_R   0.780607 0.026657 0.430256 0.210493
C64   C     C_R   0.219357 0.973300 0.569708 0.185280
C65   C     C_R   0.706322 0.572616 0.522056 0.204213
C66   C     C_R   0.292589 0.427037 0.477621 0.181774
C67   C     C_R   0.293728 0.427413 0.022039 0.204269
C68   C     C_R   0.707431 0.572960 0.977615 0.181583
C69   C     C_R   0.207369 0.927054 0.977631 0.181673
C70   C     C_R   0.793681 0.072600 0.022046 0.204252
C71   C     C_R   0.792573 0.072969 0.477618 0.181804
C72   C     C_R   0.206335 0.927381 0.522057 0.204202
N1    N     N_R   0.581760 0.530161 0.617654 0.256418
O21   O     O_R   0.397831 0.529502 0.606228 -0.348837
O22   O     O_R   0.639836 0.541863 0.671965 -0.294926
N2    N     N_R   0.416773 0.469312 0.382018 0.260118
O23   O     O_R   0.433431 0.414436 0.351394 -0.230874
O24   O     O_R   0.535451 0.518276 0.371941 -0.381931
N3    N     N_R   0.418304 0.469856 0.117635 0.256375
O25   O     O_R   0.602228 0.470465 0.106208 -0.348831
O26   O     O_R   0.360222 0.458169 0.171946 -0.295090
N4    N     N_R   0.583496 0.530755 0.881970 0.260174
O27   O     O_R   0.568184 0.585502 0.851069 -0.230955
O28   O     O_R   0.464140 0.481958 0.871983 -0.381726
N5    N     N_R   0.083282 0.969300 0.882008 0.260135
O29   O     O_R   0.067013 0.914456 0.851310 -0.230857
O30   O     O_R   0.964423 0.018217 0.871945 -0.381936
N6    N     N_R   0.918243 0.030162 0.117646 0.256379
O31   O     O_R   0.102169 0.029552 0.106223 -0.348813
O32   O     O_R   0.860147 0.041849 0.171955 -0.295095
N7    N     N_R   0.916770 0.030693 0.382017 0.260115
O33   O     O_R   0.933462 0.085574 0.351402 -0.230872
O34   O     O_R   0.035419 0.981723 0.371932 -0.381930
N8    N     N_R   0.081795 0.969833 0.617657 0.256427
O35   O     O_R   0.897869 0.970522 0.606236 -0.348880
O36   O     O_R   0.139871 0.958106 0.671963 -0.294986
N9    N     N_R   0.558788 0.622896 0.523299 0.256672
O37   O     O_R   0.547292 0.663888 0.568251 -0.245250
O38   O     O_R   0.426983 0.624527 0.481967 -0.399218
N10   N     N_R   0.443317 0.377838 0.477236 0.255270
O39   O     O_R   0.622506 0.395996 0.471625 -0.353257
O40   O     O_R   0.400130 0.314696 0.475418 -0.296262
N11   N     N_R   0.441165 0.377107 0.023304 0.256728
O41   O     O_R   0.452080 0.335957 0.068161 -0.245302
O42   O     O_R   0.573254 0.375529 0.982057 -0.399208
N12   N     N_R   0.556774 0.622185 0.977188 0.255189
O43   O     O_R   0.377594 0.604065 0.971452 -0.353002
O44   O     O_R   0.600066 0.685322 0.975427 -0.296306
N13   N     N_R   0.056668 0.877845 0.977233 0.255241
O45   O     O_R   0.877484 0.895985 0.971560 -0.353141
O46   O     O_R   0.099899 0.814705 0.975448 -0.296288
N14   N     N_R   0.941120 0.122906 0.023311 0.256717
O47   O     O_R   0.952102 0.164035 0.068183 -0.245279
O48   O     O_R   0.073173 0.124496 0.982052 -0.399134
N15   N     N_R   0.943294 0.122169 0.477233 0.255279
O49   O     O_R   0.122486 0.104011 0.471646 -0.353290
O50   O     O_R   0.900106 0.185310 0.475398 -0.296223
N16   N     N_R   0.058794 0.877104 0.523300 0.256665
O51   O     O_R   0.047262 0.836121 0.568256 -0.245255
O52   O     O_R   0.927017 0.875466 0.481959 -0.399225

loop_
_geom_bond_atom_site_label_1
_geom_bond_atom_site_label_2
_geom_bond_distance
_ccdc_geom_bond_type
C47   C48   1.415203 A    
C48   C56   1.418517 A    
O9    V1    1.994528 S    
C30   C38   1.410569 A    
C29   C37   1.410898 A    
C2    C24   1.482366 S    
N6    O31   1.300863 A    
C36   C44   1.418274 A    
C31   C39   1.410899 A    
C41   C42   1.415203 A    
C25   C33   1.410581 A    
H8    C32   1.081898 S    
C45   C46   1.415204 A    
C33   C57   1.415185 A    
N9    O38   1.300507 A    
O11   C3    1.298992 A    
C72   N16   1.436386 S    
C40   C64   1.415156 A    
H4    C28   1.081627 S    
N10   O40   1.301250 A    
N12   O43   1.300882 A    
C70   N14   1.436302 S    
C55   C72   1.414998 A    
N13   O46   1.301254 A    
C6    C20   1.481142 S    
C3    C21   1.481142 S    
N15   O50   1.301239 A    
C61   C69   1.411067 A    
N11   O41   1.301143 A    
C26   C34   1.410900 A    
N11   O42   1.300544 A    
O3    V4    1.993260 S    
C9    C17   1.399938 A    
N2    O23   1.300992 A    
C22   C30   1.400360 A    
O3    C2    1.296138 A    
C63   C71   1.411077 A    
O18   V2    2.155702 S    
C33   C41   1.418115 A    
O8    V1    1.993245 S    
C46   C54   1.418488 A    
C19   C27   1.400374 A    
C45   C53   1.418702 A    
C18   C26   1.399550 A    
H15   C15   1.081646 S    
C58   N2    1.436176 S    
O20   V2    1.707932 S    
H16   C16   1.081881 S    
C47   C55   1.418763 A    
C49   C66   1.414828 A    
O10   V2    1.994530 S    
C61   N5    1.436114 S    
C16   C24   1.399936 A    
C58   C66   1.411081 A    
C12   C20   1.399173 A    
H5    C29   1.081576 S    
H12   C12   1.081649 S    
O6    V2    1.993257 S    
C53   C70   1.414913 A    
C41   C49   1.418533 A    
C38   C46   1.418074 A    
O15   C7    1.299388 A    
C37   C45   1.418300 A    
O16   C8    1.298986 A    
N16   O52   1.300504 A    
C39   C63   1.415172 A    
C13   C21   1.399131 A    
O15   V4    1.994534 S    
C34   C42   1.418362 A    
O16   V3    1.994532 S    
C39   C47   1.418363 A    
H6    C30   1.081877 S    
C10   C50   1.411066 A    
N12   O44   1.301260 A    
N3    O26   1.301215 A    
C56   C71   1.414818 A    
C60   C68   1.410981 A    
H10   C10   1.081647 S    
C13   C53   1.411054 A    
H2    C26   1.081596 S    
O7    V2    1.993243 S    
H1    C25   1.081898 S    
N10   O39   1.300882 A    
C15   C55   1.411065 A    
C17   C25   1.400382 A    
O13   V3    1.994557 S    
O1    V3    1.993247 S    
O14   V4    1.994556 S    
C14   C22   1.399911 A    
O2    V4    1.993245 S    
O5    V1    1.993256 S    
C32   C40   1.410581 A    
C15   C23   1.399154 A    
C10   C18   1.399153 A    
C69   N13   1.437064 S    
H13   C13   1.081635 S    
C4    C22   1.482373 S    
C52   C67   1.414904 A    
C66   N10   1.437059 S    
C43   C44   1.415210 A    
H14   C14   1.081856 S    
O12   C4    1.299393 A    
C35   C59   1.415161 A    
O8    C5    1.296130 A    
O17   V3    1.707927 S    
O13   C5    1.299401 A    
H3    C27   1.081875 S    
O18   V4    1.707927 S    
C28   C36   1.410871 A    
N5    O30   1.300569 A    
O19   V1    1.707933 S    
C64   N8    1.437153 S    
O4    C1    1.295881 A    
O9    C1    1.298986 A    
C23   C31   1.399551 A    
H11   C11   1.081858 S    
N5    O29   1.301075 A    
C12   C52   1.411065 A    
C27   C35   1.410568 A    
C57   N1    1.437193 S    
N7    O33   1.300991 A    
N4    O28   1.300639 A    
C59   C67   1.411168 A    
C64   C72   1.411208 A    
N1    O21   1.300894 A    
N14   O48   1.300557 A    
C21   C29   1.399540 A    
C7    C17   1.482369 S    
O1    C4    1.296139 A    
C34   C58   1.415171 A    
O2    C3    1.295879 A    
C51   C68   1.414826 A    
C50   C65   1.415014 A    
C9    C49   1.411152 A    
O12   V1    1.994553 S    
N7    O34   1.300529 A    
N6    O32   1.301212 A    
N8    O36   1.301223 A    
N3    O25   1.300864 A    
C5    C19   1.482375 S    
N8    O35   1.300861 A    
C36   C60   1.415034 A    
O7    C6    1.295876 A    
C43   C51   1.418515 A    
N9    O37   1.301019 A    
C54   C69   1.414804 A    
C62   N6    1.437154 S    
C42   C50   1.418765 A    
O14   C6    1.298996 A    
C65   N9    1.436401 S    
C63   N7    1.436178 S    
C57   C65   1.411212 A    
C40   C48   1.418098 A    
C68   N12   1.437074 S    
N13   O45   1.300886 A    
C1    C23   1.481135 S    
C35   C43   1.418063 A    
N16   O51   1.301014 A    
O5    C8    1.295879 A    
O19   V3    2.155693 S    
O10   C2    1.299387 A    
O6    C7    1.296137 A    
H7    C31   1.081598 S    
N2    O24   1.300528 A    
C37   C61   1.415112 A    
C60   N4    1.436017 S    
C24   C32   1.400371 A    
C16   C56   1.411154 A    
C67   N11   1.436289 S    
C14   C54   1.411151 A    
C62   C70   1.411162 A    
C59   N3    1.437157 S    
C11   C19   1.399919 A    
N14   O47   1.301164 A    
C20   C28   1.399571 A    
C8    C18   1.481138 S    
H9    C9    1.081876 S    
N15   O49   1.300854 A    
C11   C51   1.411141 A    
O17   V1    2.155701 S    
O11   V2    1.994552 S    
C38   C62   1.415145 A    
C44   C52   1.418688 A    
N4    O27   1.301288 A    
C71   N15   1.437037 S    
O20   V4    2.155694 S    
N1    O22   1.301248 A    
O4    V3    1.993258 S    
