data_mof_unit_36409.cif
_audit_creation_date              2013-03-05T15:56:13-0500
_audit_creation_method            fapswitch 2.2
_symmetry_space_group_name_H-M    P1
_symmetry_Int_Tables_number       1
_space_group_crystal_system       triclinic
_cell_length_a                    12.354315
_cell_length_b                    13.398583
_cell_length_c                    19.333688
_cell_angle_alpha                 75.422445
_cell_angle_beta                  101.772715
_cell_angle_gamma                 117.166977
_cell_volume                      2740.79574452

loop_
_atom_site_label
_atom_site_type_symbol
_atom_site_description
_atom_site_fract_x
_atom_site_fract_y
_atom_site_fract_z
_atom_type_partial_charge
O1    O     O_R   0.972510 0.318130 0.520450 -0.607614
O2    O     O_R   0.806530 0.359650 0.492990 -0.569374
C1    C     C_R   0.854310 0.286501 0.509718 0.828486
O3    O     O_R   0.083010 0.479220 0.613590 -0.601318
O4    O     O_R   0.917030 0.520740 0.586130 -0.568008
C2    C     C_R   0.000180 0.499301 0.632629 0.821434
Cu1   Cu    Cu3+1 0.098280 0.475420 0.516260 0.985463
Cu2   Cu    Cu3+1 0.901720 0.524580 0.483740 1.052017
O5    O     O_R   0.193470 0.640350 0.507010 -0.556413
O6    O     O_R   0.027490 0.681870 0.479550 -0.506712
O7    O     O_R   0.082970 0.479260 0.413870 -0.557219
O8    O     O_R   0.916990 0.520780 0.386410 -0.492152
C3    C     C_R   0.144838 0.712574 0.495933 0.873856
C4    C     C_R   0.993798 0.491817 0.367978 0.929931
C5    C     C_R   0.065168 0.443065 0.760819 -0.320067
H1    H     H_    0.114390 0.405166 0.744229 0.210410
C6    C     C_R   0.067244 0.437153 0.834228 0.463846
C7    C     C_R   0.999592 0.480911 0.857569 -0.205228
C8    C     C_R   0.932284 0.532745 0.806440 0.348927
C9    C     C_R   0.936542 0.544378 0.732586 0.367073
C10   C     C_R   0.000491 0.496185 0.709517 -0.258313
N1    N     N_R   0.991168 0.376838 0.982650 -0.163258
N2    N     N_R   0.985027 0.368421 0.052012 -0.160368
C11   C     C_R   0.986958 0.456156 0.075990 0.444193
N3    N     N_R   0.997568 0.553064 0.028435 -0.166202
N4    N     N_R   0.003352 0.561322 0.959230 -0.165559
C12   C     C_R   0.999109 0.473050 0.934906 0.441183
C13   C     C_R   0.035795 0.399352 0.207870 0.470272
C14   C     C_R   0.036246 0.409769 0.278695 -0.406424
H2    H     H_    0.079867 0.368689 0.322445 0.189432
C15   C     C_R   0.978318 0.470145 0.293465 -0.255451
C16   C     C_R   0.898803 0.500304 0.237956 0.424098
C17   C     C_R   0.896385 0.489983 0.166891 0.356242
C18   C     C_R   0.971206 0.445956 0.151375 -0.188501
C19   C     C_R   0.266991 0.034052 0.460148 0.459385
C20   C     C_R   0.226386 0.834003 0.497744 -0.182855
C21   C     C_R   0.811807 0.092426 0.578281 -0.273384
C22   C     C_R   0.729241 0.985319 0.610378 0.362900
C23   C     C_R   0.603762 0.950703 0.589343 -0.255141
C24   C     C_R   0.560649 0.017050 0.532140 -0.008854
C25   C     C_R   0.645115 0.123556 0.498723 -0.090084
C26   C     C_R   0.434897 0.980580 0.507382 -0.016596
C27   C     C_R   0.392766 0.060687 0.464666 -0.189288
C28   C     C_R   0.477134 0.162878 0.427389 0.282122
C29   C     C_R   0.601231 0.185338 0.438142 0.407024
C30   C     C_R   0.350983 0.865805 0.519424 -0.265618
C31   C     C_R   0.181911 0.918428 0.478245 0.393572
C32   C     C_R   0.770632 0.164182 0.525340 -0.133325
H3    H     H_    0.382768 0.800063 0.541212 0.190019
H4    H     H_    0.907990 0.122909 0.597853 0.201039
H5    H     H_    0.540393 0.871486 0.617923 0.180190
C33   C     C_R   0.353774 0.342884 0.627449 0.223838
H6    H     H_    0.174066 0.325307 0.634896 0.195128
H7    H     H_    0.553258 0.299691 0.646490 0.193868
N5    N     N_R   0.246290 0.438200 0.540910 -0.260950
C34   C     C_R   0.753946 0.646901 0.401323 0.318733
C35   C     C_R   0.670641 0.694757 0.393452 0.057572
C36   C     C_R   0.585883 0.652673 0.442861 0.381688
C37   C     C_R   0.564138 0.547897 0.489312 -0.116176
C38   C     C_R   0.658174 0.509580 0.502321 0.187775
C39   C     C_R   0.454989 0.483143 0.525225 -0.105418
C40   C     C_R   0.455317 0.399293 0.586607 -0.038918
C41   C     C_R   0.553358 0.368529 0.602893 -0.192079
C42   C     C_R   0.649662 0.419240 0.560074 -0.074416
C43   C     C_R   0.342015 0.492757 0.499776 0.654370
C44   C     C_R   0.251034 0.365560 0.603318 -0.131710
N6    N     N_R   0.754310 0.561190 0.459520 -0.262941
H8    H     H_    0.716192 0.385535 0.574587 0.178815
N7    N     N_R   0.437180 0.236386 0.372084 0.161636
O9    O     O_R   0.489668 0.345828 0.370656 -0.424265
O10   O     O_R   0.355559 0.195486 0.319913 -0.340811
O11   O     O_3   0.228230 0.120014 0.440212 -0.564563
C45   C     C_3   0.250104 0.170349 0.500449 -0.297259
H9    H     H_    0.349813 0.216631 0.515373 0.173314
H10   H     H_    0.205299 0.106149 0.547202 0.187391
H11   H     H_    0.210276 0.232943 0.486448 0.177705
N8    N     N_R   0.772377 0.913458 0.665861 0.124094
O12   O     O_R   0.888653 0.946856 0.686777 -0.342927
O13   O     O_R   0.696213 0.812601 0.694592 -0.354853
O14   O     O_3   0.676702 0.262247 0.386352 -0.555843
C46   C     C_3   0.699491 0.199900 0.346488 -0.305104
H12   H     H_    0.613514 0.146123 0.316729 0.195321
H13   H     H_    0.744441 0.146370 0.380878 0.165361
H14   H     H_    0.763303 0.260225 0.306547 0.172012
N9    N     N_R   0.353822 0.264678 0.693751 0.125751
O15   O     O_R   0.446674 0.292857 0.742635 -0.369228
O16   O     O_R   0.253511 0.174923 0.710489 -0.330622
O17   O     O_3   0.131410 0.383670 0.883274 -0.530921
C47   C     C_3   0.255531 0.462062 0.889948 -0.210707
H15   H     H_    0.267215 0.538815 0.908739 0.152007
H16   H     H_    0.296635 0.487542 0.838519 0.161353
H17   H     H_    0.306517 0.420325 0.930860 0.200420
O18   O     O_3   0.323349 0.551905 0.432366 -0.498418
C48   C     C_3   0.316650 0.492153 0.379910 -0.198694
H18   H     H_    0.407749 0.502687 0.372004 0.180186
H19   H     H_    0.255612 0.399640 0.393053 0.124627
H20   H     H_    0.280316 0.529146 0.327937 0.190609
N10   N     N_R   0.831069 0.685342 0.344595 0.189650
O19   O     O_R   0.782596 0.699075 0.278519 -0.267473
O20   O     O_R   0.948451 0.742228 0.356613 -0.315674
O21   O     O_3   0.523965 0.715201 0.444735 -0.493499
C49   C     C_3   0.601616 0.805325 0.481326 -0.225482
H21   H     H_    0.696573 0.850660 0.465510 0.135570
H22   H     H_    0.603549 0.773178 0.540215 0.171029
H23   H     H_    0.563874 0.869096 0.466718 0.203133
N11   N     N_R   0.670569 0.786917 0.335499 0.175081
O22   O     O_R   0.772111 0.873731 0.317298 -0.335182
O23   O     O_R   0.567393 0.787015 0.302978 -0.279194
O24   O     O_3   0.864771 0.575817 0.828291 -0.535064
C50   C     C_3   0.743844 0.490570 0.832716 -0.120191
H24   H     H_    0.740601 0.413469 0.872726 0.127940
H25   H     H_    0.699590 0.467083 0.779333 0.200296
H26   H     H_    0.689835 0.524504 0.850970 0.194589
O25   O     O_3   0.871024 0.596598 0.683542 -0.563342
C51   C     C_3   0.947524 0.714192 0.666962 -0.077471
H27   H     H_    0.029902 0.730022 0.643040 0.121073
H28   H     H_    0.975112 0.754788 0.715210 0.204282
H29   H     H_    0.895834 0.755686 0.626445 0.203222
O26   O     O_3   0.090979 0.338270 0.192826 -0.539007
C52   C     C_3   0.215457 0.380244 0.220126 -0.174631
H30   H     H_    0.225479 0.342201 0.277695 0.191330
H31   H     H_    0.261604 0.475222 0.211603 0.132612
H32   H     H_    0.263092 0.353048 0.191007 0.215780
O27   O     O_3   0.828327 0.546112 0.252756 -0.503331
C53   C     C_3   0.702212 0.473233 0.242297 -0.025037
H33   H     H_    0.680968 0.383694 0.240806 0.098175
H34   H     H_    0.660537 0.509486 0.192083 0.179821
H35   H     H_    0.657391 0.470510 0.287233 0.221577
O28   O     O_3   0.826196 0.531151 0.112783 -0.518115
C54   C     C_3   0.727698 0.439706 0.083663 -0.264165
H36   H     H_    0.692210 0.359065 0.123672 0.126264
H37   H     H_    0.753943 0.423678 0.037398 0.182912
H38   H     H_    0.651046 0.464353 0.062972 0.191374
O29   O     O_3   0.061378 0.885512 0.489300 -0.613599
C55   C     C_3   0.000773 0.939524 0.434911 -0.073321
H39   H     H_    0.030842 0.957141 0.380833 0.220630
H40   H     H_    0.009501 0.018043 0.449430 0.171422
H41   H     H_    0.902241 0.881547 0.432774 0.169480

loop_
_geom_bond_atom_site_label_1
_geom_bond_atom_site_label_2
_geom_bond_distance
_ccdc_geom_bond_type
C55   H41   1.104121 S    
C23   H5    1.080409 S    
O21   C49   1.405058 S    
C6    O17   1.382405 S    
C45   H9    1.110271 S    
C16   O27   1.376500 S    
C8    C9    1.406050 A    
Cu1   N5    2.043757 S    
C4    C15   1.497888 S    
C19   C31   1.420380 A    
C46   H14   1.106103 S    
O25   C51   1.409993 S    
Cu1   Cu2   2.712054 S    
N9    O15   1.301304 A    
C28   C29   1.401576 A    
Cu1   O7    1.939579 S    
C30   H3    1.081258 S    
N4    C12   1.354992 A    
C21   C22   1.399401 A    
C49   H23   1.102659 S    
C42   H8    1.067388 S    
C13   C14   1.409589 A    
C46   H12   1.113041 S    
N7    O9    1.300047 A    
O4    C2    1.307126 A    
O7    C4    1.313176 A    
N11   O22   1.300831 A    
C51   H27   1.113656 S    
C1    C32   1.475472 S    
C34   C35   1.408225 A    
C20   C31   1.411368 A    
C5    C6    1.397008 A    
C7    C8    1.413268 A    
C26   C30   1.398674 A    
N7    O10   1.301176 A    
O5    C3    1.310495 A    
C50   H24   1.113444 S    
C46   H13   1.112590 S    
C38   N6    1.391602 A    
C51   H28   1.112900 S    
C53   H35   1.106637 S    
N2    C11   1.357019 A    
C20   C30   1.397997 A    
C34   N10   1.438730 S    
C47   H16   1.113512 S    
C14   H2    1.076718 S    
C19   C27   1.415411 A    
C52   H32   1.109205 S    
C48   H19   1.111646 S    
C24   C26   1.415116 A    
C35   N11   1.443705 S    
C13   C18   1.405588 A    
C37   C38   1.427200 A    
C55   H40   1.109020 S    
C45   H10   1.114154 S    
C49   H21   1.113946 S    
O3    Cu1   1.944484 S    
N5    C43   1.366431 A    
C52   H31   1.114391 S    
C17   C18   1.411585 A    
N8    O13   1.301684 A    
C37   C39   1.436543 A    
N9    O16   1.301371 A    
C55   H39   1.114016 S    
C11   N3    1.356925 A    
C3    C20   1.476736 S    
O3    C2    1.307682 A    
C23   C24   1.412147 A    
O14   C46   1.413689 S    
C48   H20   1.106914 S    
C36   C37   1.403189 A    
N8    O12   1.301677 A    
C2    C10   1.475839 S    
O6    C3    1.305731 A    
C11   C18   1.473763 S    
O1    C1    1.307887 A    
C54   H37   1.109037 S    
C27   C28   1.409661 A    
C40   C41   1.403955 A    
C15   C16   1.412113 A    
Cu2   O8    1.944483 S    
C51   H29   1.109659 S    
C6    C7    1.407305 A    
C28   N7    1.433681 S    
C36   O21   1.378469 S    
O17   C47   1.409962 S    
C47   H17   1.109423 S    
C49   H22   1.110760 S    
H6    C44   1.081957 S    
C50   H26   1.109224 S    
C24   C25   1.412072 A    
C9    O25   1.383407 S    
O8    C4    1.312205 A    
C19   O11   1.381794 S    
C48   H18   1.106450 S    
N10   O20   1.296237 A    
N1    C12   1.358648 A    
C31   O29   1.392953 S    
C53   H33   1.111645 S    
C45   H11   1.107671 S    
C54   H38   1.109208 S    
C26   C27   1.411922 A    
N5    C44   1.355959 A    
C33   C44   1.400081 A    
C52   H30   1.108941 S    
O28   C54   1.416019 S    
C17   O28   1.388047 S    
Cu1   O5    1.952454 S    
C33   N9    1.437096 S    
O1    Cu1   1.958938 S    
O2    Cu2   1.952454 S    
C7    C12   1.473296 S    
O11   C45   1.408779 S    
C13   O26   1.389038 S    
O4    Cu2   1.939581 S    
O26   C52   1.410059 S    
O29   C55   1.407306 S    
C22   N8    1.441214 S    
C34   N6    1.391778 A    
O18   C48   1.410777 S    
C38   C42   1.405097 A    
C16   C17   1.408144 A    
C54   H36   1.114942 S    
N3    N4    1.328483 A    
C14   C15   1.405863 A    
C33   C40   1.416499 A    
O24   C50   1.410177 S    
C21   C32   1.403403 A    
C21   H4    1.083107 S    
C35   C36   1.387372 A    
C22   C23   1.401705 A    
C8    O24   1.383219 S    
N11   O23   1.301608 A    
C43   O18   1.379896 S    
C25   C32   1.417846 A    
O2    C1    1.305549 A    
C29   O14   1.384912 S    
C39   C40   1.414780 A    
C50   H25   1.113227 S    
C41   C42   1.393953 A    
C39   C43   1.434826 A    
C5    C10   1.403346 A    
C9    C10   1.412339 A    
Cu2   N6    2.031897 S    
Cu2   O6    1.958939 S    
N10   O19   1.301766 A    
H7    C41   1.081298 S    
C53   H34   1.109308 S    
C25   C29   1.419037 A    
N1    N2    1.332070 A    
C47   H15   1.114233 S    
C5    H1    1.083561 S    
O27   C53   1.415443 S    
