data_mof_unit_66810.cif
_audit_creation_date              2013-03-05T15:41:26-0500
_audit_creation_method            fapswitch 2.2
_symmetry_space_group_name_H-M    P1
_symmetry_Int_Tables_number       1
_space_group_crystal_system       triclinic
_cell_length_a                    8.41175
_cell_length_b                    14.922897
_cell_length_c                    15.411688
_cell_angle_alpha                 96.949476
_cell_angle_beta                  100.353401
_cell_angle_gamma                 97.527467
_cell_volume                      1865.8577817

loop_
_atom_site_label
_atom_site_type_symbol
_atom_site_description
_atom_site_fract_x
_atom_site_fract_y
_atom_site_fract_z
_atom_type_partial_charge
P1    P     P_3+3 0.004160 0.709210 0.580280 0.513247
O1    O     O_2   0.174040 0.723040 0.553850 -0.357235
O2    O     O_3   0.901550 0.609570 0.550800 -0.321671
O3    O     O_3   0.370320 0.665070 0.388210 -0.362095
O4    O     O_2   0.287337 0.820969 0.451443 -0.421980
O5    O     O_3   0.090967 0.717036 0.693800 -0.527621
O6    O     O_3   0.356704 0.809108 0.291628 -0.577459
H1    H     H_    0.214623 0.682511 0.243587 0.170772
C1    C     C_3   0.294485 0.740207 0.134324 -0.923796
H2    H     H_    0.180981 0.696187 0.096131 0.283795
H3    H     H_    0.287535 0.812566 0.128032 0.287145
P2    P     P_3+3 0.305010 0.425580 0.290930 0.500790
P3    P     P_3+3 0.876333 0.612818 0.222918 0.480391
O7    O     O_2   0.134800 0.452800 0.278160 -0.358529
O8    O     O_3   0.937630 0.618610 0.340820 -0.305193
O9    O     O_2   0.974686 0.543306 0.183468 -0.383993
O10   O     O_3   0.259589 0.307017 0.263167 -0.560371
O11   O     O_3   0.946677 0.711581 0.176867 -0.563828
C2    C     C_3   0.901920 0.798836 0.204360 0.470944
C3    C     C_3   0.970185 0.867197 0.141664 0.422705
H4    H     H_    0.095844 0.899943 0.173442 0.021470
C4    C     C_3   0.723820 0.337810 0.263399 0.307332
H5    H     H_    0.609194 0.356957 0.280272 0.104563
H6    H     H_    0.826052 0.395960 0.283770 0.166449
C5    C     C_3   0.697986 0.311366 0.163096 -0.758231
H7    H     H_    0.591797 0.255974 0.139505 0.268813
H8    H     H_    0.674375 0.371053 0.129562 0.236389
H9    H     H_    0.809147 0.287500 0.145190 0.286695
Ba1   Ba    Ba6+2 0.154720 0.543770 0.458160 1.627626
C6    C     C_3   0.999414 0.759099 0.749374 0.503926
H10   H     H_    0.868628 0.734870 0.723483 0.056994
C7    C     C_3   0.039668 0.863992 0.760773 -0.951265
H11   H     H_    0.172483 0.886373 0.770389 0.279255
H12   H     H_    0.998245 0.896206 0.819879 0.285807
H13   H     H_    0.978392 0.891298 0.703108 0.249612
C8    C     C_3   0.235222 0.266747 0.338005 0.346349
H14   H     H_    0.124663 0.286831 0.359816 0.054208
H15   H     H_    0.342129 0.287113 0.393844 0.124579
C9    C     C_3   0.210498 0.162864 0.312740 -0.477654
H16   H     H_    0.087395 0.140331 0.270804 0.260821
H17   H     H_    0.212969 0.131608 0.374707 0.148044
P4    P     P_3+3 0.806120 0.290780 0.419650 0.480060
O12   O     O_2   0.636250 0.276900 0.446120 -0.377981
O13   O     O_3   0.908740 0.390420 0.449120 -0.368769
O14   O     O_3   0.439970 0.334920 0.611710 -0.390319
O15   O     O_3   0.761320 0.262185 0.303408 -0.584340
P5    P     P_3+3 0.925115 0.380661 0.774090 0.493020
O16   O     O_3   0.402050 0.547860 0.609740 -0.388242
O17   O     O_3   0.872650 0.381380 0.659100 -0.349707
O18   O     O_2   0.813355 0.439048 0.817628 -0.332579
O19   O     O_3   0.857010 0.270505 0.792709 -0.552530
Ba2   Ba    Ba6+2 0.655440 0.456220 0.541760 1.631523
P6    P     P_3+3 0.413526 0.784227 0.400955 0.423552
C10   C     C_3   0.323127 0.725768 0.231894 0.431470
H18   H     H_    0.424899 0.686296 0.242311 0.086868
H19   H     H_    0.394401 0.719354 0.102549 0.248241
O20   O     O_3   0.408230 0.452130 0.390190 -0.358821
C11   C     C_3   0.546877 0.737560 0.688885 0.351330
H20   H     H_    0.621783 0.704901 0.646052 0.014770
H21   H     H_    0.426677 0.737866 0.647464 0.146528
C12   C     C_3   0.631660 0.835640 0.725716 -0.556518
H22   H     H_    0.722997 0.834038 0.786827 0.232144
H23   H     H_    0.696416 0.863644 0.675856 0.199030
P7    P     P_3+3 0.497925 0.571711 0.723123 0.537707
O21   O     O_2   0.675480 0.547140 0.721810 -0.339585
O22   O     O_3   0.528598 0.689631 0.760062 -0.520656
C13   C     C_3   0.958825 0.208818 0.766786 0.801868
H24   H     H_    0.043931 0.236272 0.725191 -0.076246
C14   C     C_3   0.060171 0.184841 0.850892 -0.836763
H25   H     H_    0.979679 0.160972 0.895973 0.284023
H26   H     H_    0.128072 0.129458 0.831990 0.274378
H27   H     H_    0.148375 0.245257 0.886998 0.228664
P8    P     P_3+3 0.388858 0.215860 0.601064 0.485841
C15   C     C_3   0.474016 0.238277 0.774029 0.177840
H28   H     H_    0.349457 0.251625 0.780463 0.019018
O23   O     O_2   0.482855 0.175383 0.532499 -0.342938
O24   O     O_3   0.466200 0.173090 0.698821 -0.499469
H29   H     H_    0.547955 0.303577 0.767412 0.157112
C16   C     C_3   0.557494 0.203320 0.858691 0.368313
H30   H     H_    0.650566 0.161713 0.841030 0.116815
C17   C     C_R   0.626275 0.833869 0.463610 0.201668
H31   H     H_    0.661209 0.705693 0.507385 0.193184
H32   H     H_    0.483178 0.969818 0.397358 0.168279
C18   C     C_R   0.886710 0.797983 0.537590 0.211370
C19   C     C_R   0.073913 0.235440 0.521650 -0.501051
C20   C     C_R   0.170815 0.174893 0.556610 0.232989
C21   C     C_R   0.106199 0.082923 0.551523 -0.315553
C22   C     C_R   0.941710 0.048588 0.509799 0.093647
C23   C     C_R   0.846450 0.110514 0.469031 0.032823
C24   C     C_R   0.869371 0.954807 0.506606 0.129121
C25   C     C_R   0.700127 0.926128 0.467146 -0.019738
C26   C     C_R   0.610898 0.988955 0.428448 -0.196281
C27   C     C_R   0.684721 0.077191 0.425864 -0.067970
C28   C     C_R   0.960999 0.887706 0.538497 -0.350451
C29   C     C_R   0.719121 0.774063 0.504830 -0.368332
C30   C     C_R   0.914266 0.204858 0.475206 0.260447
H33   H     H_    0.090144 0.902799 0.564661 0.163239
H34   H     H_    0.127037 0.306349 0.526237 0.162227
H35   H     H_    0.187948 0.040259 0.580461 0.157091
H36   H     H_    0.610784 0.119757 0.391493 0.149763
C31   C     C_R   0.244190 0.453691 0.765260 -0.486279
C32   C     C_R   0.143422 0.424487 0.822341 0.189618
C33   C     C_R   0.203952 0.437486 0.915053 -0.282280
C34   C     C_R   0.360980 0.488571 0.953251 0.031074
C35   C     C_R   0.448636 0.530517 0.893049 0.219653
C36   C     C_R   0.395237 0.508116 0.799655 0.171003
C37   C     C_R   0.598558 0.535527 0.088295 -0.217190
C38   C     C_R   0.660662 0.558100 0.179544 0.088812
C39   C     C_R   0.407549 0.482421 0.209483 0.123122
C40   C     C_R   0.338663 0.468835 0.117025 -0.278601
C41   C     C_R   0.431188 0.499401 0.053872 0.126987
C42   C     C_R   0.563496 0.533249 0.239444 -0.019864
H37   H     H_    0.686476 0.543484 0.046270 0.226793
H38   H     H_    0.123922 0.409953 0.955912 0.182943
H39   H     H_    0.215114 0.433062 0.096257 0.181879
H40   H     H_    0.197253 0.442880 0.694015 0.177344
C43   C     C_3   0.040654 0.730104 0.841649 -0.273180
C44   C     C_3   0.067750 0.631538 0.839019 -0.680582
H41   H     H_    0.973996 0.586646 0.786897 0.275537
H42   H     H_    0.063963 0.609597 0.905041 0.257564
H43   H     H_    0.189874 0.626590 0.823546 0.224881
H44   H     H_    0.153950 0.773141 0.881975 0.248032
H45   H     H_    0.936140 0.739490 0.873905 0.263975
C45   C     C_3   0.343963 0.130207 0.265245 -0.287778
C46   C     C_3   0.298856 0.118825 0.163530 -0.569344
H46   H     H_    0.204166 0.058258 0.137305 0.270552
H47   H     H_    0.255129 0.180306 0.140006 0.280128
H48   H     H_    0.408554 0.107107 0.135705 0.243210
H49   H     H_    0.458918 0.179523 0.287081 0.227713
H50   H     H_    0.368499 0.063136 0.283990 0.172854
C47   C     C_3   0.516187 0.900012 0.752127 -0.092489
C48   C     C_3   0.427096 0.936262 0.671641 -0.821435
H51   H     H_    0.515750 0.975929 0.639787 0.305596
H52   H     H_    0.354708 0.879256 0.622069 0.256571
H53   H     H_    0.343160 0.981683 0.693271 0.271622
H54   H     H_    0.428779 0.864428 0.787333 0.218271
H55   H     H_    0.589430 0.959281 0.799547 0.259279
N1    N     N_R   0.871779 0.939596 0.122215 0.227519
O25   O     O_R   0.746245 0.923960 0.056152 -0.316770
O26   O     O_R   0.924050 0.023392 0.159868 -0.457819
N2    N     N_R   0.854826 0.127261 0.713616 0.221210
O27   O     O_R   0.753764 0.135944 0.642082 -0.358787
O28   O     O_R   0.855634 0.046771 0.737964 -0.460388
N3    N     N_R   0.439785 0.144355 0.894381 0.220429
O29   O     O_R   0.383758 0.061851 0.853528 -0.434499
O30   O     O_R   0.406721 0.168502 0.972396 -0.382494
N4    N     N_R   0.640326 0.280255 0.926803 0.240258
O31   O     O_R   0.792356 0.283296 0.965035 -0.387638
O32   O     O_R   0.560253 0.343706 0.952995 -0.438014
C49   C     C_3   0.979356 0.828496 0.306031 -0.273884
C50   C     C_3   0.068211 0.927203 0.336704 -0.935101
H56   H     H_    0.182828 0.939668 0.311533 0.276646
H57   H     H_    0.989463 0.978416 0.318696 0.261153
H58   H     H_    0.108284 0.938997 0.409776 0.278584
H59   H     H_    0.886221 0.814613 0.347286 0.194903
H60   H     H_    0.068130 0.783029 0.325261 0.266160
C51   C     C_3   0.713558 0.792287 0.188489 -0.365899
C52   C     C_3   0.652775 0.876243 0.231642 -0.795548
H61   H     H_    0.634218 0.863683 0.297522 0.255888
H62   H     H_    0.737901 0.940764 0.244182 0.267273
H63   H     H_    0.537816 0.888531 0.190845 0.288625
H64   H     H_    0.662256 0.778991 0.116042 0.268602
H65   H     H_    0.662316 0.733506 0.216333 0.182756
N5    N     N_R   0.574731 0.607106 0.924848 0.236884
O33   O     O_R   0.538739 0.683360 0.960712 -0.388390
O34   O     O_R   0.719846 0.604314 0.907530 -0.339395
N6    N     N_R   0.623220 0.563744 0.331511 0.253731
O35   O     O_R   0.702906 0.511783 0.378929 -0.342597
O36   O     O_R   0.655440 0.651158 0.356139 -0.472772
N7    N     N_R   0.985655 0.819501 0.056297 0.227098
O37   O     O_R   0.873789 0.751844 0.015934 -0.326507
O38   O     O_R   0.076030 0.862689 0.009591 -0.436134

loop_
_geom_bond_atom_site_label_1
_geom_bond_atom_site_label_2
_geom_bond_distance
_ccdc_geom_bond_type
C3    N7    1.453847 S    
C21   C22   1.416055 A    
C51   C52   1.536812 S    
P2    Ba1   3.465077 S    
C2    C3    1.608902 S    
O14   P8    1.752851 S    
P5    O17   1.749366 S    
C19   C20   1.387083 A    
C5    H9    1.110655 S    
H32   C26   1.080199 S    
C31   C32   1.395106 A    
P3    O11   1.789295 S    
O1    Ba1   2.864151 S    
P4    C30   1.869765 S    
O4    P6    1.542373 D    
N5    O33   1.300109 A    
N4    O32   1.298275 A    
P1    O1    1.550100 D    
N2    O28   1.301499 A    
C6    H10   1.096967 S    
C17   C29   1.396969 A    
C19   C30   1.392446 A    
O12   Ba2   2.864669 S    
O16   P7    1.760215 S    
N7    O37   1.296335 A    
C11   H21   1.095337 S    
C2    C49   1.570096 S    
P6    C17   1.882088 S    
O11   C2    1.438400 S    
P4    O15   1.750351 S    
C50   H58   1.101325 S    
C3    N1    1.471664 S    
C14   H26   1.104252 S    
C44   H41   1.104378 S    
P2    C39   1.869276 S    
C19   H34   1.082148 S    
C33   C34   1.421448 A    
C52   H63   1.104472 S    
C32   C33   1.408558 A    
C40   C41   1.431025 A    
C11   O22   1.400071 S    
C37   H37   1.071572 S    
N4    O31   1.300830 A    
C48   H51   1.110749 S    
C15   O24   1.406088 S    
P2    O10   1.743684 S    
C46   H48   1.110094 S    
C37   C38   1.392561 A    
C24   C28   1.422472 A    
O10   C8    1.397793 S    
C1    H2    1.108905 S    
C51   H65   1.094485 S    
O3    Ba1   2.835968 S    
O13   Ba2   2.974028 S    
C11   C12   1.533952 S    
P5    C32   1.851945 S    
C49   H60   1.098945 S    
C52   H62   1.096248 S    
N6    O36   1.292180 A    
C14   H25   1.110773 S    
P4    O13   1.587990 S    
P3    C38   1.857074 S    
P1    Ba1   3.434080 S    
C34   C35   1.435907 A    
O8    Ba1   2.772797 S    
P5    O18   1.546936 D    
C21   H35   1.072526 S    
C15   H28   1.111103 S    
Ba1   O16   2.823964 S    
C13   H24   1.114882 S    
C2    C51   1.547323 S    
C7    H13   1.095243 S    
C33   H38   1.077526 S    
N3    O30   1.301710 A    
C47   H54   1.108059 S    
Ba2   O20   2.823267 S    
C39   C42   1.395046 A    
H1    C10   1.102310 S    
N6    O35   1.296858 A    
C20   C21   1.395852 A    
P5    O19   1.743346 S    
O14   Ba2   2.835286 S    
C11   H20   1.105626 S    
C42   N6    1.414369 S    
C4    C5    1.517138 S    
C23   C27   1.399294 A    
C9    C45   1.544708 S    
C38   C42   1.390122 A    
P1    O2    1.587972 S    
C18   C29   1.392245 A    
C7    H12   1.110994 S    
C52   H61   1.088920 S    
C14   H27   1.108117 S    
C43   H44   1.112263 S    
C47   H55   1.111270 S    
C16   N3    1.463489 S    
P2    O7    1.524506 D    
C50   H56   1.104323 S    
O17   Ba2   2.773398 S    
C12   H23   1.109221 S    
C35   N5    1.425305 S    
C45   H50   1.109278 S    
C1    H19   1.105724 S    
C18   C28   1.398770 A    
C3    H4    1.102999 S    
C17   C25   1.424768 A    
C1    H3    1.103922 S    
C27   H36   1.066485 S    
N1    O26   1.297083 A    
P2    O20   1.592737 S    
C4    O15   1.394665 S    
Ba1   O20   2.955538 S    
C49   H59   1.108753 S    
P3    O8    1.785675 S    
Ba1   O13   2.848897 S    
C46   H46   1.105425 S    
P8    O23   1.541963 D    
C4    H6    1.110233 S    
P1    C18   1.866569 S    
P4    O12   1.550327 D    
O6    P6    1.764553 S    
O7    Ba1   2.903212 S    
C47   C48   1.525581 S    
C13   N2    1.462904 S    
C25   C26   1.398882 A    
C31   C36   1.392238 A    
C10   H18   1.100553 S    
C8    H14   1.108478 S    
H31   C29   1.079914 S    
O5    C6    1.397971 S    
C4    H5    1.106020 S    
C37   C41   1.420448 A    
C8    C9    1.529205 S    
C22   C24   1.442460 A    
N3    O29   1.299275 A    
C34   C41   1.537803 S    
C16   N4    1.463341 S    
O2    Ba2   2.849566 S    
P7    C36   1.860177 S    
C6    C43   1.529991 S    
C5    H8    1.104863 S    
C35   C36   1.413191 A    
C43   C44   1.514546 S    
C28   H33   1.072344 S    
C15   C16   1.548888 S    
C7    H11   1.101091 S    
C23   C30   1.433258 A    
N5    O34   1.300285 A    
C5    H7    1.109248 S    
N2    O27   1.296711 A    
P7    O21   1.586851 D    
C6    C7    1.539124 S    
O2    Ba1   2.973099 S    
C24   C25   1.430363 A    
O19   C13   1.407508 S    
N7    O38   1.300776 A    
C48   H53   1.106508 S    
C40   H39   1.077601 S    
C8    H15   1.108419 S    
C26   C27   1.388651 A    
C45   H49   1.107495 S    
C50   H57   1.103530 S    
C43   H45   1.100969 S    
C12   H22   1.108171 S    
C44   H42   1.110437 S    
P8    C20   1.833119 S    
O3    P6    1.747305 S    
N1    O25   1.302933 A    
C12   C47   1.524433 S    
C16   H30   1.111569 S    
C9    H16   1.103938 S    
O16   Ba2   2.954747 S    
C22   C23   1.429829 A    
C9    H17   1.110510 S    
C48   H52   1.103590 S    
C15   H29   1.111235 S    
P3    O9    1.543762 D    
P4    Ba2   3.434568 S    
P1    O5    1.754064 S    
C46   H47   1.108812 S    
C31   H40   1.082664 S    
P8    O24   1.757730 S    
C49   C50   1.538788 S    
C1    C10   1.525607 S    
O6    C10   1.418259 S    
C13   C14   1.526402 S    
C39   C40   1.417680 A    
C51   H64   1.105898 S    
C44   H43   1.105113 S    
Ba2   O21   2.903461 S    
P7    O22   1.753017 S    
C45   C46   1.528089 S    
Ba1   Ba2   4.681892 S    
