data_mof_unit_59289.cif
_audit_creation_date              2013-03-05T16:18:24-0500
_audit_creation_method            fapswitch 2.2
_symmetry_space_group_name_H-M    P1
_symmetry_Int_Tables_number       1
_space_group_crystal_system       triclinic
_cell_length_a                    10.607207
_cell_length_b                    9.980145
_cell_length_c                    10.667946
_cell_angle_alpha                 90.578754
_cell_angle_beta                  90.510442
_cell_angle_gamma                 90.121355
_cell_volume                      1129.21919951

loop_
_atom_site_label
_atom_site_type_symbol
_atom_site_description
_atom_site_fract_x
_atom_site_fract_y
_atom_site_fract_z
_atom_type_partial_charge
O1    O     O_R   0.314910 0.616040 0.499970 -0.598897
O2    O     O_R   0.314910 0.383960 0.499970 -0.609328
C1    C     C_R   0.258641 0.499895 0.503089 0.880202
O3    O     O_R   0.500080 0.616020 0.313900 -0.553163
O4    O     O_R   0.500080 0.383980 0.313900 -0.576928
C2    C     C_R   0.486863 0.499055 0.259686 0.944333
Zn1   Zn    Zn3+2 0.500150 0.654960 0.499940 1.030767
Zn2   Zn    Zn3+2 0.500150 0.345040 0.499940 1.040813
O5    O     O_R   0.685320 0.616040 0.499930 -0.634908
O6    O     O_R   0.685320 0.383960 0.499930 -0.590222
O7    O     O_R   0.500150 0.616060 0.686000 -0.563633
O8    O     O_R   0.500150 0.383940 0.686000 -0.553092
C3    C     C_R   0.741661 0.500025 0.503601 0.850432
C4    C     C_R   0.511292 0.500612 0.742700 0.983155
C5    C     C_3   0.425826 0.601529 0.038785 -0.124336
C6    C     C_3   0.444235 0.382242 0.036324 -0.045246
C7    C     C_3   0.388662 0.487734 0.946808 0.322977
C8    C     C_3   0.517811 0.501279 0.880743 -0.181565
C9    C     C_3   0.553946 0.615171 0.974478 -0.126561
C10   C     C_3   0.572057 0.394483 0.970992 -0.121763
C11   C     C_3   0.609154 0.508233 0.062777 -0.215887
C12   C     C_3   0.481250 0.496341 0.125854 -0.070355
H1    H     H_    0.700660 0.515205 0.114392 0.172911
C13   C     C_3   0.073271 0.618394 0.586522 -0.349343
C14   C     C_3   0.072378 0.366394 0.560530 -0.358483
H2    H     H_    0.107624 0.715768 0.549742 0.196601
H3    H     H_    0.102766 0.279531 0.501900 0.191143
H4    H     H_    0.108439 0.610059 0.684428 0.245452
H5    H     H_    0.110841 0.351584 0.656679 0.250069
C15   C     C_3   0.929175 0.619468 0.585317 -0.378614
C16   C     C_3   0.928868 0.368083 0.564277 -0.376626
H6    H     H_    0.893612 0.613761 0.683001 0.224139
H7    H     H_    0.897653 0.360618 0.663251 0.215765
H8    H     H_    0.896892 0.715894 0.544922 0.189696
H9    H     H_    0.892580 0.278562 0.512141 0.196955
H10   H     H_    0.104357 0.610162 0.328969 0.222725
H11   H     H_    0.107068 0.431243 0.309029 0.215082
H12   H     H_    0.889546 0.604496 0.325776 0.193554
H13   H     H_    0.891877 0.424976 0.312000 0.195268
C17   C     C_3   0.071198 0.514139 0.369488 -0.376993
C18   C     C_3   0.121827 0.499670 0.505150 0.101845
C19   C     C_3   0.878579 0.499728 0.505733 0.128240
C20   C     C_3   0.926403 0.511459 0.369580 -0.399375
C21   C     C_3   0.378481 0.078769 0.451084 -0.274279
C22   C     C_3   0.374738 0.921091 0.460785 -0.249222
H14   H     H_    0.363427 0.106653 0.351351 0.218356
H15   H     H_    0.341402 0.877701 0.370260 0.235495
H16   H     H_    0.295953 0.122561 0.498409 0.210228
H17   H     H_    0.297338 0.893144 0.523229 0.203638
C23   C     C_3   0.598701 0.077781 0.411501 0.276818
C24   C     C_3   0.589004 0.918737 0.401677 0.244144
C25   C     C_3   0.534550 0.082853 0.625756 -0.162741
C26   C     C_3   0.535747 0.917388 0.624501 -0.189633
N1    N     N_3   0.499750 0.138610 0.497240 -0.099950
N2    N     N_3   0.499750 0.861390 0.497240 -0.117118
H18   H     H_    0.695015 0.101075 0.445336 0.052206
H19   H     H_    0.684060 0.874888 0.412378 0.087688
Cl1   Cl    Cl    0.238037 0.471893 0.872757 -0.620107
Cl2   Cl    Cl    0.611812 0.154558 0.261806 -0.538301
Cl3   Cl    Cl    0.550773 0.867694 0.243891 -0.585654
C27   C     C_2   0.666952 0.136911 0.665323 0.353444
H20   H     H_    0.753338 0.085887 0.643488 0.044767
O9    O     O_2   0.683639 0.246360 0.712155 -0.600730
C28   C     C_2   0.666968 0.858798 0.654105 0.386641
H21   H     H_    0.748143 0.883614 0.598671 0.012305
O10   O     O_2   0.685458 0.777155 0.735441 -0.571508
C29   C     C_2   0.443730 0.134911 0.726884 0.554789
H22   H     H_    0.472154 0.130085 0.824352 0.051711
O11   O     O_2   0.338975 0.178600 0.703321 -0.567380
C30   C     C_2   0.446632 0.868102 0.728568 0.579640
H23   H     H_    0.470094 0.892392 0.824570 -0.037536
O12   O     O_2   0.348022 0.807897 0.709267 -0.577289
C31   C     C_2   0.336111 0.712648 0.069298 0.559255
H24   H     H_    0.316427 0.788848 0.000124 0.075384
O13   O     O_2   0.283361 0.716835 0.170355 -0.576951
C32   C     C_2   0.375183 0.257347 0.072137 0.574649
H25   H     H_    0.410714 0.159735 0.044869 0.107503
O14   O     O_2   0.277344 0.265128 0.131033 -0.572319
C33   C     C_2   0.630884 0.741010 0.975103 0.639647
H26   H     H_    0.585771 0.837667 0.981796 0.085578
O15   O     O_2   0.745934 0.735612 0.974599 -0.510364
C34   C     C_2   0.671445 0.289571 0.957054 0.564495
H27   H     H_    0.765848 0.318992 0.930018 0.100827
O16   O     O_2   0.649008 0.172125 0.978190 -0.554936

loop_
_geom_bond_atom_site_label_1
_geom_bond_atom_site_label_2
_geom_bond_distance
_ccdc_geom_bond_type
C14   C16   1.523248 S    
C16   C19   1.553827 S    
C10   C34   1.494689 S    
C31   H24   1.084320 S    
C4    C8    1.473586 S    
Zn1   N2    2.060707 S    
C5    C12   1.524143 S    
C21   C22   1.578527 S    
C5    C9    1.534191 S    
C23   N1    1.521643 S    
C23   Cl2   1.784627 S    
C9    C11   1.543505 S    
C13   H2    1.113504 S    
H11   C17   1.113609 S    
C25   C27   1.556678 S    
O4    C2    1.298377 A    
O7    C4    1.311777 A    
C2    C12   1.428403 S    
Zn1   O5    2.002982 S    
C8    C9    1.551510 S    
C27   O9    1.208575 D    
O5    C3    1.304885 A    
C17   C20   1.536059 S    
C21   H14   1.112691 S    
C6    C7    1.542975 S    
C16   H7    1.112534 S    
C30   H23   1.076923 S    
C24   H19   1.105432 S    
C24   N2    1.513228 S    
C6    C10   1.535195 S    
C7    Cl1   1.782035 S    
C22   H15   1.109048 S    
O1    Zn1   2.002100 S    
C11   C12   1.524705 S    
C13   C18   1.553228 S    
C31   O13   1.219423 D    
O3    Zn1   2.018494 S    
C26   C30   1.547822 S    
C3    C19   1.452302 S    
C25   N1    1.527358 S    
C7    C8    1.552406 S    
C26   N2    1.508566 S    
C14   H5    1.111873 S    
C15   H8    1.111851 S    
C29   H22   1.081601 S    
H10   C17   1.112925 S    
C32   H25   1.083265 S    
O3    C2    1.304230 A    
C14   C18   1.552995 S    
C33   O15   1.221720 D    
H13   C20   1.113712 S    
C23   H18   1.103978 S    
C29   O11   1.219542 D    
C28   O10   1.211285 D    
Zn1   O7    2.026335 S    
C22   H17   1.099143 S    
Zn2   O8    2.018638 S    
C23   C24   1.592730 S    
C9    C33   1.496235 S    
C25   C29   1.539852 S    
C17   C18   1.547394 S    
C5    C31   1.498026 S    
O8    C4    1.311333 A    
C34   O16   1.219216 D    
C11   H1    1.113360 S    
C16   H9    1.113733 S    
C19   C20   1.548232 S    
Zn2   N1    2.060108 S    
C25   C26   1.651363 S    
C5    C7    1.541645 S    
C1    C18   1.451572 S    
C6    C12   1.527261 S    
C6    C32   1.498954 S    
O2    Zn2   2.003713 S    
C13   H4    1.109910 S    
C32   O14   1.220167 D    
O6    C3    1.302380 A    
O4    Zn2   2.026199 S    
C14   H3    1.113755 S    
C28   H21   1.078685 S    
O2    C1    1.303309 A    
H12   C20   1.113739 S    
C15   H6    1.113378 S    
C26   C28   1.542184 S    
C8    C10   1.551612 S    
C27   H20   1.075448 S    
C13   C15   1.528458 S    
C33   H26   1.079730 S    
C21   N1    1.494415 S    
C10   C11   1.539856 S    
C22   N2    1.504474 S    
Zn2   O6    2.001368 S    
C34   H27   1.085227 S    
C15   C19   1.550984 S    
C30   O12   1.220028 D    
C24   Cl3   1.796367 S    
O1    C1    1.303520 A    
C21   H16   1.103284 S    
