data_mof_unit_8270.cif
_audit_creation_date              2012-12-10T19:01:50-0500
_audit_creation_method            fapswitch 2.2
_symmetry_space_group_name_H-M    P1
_symmetry_Int_Tables_number       1
_space_group_crystal_system       triclinic
_cell_length_a                    11.693943
_cell_length_b                    10.834291
_cell_length_c                    9.595413
_cell_angle_alpha                 90.026093
_cell_angle_beta                  90.909898
_cell_angle_gamma                 90.424701
_cell_volume                      1215.50954143

loop_
_atom_site_label
_atom_site_type_symbol
_atom_type_description
_atom_site_fract_x
_atom_site_fract_y
_atom_site_fract_z
_atom_type_partial_charge
C1    C     C_R   0.498535 0.262454 0.499922 0.786871
C2    C     C_R   0.489043 0.129129 0.499579 -0.127781
C3    C     C_R   0.473978 0.063998 0.373695 -0.197047
C4    C     C_R   0.473595 0.935358 0.373629 -0.210925
C5    C     C_R   0.489348 0.870670 0.499343 -0.099960
C6    C     C_R   0.491221 0.936312 0.624423 0.147828
C7    C     C_3   0.574767 0.930053 0.743537 -0.543574
C8    C     C_3   0.573756 0.070467 0.744633 -0.202291
C9    C     C_R   0.599479 0.514551 0.075581 0.199531
C10   C     C_R   0.402834 0.473183 0.069961 0.333769
C11   C     C_R   0.403756 0.474256 0.922339 -0.111002
C12   C     C_R   0.284120 0.499904 0.499145 0.826370
C13   C     C_R   0.599712 0.513377 0.928591 0.257960
C14   C     C_3   0.681270 0.619927 0.924519 0.012435
C15   C     C_3   0.680036 0.621780 0.083434 -0.552696
C16   C     C_R   0.498776 0.737516 0.499885 0.791458
C17   C     C_R   0.715873 0.500218 0.500870 0.823434
C18   C     C_1   0.162382 0.500038 0.497873 -0.179104
C19   C     C_1   0.059878 0.500204 0.498957 -0.012114
C20   C     C_1   0.940100 0.500354 0.501146 -0.006192
C21   C     C_1   0.837600 0.500358 0.502176 -0.161477
C22   C     C_R   0.490185 0.063662 0.624931 0.095897
Cu1   Cu    Cu3+1 0.499990 0.499980 0.640670 0.969086
Cu2   Cu    Cu3+1 0.500010 0.500020 0.359330 0.970373
H1    H     H_    0.467871 0.111680 0.274845 0.167627
H2    H     H_    0.643939 0.702498 0.873375 0.159127
H3    H     H_    0.762836 0.596878 0.134178 0.212238
H4    H     H_    0.639385 0.705759 0.126447 0.194060
H5    H     H_    0.466312 0.887289 0.274838 0.171409
H6    H     H_    0.536499 0.885928 0.836621 0.213632
H7    H     H_    0.658394 0.891347 0.712424 0.179355
H8    H     H_    0.657049 0.112934 0.715620 0.140123
H9    H     H_    0.325364 0.454527 0.865364 0.155779
N1    N     N_R   0.500710 0.500930 0.147930 -0.194856
N2    N     N_R   0.500710 0.500890 0.852020 -0.214861
O1    O     O_R   0.500000 0.319640 0.618810 -0.569240
O2    O     O_R   0.500010 0.319680 0.381230 -0.573789
O3    O     O_R   0.337190 0.499990 0.618790 -0.592445
O4    O     O_R   0.337200 0.500030 0.381210 -0.532205
O5    O     O_R   0.499990 0.680320 0.618770 -0.580347
O6    O     O_R   0.500000 0.680360 0.381190 -0.588824
O7    O     O_R   0.662800 0.499970 0.618790 -0.549485
O8    O     O_R   0.662810 0.500010 0.381210 -0.577537
C23   C     C_2   0.522621 0.124005 0.874125 0.907937
O9    O     O_2   0.574021 0.205216 0.938215 -0.619506
O10   O     O_R   0.417604 0.079805 0.921733 -0.773755
H10   H     H_    0.395197 0.119081 0.012948 0.311956
N3    N     N_2   0.296926 0.448579 0.134196 -0.384238
H11   H     H_    0.230636 0.500267 0.093380 0.226091
C24   C     C_3   0.266882 0.319253 0.142871 -0.660809
H12   H     H_    0.187781 0.308481 0.204344 0.224005
H13   H     H_    0.336076 0.267237 0.196181 0.239073
H14   H     H_    0.250964 0.280675 0.036951 0.207332
N4    N     N_2   0.790938 0.584077 0.868876 -0.382755
H15   H     H_    0.825927 0.505194 0.911631 0.262897
C25   C     C_3   0.872426 0.683782 0.852938 -0.666500
H16   H     H_    0.950035 0.648686 0.801286 0.227251
H17   H     H_    0.897373 0.722132 0.956531 0.225371
H18   H     H_    0.835223 0.757877 0.786741 0.225038

loop_
_geom_bond_atom_site_label_1
_geom_bond_atom_site_label_2
_ccdc_geom_bond_type
C2    C22   A    
C4    H5    S    
C8    C22   S    
Cu1   Cu2   S    
C17   O8    A    
C6    C7    S    
C11   H9    S    
Cu1   O3    S    
C24   H13   S    
C19   C20   S    
C14   C15   S    
C25   H18   S    
C1    O2    A    
C20   C21   T    
C12   O4    A    
C11   N2    A    
C2    C3    A    
C9    C15   S    
C7    C8    S    
C10   N1    A    
C7    H6    S    
C13   C14   S    
C14   H2    S    
C12   O3    A    
Cu2   O6    S    
C8    H8    S    
C15   H4    S    
C5    C6    A    
Cu1   O7    S    
C16   O5    A    
N3    C24   S    
N3    H11   S    
C14   N4    S    
C25   H17   S    
C13   N2    A    
Cu1   O1    S    
Cu1   N2    S    
C10   N3    S    
C9    N1    A    
N4    C25   S    
C24   H14   S    
C7    H7    S    
C10   C11   A    
Cu1   O5    S    
C6    C22   A    
C8    C23   S    
C3    H1    S    
Cu2   O4    S    
C25   H16   S    
Cu2   O2    S    
C1    C2    S    
C17   O7    A    
C12   C18   S    
Cu2   O8    S    
C9    C13   A    
N4    H15   S    
C18   C19   T    
C5    C16   S    
C24   H12   S    
O10   H10   S    
C15   H3    S    
C16   O6    A    
Cu2   N1    S    
C23   O9    D    
C3    C4    A    
C1    O1    A    
C23   O10   S    
C4    C5    A    
C17   C21   S    
