data_mof_unit_40668.cif
_audit_creation_date              2012-12-10T22:11:13-0500
_audit_creation_method            fapswitch 2.2
_symmetry_space_group_name_H-M    P1
_symmetry_Int_Tables_number       1
_space_group_crystal_system       triclinic
_cell_length_a                    12.119758
_cell_length_b                    12.376838
_cell_length_c                    23.092975
_cell_angle_alpha                 90.765213
_cell_angle_beta                  91.217026
_cell_angle_gamma                 90.315813
_cell_volume                      3462.89662597

loop_
_atom_site_label
_atom_site_type_symbol
_atom_type_description
_atom_site_fract_x
_atom_site_fract_y
_atom_site_fract_z
_atom_type_partial_charge
C1    C     C_R   0.654316 0.997713 0.580365 0.876895
C2    C     C_R   0.086377 0.813059 0.795760 -0.185074
C3    C     C_R   0.920240 0.193039 0.120234 -0.266294
C4    C     C_R   0.082830 0.733634 0.837022 -0.233697
C5    C     C_R   0.152630 0.917737 0.298706 -0.106068
C6    C     C_R   0.901730 0.073480 0.668203 -0.095906
C7    C     C_R   0.235206 0.916791 0.341181 -0.212779
C8    C     C_R   0.818245 0.075153 0.626946 -0.208612
C9    C     C_R   0.819829 0.106441 0.299706 0.174568
C10   C     C_R   0.115731 0.896093 0.667732 0.214487
C11   C     C_R   0.740882 0.096564 0.342112 -0.184598
C12   C     C_R   0.340530 0.002285 0.421798 0.875856
C13   C     C_R   0.196930 0.903019 0.626535 -0.205379
C14   C     C_3   0.988434 0.012556 0.247181 -0.052908
C15   C     C_3   0.006929 0.988466 0.751190 -0.049703
C16   C     C_R   0.653388 0.001568 0.420687 0.883450
C17   C     C_R   0.345614 0.998307 0.578804 0.869771
C18   C     C_R   0.086368 0.009775 0.290955 0.045613
C19   C     C_R   0.906911 0.990820 0.709716 0.051804
C20   C     C_R   0.249825 0.004934 0.379273 -0.056271
C21   C     C_R   0.736885 0.995202 0.626190 -0.040978
C22   C     C_R   0.889654 0.015131 0.287922 0.141971
C23   C     C_R   0.910850 0.746365 0.162629 -0.062997
C24   C     C_R   0.102216 0.984379 0.707994 0.110858
C25   C     C_R   0.732588 0.003753 0.375034 -0.061879
C26   C     C_R   0.261289 0.995781 0.621838 -0.067384
C27   C     C_R   0.992225 0.109843 0.207230 0.089850
C28   C     C_R   0.003622 0.892411 0.792651 0.098161
C29   C     C_R   0.000227 0.273779 0.125575 -0.006206
C30   C     C_R   0.998290 0.732359 0.877093 -0.035638
C31   C     C_R   0.987837 0.913737 0.204195 -0.038339
C32   C     C_R   0.012482 0.087815 0.794124 -0.041187
C33   C     C_R   0.991960 0.746126 0.119958 -0.130745
C34   C     C_R   0.109520 0.186929 0.874297 -0.065819
C35   C     C_R   0.009513 0.236987 0.888880 -0.205867
C36   C     C_R   0.993016 0.660794 0.075902 0.946742
C37   C     C_R   0.007325 0.332522 0.927797 0.878226
C38   C     C_R   0.999730 0.354947 0.081689 0.903242
C39   C     C_R   0.000039 0.648766 0.920043 0.871314
C40   C     C_R   0.096301 0.093933 0.332598 -0.176697
C41   C     C_R   0.822523 0.911764 0.709221 -0.220874
C42   C     C_R   0.176339 0.093073 0.376472 0.184289
C43   C     C_R   0.736422 0.914228 0.668652 0.184509
C44   C     C_R   0.878830 0.922335 0.322829 -0.170899
C45   C     C_R   0.078939 0.902172 0.165655 -0.011990
C46   C     C_R   0.164794 0.079820 0.699317 -0.226821
C47   C     C_R   0.800848 0.916260 0.365212 -0.223477
C48   C     C_R   0.244183 0.084698 0.657595 -0.204418
C49   C     C_R   0.074413 0.191345 0.211571 -0.233703
C50   C     C_R   0.918923 0.889671 0.833646 -0.174321
C51   C     C_R   0.077631 0.274766 0.171919 0.181982
C52   C     C_R   0.915827 0.812045 0.876232 0.178178
C53   C     C_R   0.895019 0.841683 0.194782 0.114266
C54   C     C_R   0.110050 0.106000 0.830488 0.177928
C55   C     C_3   0.177423 0.184651 0.420444 -0.872477
C56   C     C_R   0.913923 0.144643 0.810109 -0.041559
C57   C     C_3   0.644883 0.831394 0.672568 -0.867319
C58   C     C_3   0.775349 0.867334 0.208242 -0.914222
C59   C     C_3   0.216128 0.040565 0.826624 -0.817898
C60   C     C_2   0.181487 0.968259 0.170795 0.395771
C61   C     C_2   0.808598 0.146206 0.776306 0.418180
C62   C     C_3   0.825455 0.217132 0.272496 -0.878129
C63   C     C_3   0.045483 0.794614 0.662985 -0.924186
C64   C     C_3   0.162746 0.363443 0.180422 -0.857776
C65   C     C_3   0.827307 0.819599 0.921198 -0.881538
C66   C     C_2   0.841558 0.649015 0.174244 0.410222
C67   C     C_R   0.071339 0.829405 0.118797 0.112117
C68   C     C_2   0.210927 0.208904 0.910284 0.460468
C69   C     C_3   0.146347 0.842929 0.067249 -0.804735
C70   C     C_3   0.800620 0.208563 0.893650 -0.795653
C71   C     C_R   0.910508 0.199505 0.863069 0.156859
C72   C     C_R   0.916128 0.112609 0.160316 -0.177053
H1    H     H_    0.932107 0.853220 0.317010 0.152835
H2    H     H_    0.291740 0.158407 0.653179 0.174103
H3    H     H_    0.861093 0.191167 0.084329 0.163444
H4    H     H_    0.147080 0.673053 0.837804 0.170731
H5    H     H_    0.287814 0.846516 0.344216 0.170010
H6    H     H_    0.818289 0.138433 0.594950 0.164054
H7    H     H_    0.685574 0.163297 0.350464 0.163717
H8    H     H_    0.207852 0.835780 0.596593 0.170397
H9    H     H_    0.039960 0.161216 0.330811 0.148076
H10   H     H_    0.823211 0.845802 0.739191 0.156263
H11   H     H_    0.103167 0.236368 0.415980 0.225502
H12   H     H_    0.150949 0.153659 0.723408 0.174538
H13   H     H_    0.178161 0.151969 0.465013 0.244436
H14   H     H_    0.250566 0.237292 0.414397 0.257091
H15   H     H_    0.650138 0.785930 0.713684 0.229789
H16   H     H_    0.563378 0.871987 0.671110 0.237560
H17   H     H_    0.650090 0.771782 0.636434 0.260633
H18   H     H_    0.748218 0.822469 0.246734 0.247862
H19   H     H_    0.757294 0.954022 0.213276 0.251385
H20   H     H_    0.721125 0.841944 0.171035 0.229757
H21   H     H_    0.284892 0.093412 0.813151 0.272708
H22   H     H_    0.236694 0.005429 0.869505 0.228324
H23   H     H_    0.139928 0.189403 0.243666 0.160949
H24   H     H_    0.216017 0.972957 0.796118 0.227872
H25   H     H_    0.182774 0.050843 0.156385 0.078105
H26   H     H_    0.753141 0.077216 0.776004 0.061927
H27   H     H_    0.772716 0.277061 0.294857 0.227720
H28   H     H_    0.909314 0.252249 0.276118 0.249848
H29   H     H_    0.793090 0.214121 0.227426 0.262692
H30   H     H_    0.999358 0.793813 0.620900 0.251079
H31   H     H_    0.099560 0.722464 0.664470 0.236437
H32   H     H_    0.985241 0.784262 0.697158 0.257236
H33   H     H_    0.207001 0.357463 0.222871 0.227098
H34   H     H_    0.854061 0.948932 0.832433 0.122267
H35   H     H_    0.225210 0.358056 0.146083 0.252739
H36   H     H_    0.122060 0.443603 0.179194 0.258978
H37   H     H_    0.779687 0.895774 0.917655 0.226410
H38   H     H_    0.767944 0.751544 0.915462 0.262193
H39   H     H_    0.865368 0.818171 0.965367 0.236011
H40   H     H_    0.760064 0.656888 0.192193 0.078014
H41   H     H_    0.207443 0.204480 0.957134 0.056971
H42   H     H_    0.173924 0.927923 0.062419 0.212364
H43   H     H_    0.220174 0.790933 0.072282 0.270952
H44   H     H_    0.101620 0.822632 0.026015 0.217938
H45   H     H_    0.853302 0.051625 0.153807 0.165893
H46   H     H_    0.745297 0.139312 0.882241 0.198937
H47   H     H_    0.812586 0.203767 0.941366 0.232854
H48   H     H_    0.758223 0.284563 0.881558 0.273470
H49   H     H_    0.155495 0.811357 0.767144 0.159949
H50   H     H_    0.141108 0.845388 0.272546 0.161056
H51   H     H_    0.962512 0.137746 0.668023 0.152821
H52   H     H_    0.795609 0.844044 0.391036 0.164657
O1    O     O_R   0.621380 0.090460 0.561410 -0.618656
O2    O     O_R   0.912410 0.372520 0.941210 -0.615108
O3    O     O_R   0.905660 0.383870 0.059980 -0.606223
O4    O     O_R   0.094340 0.616130 0.940020 -0.626055
O5    O     O_R   0.092570 0.390420 0.063230 -0.641051
O6    O     O_R   0.907430 0.609580 0.936770 -0.620124
O7    O     O_R   0.900680 0.620930 0.055550 -0.604113
O8    O     O_R   0.099320 0.379070 0.944450 -0.622452
O9    O     O_2   0.268153 0.926593 0.186153 -0.563913
O10   O     O_2   0.780458 0.228170 0.751286 -0.547769
O11   O     O_2   0.877676 0.557991 0.167110 -0.579365
O12   O     O_R   0.378620 0.909540 0.438590 -0.628904
O13   O     O_2   0.297140 0.235997 0.888098 -0.567192
O14   O     O_R   0.617150 0.909540 0.438590 -0.623914
O15   O     O_R   0.382850 0.090460 0.561410 -0.626154
O16   O     O_R   0.619720 0.093230 0.440890 -0.631946
O17   O     O_R   0.380280 0.906770 0.559110 -0.633040
O18   O     O_R   0.618800 0.906770 0.559110 -0.621913
O19   O     O_R   0.381200 0.093230 0.440890 -0.620048
O20   O     O_R   0.087590 0.627480 0.058790 -0.624507
Zn1   Zn    Zn3+2 0.501730 0.123520 0.501540 0.957037
Zn2   Zn    Zn3+2 0.498270 0.876480 0.498460 0.949175
Zn3   Zn    Zn3+2 0.125690 0.504390 0.002180 0.975252
Zn4   Zn    Zn3+2 0.874310 0.495610 0.997820 0.984823

loop_
_geom_bond_atom_site_label_1
_geom_bond_atom_site_label_2
_ccdc_geom_bond_type
C69   H44   S    
C1    C21   S    
O18   Zn2   S    
C10   C63   S    
C14   C31   S    
C38   O3    A    
C47   H52   S    
C64   H33   S    
C45   C60   S    
C15   C19   S    
C6    C19   A    
C57   H17   S    
C17   C26   S    
C23   C66   S    
C35   C37   S    
C1    O1    A    
O20   Zn3   S    
C55   H13   S    
C11   C25   A    
C33   C36   S    
C23   C33   A    
C17   O17   A    
C34   C35   A    
C3    C29   A    
C18   C40   A    
C65   H39   S    
C1    O18   A    
C21   C43   A    
C28   C50   A    
C22   C44   A    
C61   H26   S    
C70   H48   S    
C49   C51   A    
C72   H45   S    
C45   C67   A    
C50   C52   A    
C23   C53   A    
C70   C71   S    
C59   H22   S    
C14   C27   S    
C27   C72   A    
C3    H3    S    
C58   H19   S    
C25   C47   A    
C44   C47   A    
C26   C48   A    
O3    Zn4   S    
C7    H5    S    
C62   H29   S    
C40   C42   A    
C13   H8    S    
C35   C71   A    
C8    H6    S    
C41   C43   A    
C68   O13   D    
C16   O16   A    
C6    H51   S    
C63   H30   S    
C32   C54   A    
C61   O10   D    
C64   H36   S    
C54   C59   S    
C46   C48   A    
C69   H42   S    
C4    H4    S    
O6    Zn4   S    
C9    C62   S    
C38   O5    A    
C48   H2    S    
C15   C32   S    
C63   H31   S    
C60   H25   S    
C36   O7    A    
C34   C68   S    
C5    C7    A    
O2    Zn4   S    
C6    C8    A    
C5    C18   A    
C10   C24   A    
C5    H50   S    
C31   C53   A    
C57   H15   S    
C67   C69   S    
C29   C38   S    
C2    C4    A    
C42   C55   S    
C9    C11   A    
C70   H47   S    
C56   C71   A    
C12   C20   S    
C8    C21   A    
O7    Zn4   S    
C17   O15   A    
C49   H23   S    
C58   H18   S    
C65   H37   S    
C11   H7    S    
O17   Zn2   S    
C62   H28   S    
C15   C24   S    
C34   C54   A    
C31   C45   A    
C46   H12   S    
C13   C26   A    
C59   H24   S    
C55   H11   S    
C33   C67   A    
C64   H35   S    
C37   O2    A    
C29   C51   A    
C2    H49   S    
C16   C25   S    
O19   Zn1   S    
C30   C52   A    
O15   Zn1   S    
C39   O4    A    
O8    Zn3   S    
C40   H9    S    
C16   O14   A    
C51   C64   S    
C63   H32   S    
C10   C13   A    
O16   Zn1   S    
C20   C42   A    
C53   C58   S    
C12   O19   A    
O4    Zn3   S    
C39   O6    A    
C69   H43   S    
C68   H41   S    
C37   O8    A    
C24   C46   A    
C14   C22   S    
C55   H14   S    
C3    C72   A    
C36   O20   A    
C57   H16   S    
O1    Zn1   S    
C62   H27   S    
C15   C28   S    
O14   Zn2   S    
C41   H10   S    
C14   C18   S    
C44   H1    S    
C9    C22   A    
O12   Zn2   S    
C65   H38   S    
O5    Zn3   S    
C43   C57   S    
C66   O11   D    
C27   C49   A    
C70   H46   S    
C7    C20   A    
C12   O12   A    
C50   H34   S    
C56   C61   S    
C2    C28   A    
C59   H21   S    
C66   H40   S    
C58   H20   S    
C60   O9    D    
C32   C56   A    
C4    C30   A    
C52   C65   S    
C19   C41   A    
C30   C39   S    
