data_mof_unit_57119.cif
_audit_creation_date              2012-12-11T14:06:35-0500
_audit_creation_method            fapswitch 2.2
_symmetry_space_group_name_H-M    P1
_symmetry_Int_Tables_number       1
_space_group_crystal_system       triclinic
_cell_length_a                    6.942678
_cell_length_b                    17.480245
_cell_length_c                    24.163069
_cell_angle_alpha                 104.85441
_cell_angle_beta                  90.744939
_cell_angle_gamma                 90.043939
_cell_volume                      2834.15755118

loop_
_atom_site_label
_atom_site_type_symbol
_atom_type_description
_atom_site_fract_x
_atom_site_fract_y
_atom_site_fract_z
_atom_type_partial_charge
O1    O     O_R   0.494290 0.391990 0.999150 -0.544237
O2    O     O_R   0.827170 0.534410 0.082350 -0.544581
O3    O     O_R   0.994360 0.608010 0.000850 -0.528156
C1    C     C_R   0.659563 0.549326 0.106061 0.785420
O4    O     O_R   0.824210 0.388010 0.004470 -0.519752
O5    O     O_R   0.991370 0.460560 0.922410 -0.529821
C2    C     C_R   0.653993 0.355012 0.000932 0.717521
O6    O     O_R   0.497270 0.539440 0.077590 -0.523323
O7    O     O_3   0.659770 0.523970 0.973170 -0.336581
V1    V     V_3+5 0.935840 0.495550 0.004980 1.713719
O8    O     O_R   0.320910 0.465590 0.917650 -0.536649
C3    C     C_R   0.150599 0.452020 0.894014 0.853844
O9    O     O_R   0.323870 0.611990 0.995530 -0.489561
C4    C     C_R   0.153779 0.644990 0.998886 0.875298
V2    V     V_3+5 0.435470 0.504450 0.995020 1.758722
O10   O     O_3   0.161670 0.476030 0.026830 -0.381110
C5    C     C_2   0.141143 0.731307 0.003815 0.119907
C6    C     C_2   0.973906 0.768351 0.994396 0.086047
C7    C     C_R   0.994981 0.259421 0.624155 0.817625
N1    N     N_R   0.101729 0.324988 0.648995 -0.541841
C8    C     C_R   0.189517 0.367462 0.616196 0.829178
C9    C     C_R   0.155621 0.349561 0.556104 -0.195044
C10   C     C_R   0.055913 0.279033 0.529374 -0.081131
C11   C     C_R   0.963234 0.236542 0.563885 -0.150016
C12   C     C_R   0.214252 0.400596 0.522452 0.375545
C13   C     C_R   0.222543 0.371154 0.462089 0.348188
C14   C     C_R   0.123126 0.299395 0.434304 -0.191922
C15   C     C_R   0.038055 0.253801 0.468625 -0.075768
C16   C     C_R   0.939272 0.181873 0.442459 -0.174830
C17   C     C_R   0.847345 0.139348 0.478280 0.261168
C18   C     C_R   0.834615 0.175053 0.537578 0.359627
C19   C     C_R   0.099368 0.272345 0.373619 0.810265
N2    N     N_R   0.018402 0.200064 0.348889 -0.527160
C20   C     C_R   0.930009 0.157445 0.381562 0.778806
O11   O     O_2   0.925595 0.215290 0.657688 -0.431743
O12   O     O_2   0.314979 0.424889 0.641782 -0.412767
O13   O     O_2   0.149162 0.318461 0.339287 -0.437015
O14   O     O_2   0.827149 0.093312 0.354315 -0.406798
C21   C     C_R   0.133390 0.099990 0.262414 0.271024
C22   C     C_R   0.097627 0.055821 0.204811 0.264390
C23   C     C_R   0.975559 0.087477 0.168855 -0.352159
C24   C     C_R   0.870322 0.156752 0.192945 0.289239
C25   C     C_R   0.891617 0.195533 0.251281 0.381461
C26   C     C_R   0.020242 0.167319 0.286842 0.042431
C27   C     C_R   0.000113 0.423090 0.736804 0.304492
C28   C     C_R   0.022154 0.459699 0.796173 0.335180
C29   C     C_R   0.137203 0.422367 0.830636 -0.275520
C30   C     C_R   0.235854 0.352791 0.804642 -0.268602
H1    H     H_    0.322360 0.323509 0.830707 0.202773
C31   C     C_R   0.222436 0.319455 0.745582 0.464346
C32   C     C_R   0.107312 0.355096 0.710886 0.114820
C33   C     C_R   0.407053 0.843940 0.615572 0.753359
N3    N     N_R   0.506710 0.807700 0.650904 -0.547258
C34   C     C_R   0.617132 0.742630 0.629267 0.689043
C35   C     C_R   0.635188 0.713097 0.569778 -0.033199
C36   C     C_R   0.552570 0.755365 0.532737 -0.036428
C37   C     C_R   0.441908 0.824212 0.555365 -0.215275
C38   C     C_R   0.736045 0.642810 0.546638 -0.021906
C39   C     C_R   0.747879 0.612411 0.487558 0.032805
C40   C     C_R   0.665821 0.653119 0.450173 -0.031759
C41   C     C_R   0.579058 0.727202 0.472927 -0.063605
C42   C     C_R   0.519073 0.772196 0.435625 -0.187912
C43   C     C_R   0.408310 0.841265 0.457305 0.366750
C44   C     C_R   0.369346 0.868479 0.517011 0.372049
C45   C     C_R   0.663727 0.620595 0.390344 0.671823
N4    N     N_R   0.616603 0.666796 0.353785 -0.553619
C46   C     C_R   0.571303 0.745057 0.377091 0.779143
O15   O     O_2   0.271681 0.896683 0.639266 -0.424363
O16   O     O_2   0.707864 0.706390 0.665200 -0.457960
H2    H     H_    0.801036 0.609727 0.574130 0.218076
H3    H     H_    0.823605 0.557285 0.471185 0.217198
O17   O     O_2   0.705332 0.543297 0.369681 -0.468094
O18   O     O_2   0.585040 0.796932 0.344586 -0.390391
C47   C     C_R   0.483651 0.658317 0.254164 0.400612
C48   C     C_R   0.518839 0.641058 0.194567 0.266555
C49   C     C_R   0.651329 0.581524 0.169500 -0.256665
C50   C     C_R   0.774569 0.552526 0.205630 -0.139106
H4    H     H_    0.882893 0.508983 0.187649 0.182161
C51   C     C_R   0.767713 0.582773 0.265219 -0.030868
H5    H     H_    0.879625 0.564829 0.290671 0.218201
C52   C     C_R   0.620802 0.635193 0.291232 0.147830
C53   C     C_R   0.352613 0.818300 0.743957 -0.098275
H6    H     H_    0.251618 0.772516 0.722795 0.202053
C54   C     C_R   0.335274 0.853912 0.802660 0.354003
C55   C     C_R   0.465405 0.914343 0.830855 -0.269903
C56   C     C_R   0.611611 0.938259 0.798230 0.282333
C57   C     C_R   0.627736 0.901527 0.739286 0.407655
C58   C     C_R   0.498484 0.841247 0.712102 0.148277
C59   C     C_2   0.641449 0.271980 0.004913 0.163336
C60   C     C_2   0.476914 0.226655 0.991533 0.130198
O19   O     O_R   0.618210 0.960470 0.922400 -0.532407
O20   O     O_R   0.291310 0.111960 0.995450 -0.519342
O21   O     O_R   0.124210 0.039530 0.077580 -0.540387
C61   C     C_R   0.462037 0.144511 0.997611 0.784826
O22   O     O_R   0.288310 0.965490 0.917650 -0.522628
O23   O     O_R   0.121180 0.892010 0.999220 -0.527853
C62   C     C_R   0.456177 0.948931 0.894071 0.822202
O24   O     O_R   0.621230 0.107990 0.000760 -0.527993
O25   O     O_3   0.455770 0.976060 0.026840 -0.353185
V3    V     V_3+5 0.179680 0.004440 0.995020 1.770566
O26   O     O_R   0.791670 0.888040 0.004570 -0.512459
C63   C     C_R   0.961539 0.854861 0.000439 0.811005
O27   O     O_R   0.794680 0.034510 0.082370 -0.513630
C64   C     C_R   0.964133 0.051449 0.105802 0.907963
V4    V     V_3+5 0.680070 0.995560 0.005010 1.791569
O28   O     O_3   0.953840 0.023940 0.973160 -0.359908
Cl1   Cl    Cl    0.354395 0.785120 0.028852 -0.437327
Cl2   Cl    Cl    0.759887 0.281868 0.279198 -0.498727
Cl3   Cl    Cl    0.828653 0.457058 0.693898 -0.377812
S1    S     S_3+6 0.921369 0.554554 0.826506 0.129848
O29   O     O_2   0.878622 0.598421 0.781782 -0.230040
O30   O     O_2   0.738245 0.544928 0.856503 -0.280845
O31   O     O_3   0.079951 0.608325 0.873959 -0.521962
H7    H     H_    0.059713 0.663855 0.872559 0.395054
Cl4   Cl    Cl    0.345105 0.230735 0.717085 -0.433915
Cl5   Cl    Cl    0.289695 0.884459 0.407746 -0.229952
S2    S     S_3+6 0.233056 0.957738 0.543044 0.215939
O32   O     O_2   0.333515 0.010097 0.594323 -0.233171
O33   O     O_2   0.205261 0.005490 0.500123 -0.219340
O34   O     O_3   0.014989 0.932295 0.562295 -0.441612
H8    H     H_    0.966789 0.980393 0.589824 0.434393
S3    S     S_3+6 0.250824 0.692716 0.278425 0.116913
O35   O     O_2   0.240405 0.781117 0.289903 -0.175384
O36   O     O_2   0.106452 0.657533 0.232261 -0.322802
O37   O     O_3   0.195013 0.665157 0.338098 -0.512259
H9    H     H_    0.075814 0.694461 0.352163 0.359030
Cl6   Cl    Cl    0.762785 0.714807 0.966295 -0.469682
S4    S     S_3+6 0.432204 0.705483 0.153917 0.148431
O38   O     O_2   0.239342 0.677164 0.127713 -0.319605
O39   O     O_2   0.413206 0.788003 0.191250 -0.189140
O40   O     O_3   0.588802 0.707717 0.101806 -0.462236
H10   H     H_    0.706892 0.732705 0.122046 0.355414
Cl7   Cl    Cl    0.152087 0.818213 0.839416 -0.570384
Cl8   Cl    Cl    0.770642 0.017037 0.829703 -0.478077
Cl9   Cl    Cl    0.808617 0.931581 0.698547 -0.440536
Cl10  Cl    Cl    0.854678 0.237509 0.031557 -0.520238
Cl11  Cl    Cl    0.271842 0.259144 0.959547 -0.575229
S5    S     S_3+6 0.238533 0.504846 0.554704 0.107272
O41   O     O_2   0.440486 0.522841 0.577563 -0.256083
O42   O     O_2   0.195052 0.552498 0.512438 -0.315028
O43   O     O_3   0.083737 0.532473 0.609117 -0.461353
H11   H     H_    0.121358 0.587443 0.628956 0.388389
S6    S     S_3+6 0.383898 0.418931 0.424764 0.146259
O44   O     O_2   0.273543 0.476135 0.399447 -0.258041
O45   O     O_2   0.537502 0.462687 0.464641 -0.283708
O46   O     O_3   0.496145 0.353141 0.372693 -0.455626
H12   H     H_    0.508581 0.380795 0.341912 0.433758
S7    S     S_3+6 0.765389 0.039004 0.452439 0.261713
O47   O     O_2   0.913277 0.991284 0.413597 -0.173649
O48   O     O_2   0.733362 0.001017 0.500690 -0.251899
O49   O     O_3   0.557871 0.035555 0.415476 -0.345301
H13   H     H_    0.500672 0.088713 0.429171 0.391385
S8    S     S_3+6 0.623854 0.160925 0.574918 0.149176
O50   O     O_2   0.568000 0.239020 0.614160 -0.302872
O51   O     O_2   0.458133 0.132096 0.534522 -0.277022
O52   O     O_3   0.671753 0.094898 0.613135 -0.402272
H14   H     H_    0.606282 0.115000 0.650135 0.440723
S9    S     S_3+6 0.323688 0.074966 0.304400 0.194025
O53   O     O_2   0.244547 0.021959 0.338733 -0.170743
O54   O     O_2   0.484110 0.033054 0.267663 -0.215431
O55   O     O_3   0.415380 0.156875 0.349500 -0.509627
H15   H     H_    0.474864 0.186756 0.324407 0.375074
S10   S     S_3+6 0.175470 0.955858 0.180421 0.197582
O56   O     O_2   0.370369 0.953712 0.153729 -0.257815
O57   O     O_2   0.186043 0.918374 0.229780 -0.162551
O58   O     O_3   0.018849 0.902899 0.131801 -0.520312
H16   H     H_    0.055963 0.846955 0.127328 0.383810
Cl12  Cl    Cl    0.704548 0.195015 0.150811 -0.524740

loop_
_geom_bond_atom_site_label_1
_geom_bond_atom_site_label_2
_ccdc_geom_bond_type
S6    O46   S    
C57   C58   A    
O26   C63   A    
O23   C63   A    
C23   C24   A    
O19   V4    S    
S10   O56   D    
S7    O49   S    
C1    O6    A    
S4    O38   D    
O55   H15   S    
C8    O12   S    
C50   H4    S    
C33   N3    A    
C13   C14   A    
C16   C17   A    
O24   V4    S    
C42   C46   A    
C23   C64   S    
C13   S6    S    
C8    C9    A    
C15   C16   A    
S10   O57   D    
S7    O48   D    
C31   Cl4   S    
N1    C32   S    
C5    Cl1   S    
O5    C3    A    
C17   C18   A    
C27   Cl3   S    
C27   C32   A    
S6    O44   D    
C2    C59   S    
C36   C37   A    
C48   S4    S    
C6    C63   S    
S1    O29   D    
S9    O55   S    
O31   H7    S    
O8    V2    S    
C56   Cl8   S    
C7    N1    A    
C9    C12   A    
O49   H13   S    
C46   O18   S    
S8    O51   D    
O7    V1    S    
C33   O15   S    
C30   C31   A    
N4    C46   A    
C39   C40   A    
C59   Cl10  S    
O1    C2    A    
O9    C4    A    
S9    O54   D    
C4    C5    S    
C3    C29   S    
O21   C64   A    
C18   S8    S    
C24   Cl12  S    
C60   C61   S    
C50   C51   A    
O26   V4    S    
O25   V4    S    
C54   Cl7   S    
C47   C48   A    
C57   Cl9   S    
S10   O58   S    
C49   C50   A    
O22   V3    S    
C22   S10   S    
S5    O41   D    
S2    O34   S    
C59   C60   D    
C21   C22   A    
C51   C52   A    
C56   C57   A    
C38   H2    S    
C31   C32   A    
C12   C13   A    
C55   C56   A    
C16   C20   A    
O19   C62   A    
C44   S2    S    
C51   H5    S    
C40   C41   A    
O52   H14   S    
S9    O53   D    
O2    C1    A    
C48   C49   A    
C42   C43   A    
C6    Cl6   S    
C29   C30   A    
O21   V3    S    
O9    V2    S    
C10   C11   A    
C35   C36   A    
O20   C61   A    
C5    C6    D    
O27   V4    S    
C28   C29   A    
C19   O13   S    
C54   C55   A    
S8    O52   S    
C17   S7    S    
S1    O31   S    
O3    C4    A    
S5    O42   D    
O1    V2    S    
C43   Cl5   S    
C30   H1    S    
C47   S3    S    
C40   C45   A    
C53   H6    S    
O6    V2    S    
C53   C54   A    
C28   S1    S    
C21   S9    S    
O37   H9    S    
C10   C15   A    
C24   C25   A    
C47   C52   A    
S3    O36   D    
O40   H10   S    
O2    V1    S    
S4    O40   S    
C14   C15   A    
C60   Cl11  S    
O34   H8    S    
O20   V3    S    
C37   C44   A    
O4    C2    A    
O46   H12   S    
S6    O45   D    
C34   C35   A    
C22   C23   A    
C14   C19   A    
C20   O14   S    
N2    C26   S    
C9    C10   A    
S5    O43   S    
S4    O39   D    
O5    V1    S    
O8    C3    A    
O22   C62   A    
N3    C34   A    
C21   C26   A    
C45   O17   S    
V4    O28   S    
V3    O28   S    
O25   V3    S    
C19   N2    A    
S3    O37   S    
S2    O33   D    
C12   S5    S    
C38   C39   A    
C11   C18   A    
O4    V1    S    
O3    V1    S    
C7    O11   S    
S2    O32   D    
N4    C52   S    
O58   H16   S    
C34   O16   S    
C25   C26   A    
C53   C58   A    
O23   V3    S    
N2    C20   A    
C7    C11   A    
N3    C58   S    
C25   Cl2   S    
O7    V2    S    
C41   C42   A    
S1    O30   D    
C1    C49   S    
C55   C62   S    
C33   C37   A    
C43   C44   A    
C27   C28   A    
N1    C8    A    
C45   N4    A    
C35   C38   A    
O27   C64   A    
S3    O35   D    
C61   O24   A    
C36   C41   A    
V1    O10   S    
S8    O50   D    
O43   H11   S    
S7    O47   D    
V2    O10   S    
C39   H3    S    
