data_mof_unit_52111.cif
_audit_creation_date              2012-12-10T20:52:09-0500
_audit_creation_method            fapswitch 2.2
_symmetry_space_group_name_H-M    P1
_symmetry_Int_Tables_number       1
_space_group_crystal_system       triclinic
_cell_length_a                    10.904213
_cell_length_b                    8.891269
_cell_length_c                    8.273707
_cell_angle_alpha                 89.96377
_cell_angle_beta                  91.185173
_cell_angle_gamma                 90.015324
_cell_volume                      801.983057149

loop_
_atom_site_label
_atom_site_type_symbol
_atom_type_description
_atom_site_fract_x
_atom_site_fract_y
_atom_site_fract_z
_atom_type_partial_charge
C1    C     C_R   0.499847 0.218784 0.499997 0.926348
C2    C     C_R   0.499820 0.781236 0.499987 0.940043
C3    C     C_R   0.873213 0.499305 0.505344 -0.056161
C4    C     C_R   0.126811 0.485433 0.494831 -0.071141
C5    C     C_R   0.941919 0.450504 0.641558 0.052201
C6    C     C_R   0.057455 0.506406 0.352917 0.034466
C7    C     C_1   0.499655 0.065472 0.500002 -0.203602
C8    C     C_1   0.499645 0.934586 0.499943 -0.204954
C9    C     C_R   0.259800 0.494159 0.498186 0.843467
C10   C     C_R   0.740315 0.501012 0.501907 0.865174
C11   C     C_R   0.236075 0.504175 0.978923 -0.108251
C12   C     C_R   0.823272 0.196639 0.965410 -0.185092
C13   C     C_R   0.159902 0.555580 0.098246 -0.207567
C14   C     C_R   0.884844 0.246713 0.829436 -0.210037
C15   C     C_R   0.104648 0.452698 0.200224 0.117155
C16   C     C_R   0.888039 0.400957 0.792756 0.112838
C17   C     C_R   0.118403 0.296188 0.175428 0.276683
C18   C     C_R   0.835255 0.506358 0.896513 0.273483
C19   C     C_R   0.193730 0.245552 0.052139 -0.220446
C20   C     C_R   0.768918 0.453477 0.026006 -0.195224
C21   C     C_R   0.256690 0.349199 0.959229 -0.142678
C22   C     C_R   0.764080 0.300169 0.063277 -0.103753
C23   C     C_R   0.933529 0.532146 0.362748 -0.256976
C24   C     C_R   0.067476 0.447889 0.634872 -0.272714
H1    H     H_    0.317009 0.308645 0.866883 0.181303
H2    H     H_    0.713456 0.261540 0.166411 0.171658
H3    H     H_    0.280491 0.586767 0.904762 0.175487
H4    H     H_    0.819395 0.077792 0.993113 0.141415
H5    H     H_    0.152701 0.675323 0.120121 0.134124
H6    H     H_    0.927282 0.165564 0.750564 0.143080
H7    H     H_    0.206282 0.126367 0.031468 0.140054
H8    H     H_    0.721065 0.535194 0.095606 0.167504
H9    H     H_    0.884606 0.568733 0.256457 0.159363
H10   H     H_    0.117879 0.407978 0.736679 0.177969
N1    N     N_1   0.500020 0.500030 0.073640 -0.061166
N2    N     N_1   0.499980 0.499970 0.926360 -0.077093
O1    O     O_R   0.499990 0.285340 0.636850 -0.620664
O2    O     O_R   0.500010 0.714660 0.363150 -0.618231
O3    O     O_R   0.500010 0.285350 0.363100 -0.616910
O4    O     O_R   0.499990 0.714650 0.636900 -0.619676
O5    O     O_R   0.316750 0.500000 0.636870 -0.658078
O6    O     O_R   0.683250 0.500000 0.363130 -0.657562
O7    O     O_R   0.316770 0.500020 0.363120 -0.597839
O8    O     O_R   0.683230 0.499980 0.636880 -0.608183
Zn1   Zn    Zn3+2 0.499990 0.499990 0.682780 0.947743
Zn2   Zn    Zn3+2 0.500010 0.500010 0.317220 0.958229
N3    N     N_2   0.058904 0.190899 0.277079 -0.311007
H11   H     H_    0.000238 0.120815 0.213282 0.221908
C25   C     C_3   0.140012 0.106624 0.384206 -0.799233
H12   H     H_    0.198245 0.028820 0.314020 0.232454
H13   H     H_    0.084540 0.039247 0.468925 0.238269
H14   H     H_    0.199707 0.183418 0.456409 0.240298
N4    N     N_2   0.831138 0.662418 0.855964 -0.296478
H15   H     H_    0.752769 0.716851 0.892161 0.230473
C26   C     C_3   0.940598 0.746932 0.896272 -0.859559
H16   H     H_    0.931989 0.862360 0.846134 0.241052
H17   H     H_    0.022445 0.694008 0.842950 0.265701
H18   H     H_    0.952221 0.755066 0.029612 0.230333

loop_
_geom_bond_atom_site_label_1
_geom_bond_atom_site_label_2
_ccdc_geom_bond_type
C26   H16   S    
C2    O4    A    
C10   O6    A    
C20   C22   A    
C2    O2    A    
C9    O5    A    
N1    N2    T    
C13   C15   A    
C11   H3    S    
C3    C5    A    
C25   H14   S    
C19   H7    S    
N4    C26   S    
C6    C15   S    
N2    Zn1   S    
N3    C25   S    
C3    C10   S    
C20   H8    S    
N4    H15   S    
C11   C13   A    
C5    C24   A    
C14   H6    S    
O3    Zn2   S    
C6    C23   A    
C10   O8    A    
C13   H5    S    
C19   C21   A    
C12   H4    S    
C18   C20   A    
C26   H17   S    
C22   H2    S    
O4    Zn1   S    
C4    C24   A    
O7    Zn2   S    
C14   C16   A    
O2    Zn2   S    
C9    O7    A    
C1    O3    A    
O1    Zn1   S    
N3    H11   S    
C12   C22   A    
C7    C8    T    
O8    Zn1   S    
C4    C6    A    
C25   H12   S    
O6    Zn2   S    
C26   H18   S    
C15   C17   A    
O5    Zn1   S    
C17   C19   A    
C5    C16   S    
C21   H1    S    
C18   N4    S    
C23   H9    S    
C4    C9    S    
C1    C7    S    
N1    Zn2   S    
C3    C23   A    
C11   C21   A    
C16   C18   A    
C2    C8    S    
C17   N3    S    
C12   C14   A    
C1    O1    A    
C25   H13   S    
C24   H10   S    
