data_mof_unit_21075.cif
_audit_creation_date              2012-12-10T18:13:53-0500
_audit_creation_method            fapswitch 2.2
_symmetry_space_group_name_H-M    P1
_symmetry_Int_Tables_number       1
_space_group_crystal_system       triclinic
_cell_length_a                    10.836153
_cell_length_b                    9.873723
_cell_length_c                    23.459002
_cell_angle_alpha                 88.429767
_cell_angle_beta                  84.805827
_cell_angle_gamma                 90.687468
_cell_volume                      2498.44327124

loop_
_atom_site_label
_atom_site_type_symbol
_atom_type_description
_atom_site_fract_x
_atom_site_fract_y
_atom_site_fract_z
_atom_type_partial_charge
C1    C     C_R   0.259683 0.498939 0.504173 0.803894
C2    C     C_R   0.314063 0.470684 0.973230 -0.161135
C3    C     C_R   0.309382 0.460046 0.032809 -0.162801
C4    C     C_R   0.419102 0.465081 0.060403 -0.006040
C5    C     C_R   0.533723 0.477971 0.027521 -0.016855
C6    C     C_R   0.643020 0.493272 0.054643 -0.008023
C7    C     C_R   0.757922 0.496918 0.021444 -0.164768
C8    C     C_R   0.763494 0.482514 0.962135 -0.159345
C9    C     C_R   0.417199 0.456567 0.120202 0.526861
C10   C     C_R   0.634201 0.506471 0.114320 0.530242
C11   C     C_R   0.611784 0.433581 0.239175 -0.101068
C12   C     C_R   0.500537 0.500920 0.391846 0.719577
C13   C     C_R   0.608993 0.446282 0.298267 -0.235809
C14   C     C_R   0.505920 0.500125 0.329221 -0.014833
C15   C     C_R   0.405490 0.541838 0.300209 -0.281649
C16   C     C_R   0.414190 0.545313 0.240543 -0.088606
C17   C     C_R   0.516493 0.487889 0.208862 0.321890
C18   C     C_R   0.458023 0.378717 0.762375 0.483504
C19   C     C_R   0.437328 0.403337 0.705332 -0.193088
C20   C     C_R   0.517255 0.487440 0.669596 -0.114605
C21   C     C_R   0.621823 0.542916 0.691311 -0.285402
C22   C     C_R   0.635060 0.533062 0.749991 -0.170194
C23   C     C_R   0.737624 0.498885 0.502455 0.701845
C24   C     C_R   0.549623 0.456170 0.786888 0.192992
C25   C     C_3   0.055813 0.585529 0.556113 -0.323110
C26   C     C_3   0.061957 0.351933 0.523057 -0.304435
C27   C     C_3   0.913432 0.585003 0.554245 -0.436430
C28   C     C_3   0.920025 0.348350 0.520531 -0.403651
C29   C     C_3   0.078815 0.555306 0.451193 -0.411136
C30   C     C_3   0.118462 0.496599 0.508355 0.113165
C31   C     C_3   0.874473 0.492790 0.506198 0.182605
C32   C     C_3   0.940575 0.531328 0.447104 -0.399887
C33   C     C_3   0.628616 0.083014 0.487147 0.142443
C34   C     C_3   0.631050 0.916807 0.491641 0.131583
C35   C     C_3   0.457427 0.086615 0.561573 0.648577
C36   C     C_3   0.446779 0.913964 0.560933 0.554793
C37   C     C_3   0.421556 0.085026 0.457729 0.243928
C38   C     C_3   0.440670 0.924519 0.451029 0.343874
C39   C     C_R   0.503379 0.497629 0.608027 0.830692
C40   C     C_R   0.655995 0.459153 0.874952 0.514956
C41   C     C_R   0.436427 0.484504 0.880288 0.576987
C42   C     C_R   0.428836 0.476908 0.940119 -0.035048
C43   C     C_R   0.538909 0.475656 0.967325 -0.025094
C44   C     C_R   0.653990 0.472965 0.934519 -0.011281
Cu1   Cu    Cu3+1 0.499860 0.642410 0.500030 1.085181
Cu2   Cu    Cu3+1 0.499860 0.357590 0.500030 1.069859
H1    H     H_    0.227832 0.469884 0.953205 0.188514
H2    H     H_    0.359165 0.354397 0.689288 0.229171
H3    H     H_    0.690236 0.598728 0.663164 0.159672
H4    H     H_    0.708098 0.591598 0.766607 0.200368
H5    H     H_    0.085046 0.690918 0.549636 0.252730
H6    H     H_    0.104479 0.273855 0.495707 0.245434
H7    H     H_    0.080108 0.550361 0.599107 0.193315
H8    H     H_    0.079610 0.323175 0.567557 0.231136
H9    H     H_    0.868922 0.546903 0.596314 0.155846
H10   H     H_    0.873688 0.310197 0.562228 0.173973
H11   H     H_    0.880701 0.689990 0.548431 0.169166
H12   H     H_    0.896794 0.275649 0.487563 0.214274
H13   H     H_    0.096875 0.666478 0.449678 0.220701
H14   H     H_    0.132949 0.514642 0.413434 0.149578
H15   H     H_    0.899559 0.620157 0.428957 0.182987
H16   H     H_    0.927726 0.449704 0.416398 0.166957
H17   H     H_    0.687016 0.105372 0.522026 0.179987
H18   H     H_    0.682331 0.885733 0.528955 0.129179
H19   H     H_    0.219649 0.451681 0.057148 0.187591
H20   H     H_    0.456894 0.132480 0.416381 0.073179
H21   H     H_    0.511785 0.923802 0.414118 0.058371
H22   H     H_    0.843826 0.507391 0.041304 0.185822
H23   H     H_    0.853474 0.482077 0.937931 0.190474
H24   H     H_    0.689308 0.382393 0.217351 0.170041
H25   H     H_    0.686805 0.413184 0.320008 0.140929
H26   H     H_    0.320469 0.571514 0.323662 0.142818
H27   H     H_    0.339561 0.590923 0.219501 0.171235
N1    N     N_R   0.547908 0.466406 0.848478 -0.462813
N2    N     N_R   0.522837 0.483415 0.146763 -0.460459
N3    N     N_3   0.500250 0.143650 0.501250 -0.277140
N4    N     N_3   0.500250 0.856350 0.501250 -0.243932
O1    O     O_R   0.317570 0.620260 0.500030 -0.466994
O2    O     O_R   0.317570 0.379740 0.500030 -0.501034
O3    O     O_R   0.499840 0.620290 0.417900 -0.552795
O4    O     O_R   0.499840 0.379710 0.417900 -0.586098
O5    O     O_R   0.682190 0.620260 0.500010 -0.558532
O6    O     O_R   0.682190 0.379740 0.500010 -0.534623
O7    O     O_R   0.499920 0.620230 0.582140 -0.508754
O8    O     O_R   0.499920 0.379770 0.582140 -0.480877
O9    O     O_2   0.764743 0.436672 0.844227 -0.545764
O10   O     O_2   0.332931 0.510993 0.854247 -0.504402
O11   O     O_2   0.310682 0.419016 0.151145 -0.554983
O12   O     O_2   0.736041 0.544836 0.139154 -0.552235
O13   O     O_3   0.704342 0.158016 0.443834 -0.558202
C45   C     C_3   0.691843 0.138485 0.385297 0.099801
H28   H     H_    0.619267 0.203412 0.369907 0.162885
H29   H     H_    0.672532 0.033391 0.374365 0.169525
C46   C     C_3   0.812640 0.186781 0.351866 -0.853523
H30   H     H_    0.893549 0.133280 0.366775 0.245191
H31   H     H_    0.808327 0.171245 0.305379 0.215380
H32   H     H_    0.829233 0.295543 0.359072 0.235435
O14   O     O_3   0.692684 0.859507 0.442194 -0.549727
C47   C     C_3   0.822429 0.877839 0.437914 0.094522
H33   H     H_    0.862917 0.812182 0.469837 0.143893
H34   H     H_    0.852725 0.982255 0.446255 0.172174
C48   C     C_3   0.872466 0.840245 0.377400 -0.834788
H35   H     H_    0.823923 0.748635 0.363661 0.259717
H36   H     H_    0.857808 0.920581 0.345253 0.244824
H37   H     H_    0.972313 0.819888 0.376473 0.209923
O15   O     O_3   0.552669 0.145761 0.592515 -0.598407
C49   C     C_3   0.589448 0.106620 0.645814 0.055883
H38   H     H_    0.641055 0.012134 0.642020 0.211776
H39   H     H_    0.510397 0.109393 0.678867 0.213150
C50   C     C_3   0.690194 0.205143 0.661628 -0.815145
H40   H     H_    0.683537 0.218892 0.708570 0.218692
H41   H     H_    0.783981 0.166097 0.648336 0.218027
H42   H     H_    0.684212 0.304587 0.639459 0.272452
O16   O     O_3   0.520191 0.860021 0.604980 -0.642658
C51   C     C_3   0.458549 0.838293 0.661867 0.172676
H43   H     H_    0.408927 0.739916 0.665650 0.231307
H44   H     H_    0.391466 0.916427 0.673404 0.228125
C52   C     C_3   0.546310 0.833949 0.709752 -0.960508
H45   H     H_    0.548728 0.930649 0.732331 0.216752
H46   H     H_    0.510686 0.759370 0.743646 0.260466
H47   H     H_    0.642233 0.810151 0.693092 0.269963
O17   O     O_3   0.295583 0.125315 0.466610 -0.481521
C53   C     C_3   0.232654 0.123251 0.415559 0.178004
H48   H     H_    0.144279 0.065488 0.424999 0.172604
H49   H     H_    0.285715 0.077417 0.379915 0.128641
C54   C     C_3   0.205333 0.262497 0.390419 -0.928659
H50   H     H_    0.212503 0.260300 0.342851 0.229974
H51   H     H_    0.108403 0.290325 0.403234 0.225954
H52   H     H_    0.272360 0.339606 0.401892 0.276267
O18   O     O_3   0.336987 0.852831 0.431717 -0.489959
C55   C     C_3   0.348547 0.840830 0.370273 0.086694
H53   H     H_    0.408517 0.757722 0.357354 0.187183
H54   H     H_    0.396174 0.928143 0.346233 0.071629
C56   C     C_3   0.224434 0.819559 0.346090 -0.867759
H55   H     H_    0.162281 0.905231 0.355582 0.232140
H56   H     H_    0.239430 0.812638 0.298799 0.221600
H57   H     H_    0.179733 0.724330 0.363045 0.234937
S1    S     S_3+6 0.307672 0.159715 0.595671 0.066401
O19   O     O_2   0.293682 0.309113 0.598130 -0.336101
O20   O     O_2   0.196133 0.111971 0.568167 -0.240804
O21   O     O_3   0.290359 0.115434 0.665649 -0.575591
H58   H     H_    0.208167 0.149700 0.680188 0.384250
S2    S     S_3+6 0.283033 0.846544 0.576970 0.030962
O22   O     O_2   0.212063 0.870381 0.525756 -0.269637
O23   O     O_2   0.282706 0.699303 0.593388 -0.358544
O24   O     O_3   0.196340 0.905182 0.633812 -0.510367
H59   H     H_    0.112105 0.866763 0.631445 0.360767
O25   O     O_3   0.380124 0.286847 0.794088 -0.544493
C57   C     C_3   0.449638 0.178081 0.814220 0.064662
H60   H     H_    0.488068 0.204811 0.854836 0.158358
H61   H     H_    0.527173 0.149053 0.782659 0.111591
C58   C     C_3   0.364857 0.054730 0.825969 -0.731396
H62   H     H_    0.325940 0.024795 0.785869 0.263854
H63   H     H_    0.418073 0.968712 0.842246 0.202260
H64   H     H_    0.287748 0.078176 0.858516 0.259346

loop_
_geom_bond_atom_site_label_1
_geom_bond_atom_site_label_2
_ccdc_geom_bond_type
S2    O24   S    
C54   H50   S    
C23   O5    A    
C41   C42   A    
C19   C20   A    
C55   C56   S    
C36   O16   S    
C56   H57   S    
Cu2   N3    S    
O16   C51   S    
C28   H10   S    
C11   H24   S    
C7    C8    A    
Cu1   Cu2   S    
C15   H26   S    
C8    H23   S    
C37   C38   S    
C23   O6    A    
C18   C24   A    
C38   O18   S    
C9    O11   S    
C36   S2    S    
C25   H7    S    
C32   H15   S    
C29   C32   S    
C18   O25   S    
C36   N4    S    
C57   H61   S    
C35   S1    S    
C5    C6    A    
C27   H9    S    
C53   H49   S    
Cu1   O5    S    
O15   C49   S    
S2    O22   D    
C39   O7    A    
C48   H37   S    
C18   C19   A    
C40   O9    S    
C50   H40   S    
C48   H35   S    
C7    H22   S    
C52   H45   S    
O21   H58   S    
C35   C36   S    
C10   O12   S    
C16   C17   A    
C51   H44   S    
C49   H38   S    
C29   H14   S    
Cu1   O1    S    
C22   H4    S    
Cu2   O8    S    
C5    C43   A    
C13   C14   A    
C41   N1    A    
C1    O1    A    
C49   H39   S    
C3    H19   S    
C26   H8    S    
C21   H3    S    
C52   H46   S    
C41   O10   S    
C35   N3    S    
C15   C16   A    
C27   C31   S    
C16   H27   S    
C29   H13   S    
C53   H48   S    
O25   C57   S    
C27   H11   S    
C57   C58   S    
C45   H28   S    
C20   C39   S    
C19   H2    S    
C53   C54   S    
C56   H56   S    
C13   H25   S    
C54   H52   S    
S1    O21   S    
Cu2   O6    S    
C52   H47   S    
C23   C31   S    
C48   H36   S    
C43   C44   A    
C25   H5    S    
C29   C30   S    
C26   H6    S    
C45   H29   S    
Cu2   O4    S    
C10   N2    A    
C33   N3    S    
C31   C32   S    
C58   H64   S    
C33   H17   S    
C51   C52   S    
C37   H20   S    
C20   C21   A    
C34   H18   S    
C33   C34   S    
C38   H21   S    
C46   H31   S    
C50   H42   S    
C6    C7    A    
S1    O20   D    
C47   H34   S    
C37   N3    S    
C12   C14   S    
C26   C30   S    
C1    O2    A    
C49   C50   S    
C22   C24   A    
Cu1   O7    S    
C42   C43   A    
C39   O8    A    
C3    C4    A    
O24   H59   S    
C25   C30   S    
S2    O23   D    
C11   C17   A    
C54   H51   S    
C33   O13   S    
C28   C31   S    
C8    C44   A    
C58   H63   S    
C4    C5    A    
C55   H54   S    
C55   H53   S    
C6    C10   A    
C56   H55   S    
C38   N4    S    
C28   H12   S    
C2    H1    S    
C25   C27   S    
C26   C28   S    
C46   H32   S    
C47   H33   S    
C2    C3    A    
C4    C9    A    
C32   H16   S    
C34   N4    S    
C35   O15   S    
C57   H60   S    
C45   C46   S    
C11   C13   A    
C24   N1    S    
O13   C45   S    
Cu2   O2    S    
C2    C42   A    
C12   O3    A    
C1    C30   S    
C34   O14   S    
C40   N1    A    
C12   O4    A    
O18   C55   S    
Cu1   O3    S    
C46   H30   S    
C50   H41   S    
S1    O19   D    
C37   O17   S    
C40   C44   A    
C47   C48   S    
C58   H62   S    
O14   C47   S    
C17   N2    S    
C14   C15   A    
Cu1   N4    S    
C9    N2    A    
O17   C53   S    
C21   C22   A    
C51   H43   S    
