data_mof_unit_33957.cif
_audit_creation_date              2013-03-05T16:00:24-0500
_audit_creation_method            fapswitch 2.2
_symmetry_space_group_name_H-M    P1
_symmetry_Int_Tables_number       1
_space_group_crystal_system       triclinic
_cell_length_a                    8.205579
_cell_length_b                    12.716761
_cell_length_c                    26.931549
_cell_angle_alpha                 96.989436
_cell_angle_beta                  92.609897
_cell_angle_gamma                 81.389359
_cell_volume                      2756.870664

loop_
_atom_site_label
_atom_site_type_symbol
_atom_site_description
_atom_site_fract_x
_atom_site_fract_y
_atom_site_fract_z
_atom_type_partial_charge
P1    P     P_3+3 0.072810 0.589830 0.610360 0.483877
O1    O     O_2   0.907040 0.557650 0.617910 -0.362122
O2    O     O_3   0.139040 0.557570 0.557730 -0.403110
O3    O     O_3   0.684960 0.360550 0.588460 -0.386782
O4    O     O_2   0.843735 0.419765 0.672806 -0.405579
O5    O     O_3   0.041114 0.729240 0.624208 -0.550751
O6    O     O_3   0.675607 0.265668 0.679237 -0.504145
H1    H     H_    0.781799 0.167734 0.618470 0.155038
C1    C     C_3   0.647519 0.080788 0.662347 -0.968735
H2    H     H_    0.635341 0.015295 0.631759 0.239533
H3    H     H_    0.756571 0.056997 0.686603 0.273242
P2    P     P_3+3 0.661990 0.251250 0.462170 0.455120
P3    P     P_3+3 0.143262 0.167676 0.566021 0.433772
O7    O     O_2   0.841490 0.235060 0.476710 -0.378959
O8    O     O_3   0.099640 0.305100 0.564190 -0.394439
O9    O     O_2   0.008696 0.116094 0.534054 -0.382715
O10   O     O_3   0.661056 0.216160 0.397347 -0.576880
O11   O     O_3   0.117022 0.139147 0.626819 -0.531431
C2    C     C_3   0.178158 0.217768 0.660740 0.391637
H4    H     H_    0.109522 0.298275 0.656561 0.148090
H5    H     H_    0.310928 0.218430 0.655144 0.050835
C3    C     C_3   0.156364 0.194001 0.713775 -0.869326
H6    H     H_    0.023853 0.192997 0.720200 0.275440
H7    H     H_    0.227537 0.114977 0.719871 0.254418
C4    C     C_3   0.214016 0.223271 0.418080 0.371762
H8    H     H_    0.340471 0.241424 0.425893 0.099335
H9    H     H_    0.137135 0.251046 0.451334 0.139730
C5    C     C_3   0.218742 0.102959 0.406699 -0.883656
H10   H     H_    0.286181 0.073876 0.371851 0.261070
H11   H     H_    0.281589 0.061651 0.437683 0.231735
H12   H     H_    0.091270 0.083472 0.401506 0.270242
Ba1   Ba    Ba6+2 0.859560 0.448380 0.523550 1.543056
C6    C     C_3   0.981682 0.777458 0.581783 0.368718
H13   H     H_    0.853735 0.762909 0.573882 0.095725
H14   H     H_    0.057674 0.747287 0.548584 0.142753
C7    C     C_3   0.985293 0.897061 0.592950 -0.876160
H15   H     H_    0.921876 0.928171 0.628308 0.262189
H16   H     H_    0.922760 0.939573 0.562285 0.233784
H17   H     H_    0.114882 0.912800 0.597162 0.266919
C8    C     C_3   0.713891 0.295810 0.373477 0.414334
H18   H     H_    0.823090 0.324672 0.392978 0.112980
H19   H     H_    0.611768 0.363292 0.372000 0.100074
C9    C     C_3   0.760603 0.247798 0.320544 -0.932230
H20   H     H_    0.856851 0.176694 0.321940 0.278569
H21   H     H_    0.810170 0.306499 0.300481 0.225466
H22   H     H_    0.650581 0.222946 0.299418 0.262281
P4    P     P_3+3 0.116900 0.410080 0.389630 0.480263
O12   O     O_2   0.282660 0.442310 0.382060 -0.361460
O13   O     O_3   0.050670 0.442340 0.442260 -0.403649
O14   O     O_3   0.504750 0.639360 0.411530 -0.377881
O15   O     O_3   0.149620 0.270661 0.375878 -0.551733
P5    P     P_3+3 0.049895 0.833767 0.433923 0.433548
O16   O     O_3   0.618400 0.630290 0.524520 -0.380541
O17   O     O_3   0.090070 0.694820 0.435810 -0.397629
O18   O     O_2   0.185856 0.883696 0.465975 -0.377398
O19   O     O_3   0.079975 0.863455 0.373576 -0.532318
Ba2   Ba    Ba6+2 0.330270 0.551530 0.476440 1.542858
P6    P     P_3+3 0.676686 0.386036 0.653750 0.474072
C10   C     C_3   0.667144 0.182539 0.640272 0.446740
H23   H     H_    0.559053 0.202061 0.615148 0.041677
H24   H     H_    0.535529 0.093903 0.685189 0.272775
O20   O     O_3   0.571310 0.369620 0.475470 -0.388845
C11   C     C_3   0.479931 0.721153 0.628502 0.414090
H25   H     H_    0.368012 0.693856 0.609715 0.113305
H26   H     H_    0.580811 0.652489 0.628742 0.096624
C12   C     C_3   0.437749 0.766187 0.682094 -0.935396
H27   H     H_    0.342733 0.838303 0.682174 0.277272
H28   H     H_    0.388096 0.706108 0.701344 0.223704
H29   H     H_    0.549812 0.788558 0.702917 0.264256
P7    P     P_3+3 0.533213 0.764704 0.540230 0.420385
O21   O     O_2   0.348200 0.764910 0.523260 -0.371827
O22   O     O_3   0.532402 0.801776 0.604899 -0.581993
H30   H     H_    0.201217 0.256916 0.740897 0.246995
C13   C     C_3   0.029437 0.782478 0.338766 0.396885
H31   H     H_    0.099377 0.703325 0.344601 0.155247
H32   H     H_    0.895995 0.779351 0.341531 0.046398
C14   C     C_3   0.062716 0.805372 0.286392 -0.850154
H33   H     H_    0.194094 0.815269 0.283705 0.278514
H34   H     H_    0.036566 0.737487 0.258817 0.244021
H35   H     H_    0.983205 0.879719 0.277449 0.250070
P8    P     P_3+3 0.513839 0.616504 0.346196 0.467253
C15   C     C_3   0.536239 0.818167 0.360532 0.456511
H36   H     H_    0.650784 0.791686 0.381894 0.032700
O23   O     O_2   0.351370 0.576761 0.326584 -0.407174
O24   O     O_3   0.503478 0.739040 0.321861 -0.509830
H37   H     H_    0.430891 0.837907 0.386238 0.147812
H38   H     H_    0.666793 0.901804 0.313042 0.272920
C16   C     C_3   0.559558 0.918632 0.337927 -0.979911
H39   H     H_    0.581588 0.982969 0.368132 0.235764
H40   H     H_    0.447901 0.946215 0.315496 0.272903
C17   C     C_R   0.029195 0.413914 0.177806 0.549314
O25   O     O_2   0.070921 0.333666 0.198718 -0.583201
N1    N     N_R   0.938595 0.503399 0.203366 -0.164518
C18   C     C_R   0.886175 0.592940 0.178830 0.513355
C19   C     C_2   0.736482 0.525882 0.269858 -0.144250
C20   C     C_3   0.694023 0.518845 0.323581 0.154653
C21   C     C_1   0.985551 0.478152 0.342686 0.297407
C22   C     C_2   0.026435 0.474553 0.295044 -0.221194
C23   C     C_2   0.895825 0.502450 0.255532 0.105063
C24   C     C_R   0.022183 0.505215 0.102584 -0.063999
C25   C     C_R   0.071793 0.413709 0.127322 -0.065286
C26   C     C_R   0.158428 0.322593 0.100490 -0.075396
C27   C     C_R   0.927142 0.594874 0.128426 -0.045922
C28   C     C_2   0.842101 0.528833 0.358090 -0.481340
H41   H     H_    0.153731 0.451118 0.284399 0.189623
H42   H     H_    0.191434 0.249034 0.117448 0.173706
C29   C     C_2   0.353133 0.477244 0.641195 -0.474046
C30   C     C_R   0.224375 0.422708 0.977665 -0.117950
C31   C     C_R   0.038135 0.593152 0.974128 0.071026
C32   C     C_R   0.148879 0.506899 0.950246 0.072608
C33   C     C_R   0.354330 0.347860 0.954594 0.302465
C34   C     C_R   0.382410 0.345289 0.903444 -0.169603
C35   C     C_R   0.298716 0.422677 0.874917 -0.107294
C36   C     C_R   0.186037 0.505727 0.898671 -0.061544
C37   C     C_R   0.111344 0.588056 0.870928 -0.049406
C38   C     C_R   0.151231 0.586723 0.820129 0.532221
N2    N     N_R   0.259992 0.503382 0.796599 -0.165135
C39   C     C_R   0.332089 0.421214 0.823598 0.544942
C40   C     C_2   0.460322 0.486471 0.729613 -0.152029
C41   C     C_3   0.501672 0.489471 0.675315 0.161195
C42   C     C_1   0.207678 0.523242 0.656922 0.291473
C43   C     C_2   0.167932 0.523969 0.704366 -0.215596
C44   C     C_2   0.300778 0.503354 0.744069 0.099959
O26   O     O_2   0.424948 0.346113 0.802935 -0.579903
C45   C     C_R   0.168011 0.417471 0.026840 0.064154
C46   C     C_R   0.065974 0.506551 0.051738 0.098878
C47   C     C_R   0.005376 0.596209 0.026068 0.048851
C48   C     C_R   0.202295 0.323771 0.051121 -0.093345
H43   H     H_    0.560482 0.476940 0.757194 0.166360
H44   H     H_    0.479228 0.285991 0.886666 0.210437
H45   H     H_    0.258722 0.248641 0.031924 0.160929
O27   O     O_2   0.804279 0.671469 0.200918 -0.590167
C49   C     C_R   0.875008 0.684946 0.103358 -0.066735
H46   H     H_    0.637699 0.542019 0.242393 0.167561
H47   H     H_    0.803535 0.755834 0.122312 0.171977
C50   C     C_R   0.963049 0.673385 0.944903 -0.199739
C51   C     C_R   0.999250 0.670904 0.894661 -0.075722
O28   O     O_2   0.091010 0.661035 0.797191 -0.587643
C52   C     C_R   0.912481 0.685628 0.053400 -0.199523
H48   H     H_    0.872353 0.738661 0.959535 0.137783
H49   H     H_    0.938018 0.734779 0.874298 0.174053
H50   H     H_    0.039809 0.540350 0.714718 0.195145
H51   H     H_    0.869350 0.758855 0.037496 0.137334
H52   H     H_    0.832848 0.580102 0.393491 0.167254
H53   H     H_    0.365699 0.432502 0.604206 0.170179
C53   C     C_R   0.759826 0.820956 0.479961 -0.531221
C54   C     C_R   0.432876 0.189501 0.520825 -0.541326
C55   C     C_R   0.410597 0.010595 0.537500 -0.198368
C56   C     C_R   0.346993 0.118420 0.540461 0.219634
C57   C     C_R   0.576708 0.152858 0.494473 0.302909
C58   C     C_R   0.639987 0.041575 0.488811 -0.067360
C59   C     C_R   0.556150 0.970230 0.511501 -0.065888
C60   C     C_R   0.618373 0.859907 0.506701 0.275596
C61   C     C_R   0.846820 0.889806 0.459421 0.221713
C62   C     C_R   0.784951 0.999023 0.462121 -0.189198
H54   H     H_    0.341626 0.959266 0.554415 0.185950
H55   H     H_    0.853303 0.048979 0.444149 0.184580
H56   H     H_    0.808038 0.736546 0.477643 0.170861
H57   H     H_    0.382324 0.273545 0.523658 0.176063
N3    N     N_R   0.474904 0.284846 0.983362 0.225626
O29   O     O_R   0.540957 0.329500 0.023883 -0.389392
O30   O     O_R   0.538404 0.188730 0.965083 -0.392125

loop_
_geom_bond_atom_site_label_1
_geom_bond_atom_site_label_2
_geom_bond_distance
_ccdc_geom_bond_type
C12   H28   1.107841 S    
H38   C16   1.109780 S    
C11   H26   1.110029 S    
N1    C18   1.388817 Am   
C62   H55   1.076416 S    
P7    C60   1.829275 S    
Ba1   O16   2.808418 S    
C2    H4    1.107976 S    
C50   H48   1.077176 S    
C54   H57   1.081872 S    
C36   C37   1.409464 A    
O12   Ba2   2.784839 S    
P4    O13   1.527930 S    
C14   H33   1.110484 S    
C4    C5    1.518373 S    
C46   C47   1.419848 A    
C22   H41   1.084125 S    
C13   H32   1.107822 S    
O4    P6    1.544234 D    
C24   C46   1.434163 A    
C5    H10   1.106955 S    
C54   C56   1.390828 A    
O11   C2    1.404281 S    
C26   C48   1.395577 A    
H1    C10   1.111620 S    
C29   H53   1.086532 S    
C19   C23   1.359605 D    
C12   H29   1.110629 S    
P4    Ba2   3.363584 S    
P5    C61   1.840007 S    
C37   C38   1.418645 A    
C22   C23   1.510305 S    
C6    C7    1.518557 S    
O13   Ba2   2.913700 S    
C38   N2    1.387843 Am   
O1    Ba1   2.784461 S    
P1    O1    1.507043 D    
C51   H49   1.083577 S    
C40   H43   1.085536 S    
C52   H51   1.077246 S    
C31   C47   1.431190 A    
C8    C9    1.523077 S    
C19   C20   1.519710 S    
C13   C14   1.519114 S    
P2    O10   1.748471 S    
C45   C48   1.413898 A    
C58   C59   1.424757 A    
C28   H52   1.086405 S    
P7    O21   1.565099 D    
C58   C62   1.419471 A    
C30   C45   1.434816 A    
C1    H2    1.110272 S    
N1    C23   1.465383 S    
O6    P6    1.753439 S    
P5    O18   1.543991 D    
C8    H19   1.109127 S    
C12   H27   1.111078 S    
N2    C44   1.468465 S    
C11   C12   1.521818 S    
C10   H23   1.107450 S    
P2    Ba1   3.407268 S    
C31   C50   1.415331 A    
C47   C52   1.415542 A    
Ba1   Ba2   4.540626 S    
C17   C25   1.418744 A    
O16   P7    1.755710 S    
O6    C10   1.403178 S    
C34   C35   1.401412 A    
P5    O17   1.754793 S    
C21   C22   1.334627 D    
C38   O28   1.222006 D    
C14   H34   1.108022 S    
C11   O22   1.398683 S    
O19   C13   1.403137 S    
C13   H31   1.106597 S    
P1    O5    1.749157 S    
C25   C26   1.402317 A    
P2    C57   1.842457 S    
Ba2   O20   2.807843 S    
C2    C3    1.519184 S    
C55   C56   1.386285 A    
C17   O25   1.222101 D    
P8    C20   1.856711 S    
O16   Ba2   2.895556 S    
P4    O15   1.749096 S    
C4    H8    1.101942 S    
C15   H37   1.112098 S    
C7    H17   1.109442 S    
C19   H46   1.085714 S    
C18   O27   1.222132 D    
C11   H25   1.109180 S    
P1    O2    1.527925 S    
O10   C8    1.393737 S    
N3    O30   1.301546 A    
C33   N3    1.437058 S    
C4    O15   1.396718 S    
C37   C51   1.401426 A    
C17   N1    1.387137 Am   
P2    O20   1.582877 S    
P4    O12   1.507345 D    
C53   C61   1.386779 A    
C54   C57   1.394578 A    
P6    C41   1.858554 S    
C6    H13   1.099996 S    
C42   C43   1.331634 D    
C39   O26   1.222187 D    
Ba2   O21   2.871347 S    
C9    H21   1.106221 S    
C61   C62   1.399891 A    
O3    Ba1   2.745630 S    
P3    O11   1.749031 S    
C8    H18   1.105505 S    
C16   H40   1.110107 S    
C18   C27   1.417184 A    
C49   C52   1.395038 A    
C1    H3    1.110327 S    
C9    H20   1.111071 S    
C45   C46   1.419924 A    
C1    H24   1.109661 S    
C43   H50   1.083222 S    
C7    H16   1.106611 S    
C48   H45   1.078695 S    
O2    Ba2   2.738040 S    
C29   C41   1.508029 S    
P8    O23   1.544133 D    
C35   C36   1.405909 A    
C14   H35   1.110836 S    
C20   C28   1.506961 S    
C32   C36   1.433388 A    
C7    H15   1.107180 S    
C33   C34   1.402687 A    
C2    H5    1.108015 S    
C3    H6    1.110946 S    
O14   Ba2   2.745031 S    
C5    H12   1.109462 S    
C55   C59   1.409021 A    
O7    Ba1   2.871032 S    
C50   C51   1.394109 A    
O8    Ba1   2.759143 S    
C40   C41   1.522379 S    
O5    C6    1.396260 S    
C53   H56   1.082322 S    
C40   C44   1.361408 D    
C4    H9    1.110206 S    
C15   O24   1.403532 S    
P4    C21   1.836366 S    
C30   C33   1.428846 A    
N3    O29   1.301770 A    
P3    O8    1.736853 S    
P2    O7    1.497150 D    
P3    C56   1.829535 S    
C31   C32   1.423251 A    
C53   C60   1.388647 A    
C15   C16   1.520727 S    
C5    H11   1.106605 S    
C24   C25   1.409199 A    
C6    H14   1.109542 S    
C30   C32   1.423903 A    
C26   H42   1.083421 S    
C3    H7    1.110668 S    
C24   C27   1.408056 A    
C27   C49   1.402132 A    
O2    Ba1   2.912869 S    
C9    H22   1.110648 S    
P1    C42   1.834584 S    
Ba1   O13   2.737442 S    
C21   C28   1.313488 D    
Ba1   O20   2.896391 S    
C35   C39   1.418534 A    
P1    Ba1   3.363023 S    
C16   H39   1.110271 S    
C15   H36   1.109465 S    
P3    O9    1.543884 D    
O3    P6    1.751322 S    
C49   H47   1.083572 S    
C29   C42   1.312560 D    
C57   C58   1.424849 A    
P7    O22   1.748124 S    
C59   C60   1.411758 A    
C55   H54   1.077190 S    
C3    H30   1.109305 S    
C34   H44   1.083661 S    
C43   C44   1.508904 S    
N2    C39   1.389676 Am   
C1    C10   1.520510 S    
P8    O24   1.751774 S    
P5    O19   1.748904 S    
O14   P8    1.751304 S    
O17   Ba2   2.759688 S    
