data_mof_unit_52550.cif
_audit_creation_date              2012-12-11T14:54:30-0500
_audit_creation_method            fapswitch 2.2
_symmetry_space_group_name_H-M    P1
_symmetry_Int_Tables_number       1
_space_group_crystal_system       triclinic
_cell_length_a                    18.994299
_cell_length_b                    10.868169
_cell_length_c                    18.816522
_cell_angle_alpha                 90.046603
_cell_angle_beta                  90.074854
_cell_angle_gamma                 90.211348
_cell_volume                      3884.32477809

loop_
_atom_site_label
_atom_site_type_symbol
_atom_type_description
_atom_site_fract_x
_atom_site_fract_y
_atom_site_fract_z
_atom_type_partial_charge
C1    C     C_R   0.728280 0.373360 0.644167 0.544817
C2    C     C_R   0.307059 0.876647 0.462108 -0.140517
C3    C     C_R   0.043377 0.559181 0.447022 -0.146692
C4    C     C_R   0.208059 0.348112 0.540537 -0.157429
C5    C     C_R   0.807077 0.376721 0.462116 -0.140522
C6    C     C_R   0.709840 0.832654 0.467330 -0.141826
C7    C     C_R   0.302400 0.866259 0.535578 -0.146436
C8    C     C_R   0.209815 0.332693 0.467321 -0.141824
C9    C     C_R   0.802409 0.366324 0.535584 -0.146466
C10   C     C_R   0.750283 0.913184 0.425152 0.026075
C11   C     C_R   0.239969 0.899849 0.569700 0.031739
C12   C     C_R   0.250276 0.413203 0.425147 0.026088
C13   C     C_R   0.269777 0.376680 0.354079 0.538214
C14   C     C_R   0.739951 0.399805 0.569690 0.031730
C15   C     C_R   0.785223 0.012823 0.455818 -0.143060
C16   C     C_R   0.181740 0.939021 0.529664 -0.134257
C17   C     C_R   0.285231 0.512826 0.455817 -0.143052
C18   C     C_R   0.681702 0.438847 0.529638 -0.134258
C19   C     C_R   0.784309 0.026925 0.528382 -0.129794
C20   C     C_R   0.185382 0.944465 0.457060 -0.137657
C21   C     C_R   0.284321 0.526922 0.528381 -0.129786
C22   C     C_R   0.685362 0.444315 0.457035 -0.137682
C23   C     C_R   0.746706 0.943758 0.571291 0.027517
C24   C     C_R   0.228284 0.873369 0.644171 0.544819
C25   C     C_R   0.248863 0.919250 0.422975 0.029753
C26   C     C_R   0.246702 0.443768 0.571287 0.027533
C27   C     C_R   0.748868 0.419227 0.422969 0.029737
C28   C     C_R   0.554362 0.057379 0.978833 -0.095561
C29   C     C_R   0.535506 0.060003 0.049819 -0.106900
C30   C     C_R   0.054353 0.557377 0.978831 -0.095556
C31   C     C_R   0.035499 0.560002 0.049816 -0.106892
C32   C     C_R   0.506021 0.166591 0.079257 0.014666
C33   C     C_R   0.545604 0.161691 0.936389 0.026708
C34   C     C_R   0.006018 0.666590 0.079256 0.014661
C35   C     C_R   0.769778 0.876676 0.354081 0.538216
C36   C     C_R   0.045600 0.661691 0.936388 0.026706
C37   C     C_R   0.500939 0.273724 0.038061 -0.136854
C38   C     C_R   0.520631 0.271259 0.966802 -0.133546
C39   C     C_R   0.000938 0.773723 0.038061 -0.136856
C40   C     C_R   0.020629 0.771257 0.966802 -0.133550
C41   C     C_R   0.564894 0.150883 0.639089 0.560352
C42   C     C_R   0.469000 0.155377 0.353349 0.544099
C43   C     C_R   0.064899 0.650882 0.639090 0.560373
C44   C     C_R   0.969001 0.655375 0.353350 0.544099
C45   C     C_R   0.794026 0.014214 0.971145 -0.140778
C46   C     C_3   0.451747 0.359672 0.474396 -0.259121
C47   C     C_R   0.185393 0.936426 0.041869 -0.115771
C48   C     C_R   0.294061 0.514142 0.971133 -0.140771
C49   C     C_R   0.685398 0.436444 0.041864 -0.115762
C50   C     C_R   0.793943 0.003325 0.043723 -0.177041
C51   C     C_R   0.181150 0.930638 0.969221 -0.153023
C52   C     C_R   0.293975 0.503266 0.043711 -0.177039
C53   C     C_R   0.681159 0.430658 0.969217 -0.153027
C54   C     C_R   0.749873 0.917336 0.076500 0.033695
C55   C     C_R   0.240975 0.903827 0.928064 0.037757
C56   C     C_R   0.249882 0.417324 0.076496 0.033701
C57   C     C_3   0.474091 0.356938 0.551821 -0.260226
C58   C     C_R   0.740979 0.403835 0.928062 0.037756
C59   C     C_R   0.700014 0.850439 0.035301 0.213256
C60   C     C_R   0.306193 0.883357 0.961412 0.207279
C61   C     C_R   0.200008 0.350454 0.035302 0.213249
C62   C     C_R   0.806193 0.383358 0.961411 0.207264
C63   C     C_R   0.700804 0.861905 0.961879 -0.113852
C64   C     C_R   0.310396 0.892245 0.034903 -0.104135
C65   C     C_R   0.200794 0.361917 0.961880 -0.113852
C66   C     C_R   0.810395 0.392243 0.034902 -0.104148
C67   C     C_R   0.748133 0.942525 0.929642 -0.014701
C68   C     C_3   0.951900 0.859801 0.474351 -0.259214
C69   C     C_R   0.250353 0.922278 0.074913 -0.015529
C70   C     C_R   0.248141 0.442499 0.929637 -0.014696
C71   C     C_R   0.750354 0.422284 0.074911 -0.015534
C72   C     C_R   0.740554 0.972767 0.645952 0.539627
C73   C     C_R   0.258460 0.967813 0.352105 0.539235
C74   C     C_R   0.240553 0.472771 0.645950 0.539623
C75   C     C_R   0.758461 0.467811 0.352104 0.539232
C76   C     C_R   0.728688 0.376411 0.853624 0.574202
C77   C     C_R   0.269635 0.378794 0.147668 0.564967
C78   C     C_R   0.228687 0.876409 0.853625 0.574204
C79   C     C_3   0.974250 0.857072 0.551776 -0.260267
C80   C     C_R   0.769633 0.878796 0.147669 0.564959
C81   C     C_R   0.563316 0.153333 0.861009 0.556207
C82   C     C_R   0.469190 0.157360 0.147154 0.548921
C83   C     C_R   0.063315 0.653333 0.861009 0.556209
C84   C     C_R   0.969189 0.657360 0.147154 0.548928
C85   C     C_R   0.740742 0.973941 0.855473 0.543994
C86   C     C_R   0.258749 0.969716 0.146103 0.551978
C87   C     C_R   0.240744 0.473933 0.855470 0.543994
C88   C     C_R   0.758749 0.469717 0.146102 0.551980
C89   C     C_R   0.510934 0.164722 0.418451 0.016733
C90   C     C_R   0.708084 0.848076 0.540545 -0.157437
C91   C     C_R   0.551573 0.158789 0.562620 0.015062
C92   C     C_R   0.010945 0.664705 0.418448 0.016733
C93   C     C_R   0.051594 0.658783 0.562616 0.015056
C94   C     C_R   0.510254 0.271709 0.459792 0.005535
C95   C     C_R   0.530530 0.268891 0.530484 0.012160
C96   C     C_R   0.010334 0.771710 0.459767 0.005568
C97   C     C_R   0.030618 0.768897 0.530458 0.012233
C98   C     C_R   0.563066 0.056176 0.518771 -0.151932
C99   C     C_R   0.543414 0.059226 0.447008 -0.146678
C100  C     C_R   0.063033 0.556137 0.518784 -0.151930
Cl1   Cl    Cl    0.635193 0.751836 0.071166 -0.628710
Cl2   Cl    Cl    0.384328 0.854861 0.913777 -0.587926
Cl3   Cl    Cl    0.135174 0.251885 0.071175 -0.628707
Cl4   Cl    Cl    0.884325 0.354855 0.913778 -0.587935
Cr1   Cr    Cr6+3 0.771950 0.169480 0.750100 1.062600
Cr2   Cr    Cr6+3 0.383410 0.010620 0.249390 1.027133
Cr3   Cr    Cr6+3 0.116590 0.510620 0.750610 1.040100
Cr4   Cr    Cr6+3 0.883410 0.510620 0.249390 1.027131
Cr5   Cr    Cr6+3 0.228050 0.169480 0.249900 1.070077
Cr6   Cr    Cr6+3 0.271950 0.669480 0.750100 1.062595
Cr7   Cr    Cr6+3 0.728050 0.669480 0.249900 1.070079
Cr8   Cr    Cr6+3 0.614930 0.323340 0.749170 1.022720
Cr9   Cr    Cr6+3 0.385070 0.323340 0.250830 1.022989
Cr10  Cr    Cr6+3 0.114930 0.823340 0.749170 1.022724
Cr11  Cr    Cr6+3 0.885070 0.823340 0.250830 1.022998
Cr12  Cr    Cr6+3 0.616590 0.010620 0.750610 1.040109
H1    H     H_    0.582451 0.971124 0.541053 0.136273
H2    H     H_    0.361493 0.883363 0.060015 0.173838
H3    H     H_    0.163136 0.310553 0.930154 0.162350
H4    H     H_    0.861488 0.383352 0.060016 0.173838
H5    H     H_    0.898993 0.818563 0.465179 0.162843
H6    H     H_    0.996182 0.946266 0.570642 0.135017
H7    H     H_    0.398865 0.318316 0.465210 0.162798
H8    H     H_    0.495958 0.446178 0.570711 0.135051
H9    H     H_    0.460572 0.450519 0.448739 0.137890
H10   H     H_    0.434002 0.314533 0.587319 0.162214
H11   H     H_    0.960788 0.950598 0.448671 0.137859
H12   H     H_    0.547614 0.975510 0.416052 0.137263
H13   H     H_    0.934140 0.814788 0.587285 0.162235
H14   H     H_    0.677321 0.785547 0.572947 0.123755
H15   H     H_    0.356876 0.857235 0.436576 0.133450
H16   H     H_    0.177282 0.285596 0.572936 0.123722
H17   H     H_    0.856913 0.357406 0.436598 0.133488
H18   H     H_    0.816552 0.075687 0.424132 0.127758
H19   H     H_    0.132071 0.963180 0.554037 0.138056
H20   H     H_    0.316575 0.575678 0.424133 0.127733
H21   H     H_    0.632010 0.462904 0.554000 0.138103
H22   H     H_    0.812778 0.104223 0.550762 0.140040
H23   H     H_    0.082375 0.471069 0.541078 0.136270
H24   H     H_    0.139574 0.976558 0.428156 0.132657
H25   H     H_    0.312807 0.604202 0.550763 0.140003
H26   H     H_    0.639545 0.476324 0.428117 0.132665
H27   H     H_    0.831434 0.057907 0.073829 0.151852
H28   H     H_    0.129979 0.945545 0.945553 0.154356
H29   H     H_    0.331483 0.557821 0.073811 0.151869
H30   H     H_    0.629992 0.445574 0.945547 0.154369
H31   H     H_    0.682952 0.753998 0.444393 0.139332
H32   H     H_    0.347172 0.832893 0.565506 0.126784
H33   H     H_    0.182912 0.254051 0.444381 0.139291
H34   H     H_    0.047532 0.475444 0.416083 0.137270
H35   H     H_    0.847195 0.333047 0.565525 0.126803
H36   H     H_    0.573382 0.972282 0.956333 0.161587
H37   H     H_    0.540108 0.976195 0.080531 0.185710
H38   H     H_    0.073370 0.472280 0.956330 0.161591
H39   H     H_    0.040097 0.476194 0.080527 0.185737
H40   H     H_    0.477863 0.356821 0.059512 0.145548
H41   H     H_    0.513518 0.353324 0.935066 0.142683
H42   H     H_    0.977864 0.856819 0.059513 0.145560
H43   H     H_    0.013516 0.853321 0.935066 0.142690
H44   H     H_    0.829333 0.081510 0.947913 0.192439
H45   H     H_    0.138523 0.959498 0.071780 0.177728
H46   H     H_    0.329389 0.581398 0.947896 0.192428
H47   H     H_    0.638531 0.459522 0.071775 0.177754
H48   H     H_    0.663162 0.810513 0.930148 0.162353
O1    O     O_R   0.787510 0.042610 0.670410 -0.520212
O2    O     O_R   0.454250 0.051070 0.169440 -0.514611
O3    O     O_R   0.045750 0.551070 0.830560 -0.463118
O4    O     O_R   0.954250 0.551070 0.169440 -0.514605
O5    O     O_R   0.681210 0.959150 0.825320 -0.525596
O6    O     O_R   0.318790 0.959150 0.174680 -0.513660
O7    O     O_R   0.181210 0.459150 0.825320 -0.525597
O8    O     O_R   0.818790 0.459150 0.174680 -0.513660
O9    O     O_3   0.667820 0.167810 0.749960 -0.307037
O10   O     O_3   0.332180 0.167810 0.250040 -0.252509
O11   O     O_3   0.167820 0.667810 0.749960 -0.307032
O12   O     O_R   0.212490 0.042610 0.329590 -0.529220
O13   O     O_3   0.832180 0.667810 0.250040 -0.252506
O14   O     O_R   0.765670 0.292090 0.675090 -0.500485
O15   O     O_R   0.234330 0.292090 0.324910 -0.507948
O16   O     O_R   0.265670 0.792090 0.675090 -0.500486
O17   O     O_R   0.734330 0.792090 0.324910 -0.507951
O18   O     O_R   0.670220 0.409020 0.668560 -0.532123
O19   O     O_R   0.329780 0.409020 0.331440 -0.528812
O20   O     O_R   0.170220 0.909020 0.668560 -0.532134
O21   O     O_R   0.829780 0.909020 0.331440 -0.528809
O22   O     O_R   0.556580 0.251590 0.674980 -0.492075
O23   O     O_R   0.287510 0.542610 0.670410 -0.520221
O24   O     O_R   0.443420 0.251590 0.325020 -0.499910
O25   O     O_R   0.056580 0.751590 0.674980 -0.492068
O26   O     O_R   0.943420 0.751590 0.325020 -0.499908
O27   O     O_R   0.545890 0.049670 0.670030 -0.499253
O28   O     O_R   0.454110 0.049670 0.329970 -0.523455
O29   O     O_R   0.045890 0.549670 0.670030 -0.499270
O30   O     O_R   0.954110 0.549670 0.329970 -0.523475
O31   O     O_R   0.681340 0.957860 0.676500 -0.520893
O32   O     O_R   0.318660 0.957860 0.323500 -0.508505
O33   O     O_R   0.181340 0.457860 0.676500 -0.520897
O34   O     O_R   0.712490 0.542610 0.329590 -0.529205
O35   O     O_R   0.818660 0.457860 0.323500 -0.508519
O36   O     O_R   0.787380 0.044010 0.830940 -0.497118
O37   O     O_R   0.212620 0.044010 0.169060 -0.469001
O38   O     O_R   0.287380 0.544010 0.830940 -0.497128
O39   O     O_R   0.712620 0.544010 0.169060 -0.468993
O40   O     O_R   0.765540 0.293390 0.823910 -0.445039
O41   O     O_R   0.234460 0.293390 0.176090 -0.435812
O42   O     O_R   0.265540 0.793390 0.823910 -0.445031
O43   O     O_R   0.734460 0.793390 0.176090 -0.435817
O44   O     O_R   0.670090 0.410410 0.829090 -0.539180
O45   O     O_R   0.556450 0.252890 0.823790 -0.497272
O46   O     O_R   0.329910 0.410410 0.170910 -0.533499
O47   O     O_R   0.170090 0.910410 0.829090 -0.539178
O48   O     O_R   0.829910 0.910410 0.170910 -0.533483
O49   O     O_R   0.443550 0.252890 0.176210 -0.501972
O50   O     O_R   0.056450 0.752890 0.823790 -0.497269
O51   O     O_R   0.943550 0.752890 0.176210 -0.501969
O52   O     O_R   0.545750 0.051070 0.830560 -0.463113

loop_
_geom_bond_atom_site_label_1
_geom_bond_atom_site_label_2
_ccdc_geom_bond_type
C58   C62   A    
C81   O45   A    
C21   C26   A    
C52   H29   S    
C88   O8    A    
C53   C58   A    
C93   C97   A    
C24   O20   A    
C72   O1    A    
Cr10  O50   S    
C46   H9    S    
C19   C23   A    
C2    C7    A    
Cr11  O26   S    
Cr2   O28   S    
Cr1   O14   S    
C4    C8    A    
C72   O31   A    
Cr5   O12   S    
C58   C76   S    
C4    H16   S    
C15   H18   S    
Cr3   O7    S    
Cr6   O11   S    
C7    C11   A    
C50   C54   A    
Cr11  O48   S    
C89   C99   A    
Cr2   O2    S    
C28   C29   A    
C61   Cl3   S    
C25   C73   S    
Cr9   O46   S    
C7    H32   S    
C29   C32   A    
C10   C15   A    
Cr7   O34   S    
Cr8   O22   S    
C30   C31   A    
Cr11  O21   S    
C60   Cl2   S    
C81   O52   A    
C48   H46   S    
C20   C25   A    
C36   C83   S    
C65   C70   A    
C79   H13   S    
C11   C24   S    
C92   C96   A    
C64   H2    S    
C76   O44   A    
C11   C16   A    
C89   C94   A    
C14   C18   A    
C47   C69   A    
C35   O21   A    
C40   H43   S    
C44   O26   A    
C5    C27   A    
Cr12  O31   S    
C3    C100  A    
Cr1   O36   S    
C47   C51   A    
C13   O19   A    
C12   C17   A    
C24   O16   A    
Cr12  O5    S    
C10   C35   S    
Cr9   O49   S    
C87   O38   A    
C62   Cl4   S    
C44   C92   S    
C84   O51   A    
C16   C20   A    
C80   O48   A    
C68   C79   S    
Cr8   O9    S    
Cr4   O4    S    
C88   O39   A    
Cr10  O25   S    
C66   H4    S    
C55   C60   A    
Cr2   O6    S    
C37   H40   S    
C45   H44   S    
C34   C84   S    
C27   C75   S    
C70   C87   S    
C63   C67   A    
C54   C59   A    
C65   H3    S    
C63   H48   S    
C79   H6    S    
Cr3   O3    S    
Cr6   O23   S    
C67   C85   S    
C62   C66   A    
C86   O37   A    
C34   C39   A    
C59   Cl1   S    
C36   C40   A    
Cr8   O44   S    
Cr7   O39   S    
C39   C40   A    
Cr3   O33   S    
C55   C78   S    
C41   O27   A    
Cr5   O10   S    
Cr1   O40   S    
Cr8   O18   S    
C64   C69   A    
C6    C90   A    
Cr9   O24   S    
C83   O3    A    
C42   O28   A    
C85   O5    A    
C56   C77   S    
C3    C92   A    
C47   H45   S    
Cr10  O47   S    
C18   H21   S    
C15   C19   A    
C9    C14   A    
C78   O42   A    
C5    C9    A    
C37   C38   A    
C84   O4    A    
C100  H23   S    
C77   O41   A    
C82   O49   A    
C1    O14   A    
Cr5   O15   S    
C85   O36   A    
C4    C26   A    
C66   C71   A    
C46   C94   S    
C74   O33   A    
Cr6   O16   S    
C8    C12   A    
C87   O7    A    
C96   C97   A    
C22   H26   S    
C17   H20   S    
C2    H15   S    
Cr2   O10   S    
C23   C90   A    
Cr11  O51   S    
Cr6   O42   S    
C68   C96   S    
C32   C37   A    
Cr5   O41   S    
C93   C100  A    
Cr11  O13   S    
C77   O46   A    
C5    H17   S    
Cr12  O9    S    
Cr10  O11   S    
C41   C91   S    
Cr12  O27   S    
C33   C81   S    
C28   C33   A    
C28   H36   S    
C22   C27   A    
Cr4   O8    S    
C46   C57   S    
C57   C95   S    
C46   H7    S    
Cr4   O30   S    
Cr10  O20   S    
Cr7   O43   S    
C57   H10   S    
C83   O50   A    
C31   C34   A    
C50   H27   S    
C98   H1    S    
C29   H37   S    
C74   O23   A    
C82   O2    A    
C75   O34   A    
C42   O24   A    
C9    H35   S    
C3    H34   S    
Cr7   O13   S    
Cr3   O29   S    
Cr2   O32   S    
C86   O6    A    
C44   O30   A    
C23   C72   S    
C79   C97   S    
C38   H41   S    
C48   C70   A    
C68   H5    S    
C6    C10   A    
C31   H39   S    
C1    O18   A    
C76   O40   A    
C99   H12   S    
C75   O35   A    
C35   O17   A    
C32   C82   S    
C43   O29   A    
C59   C63   A    
C33   C38   A    
Cr7   O17   S    
C30   C36   A    
C60   C64   A    
C42   C89   S    
Cr8   O45   S    
C20   H24   S    
Cr4   O35   S    
C18   C22   A    
C8    H33   S    
C54   C80   S    
C21   H25   S    
C39   H42   S    
C13   O15   A    
C57   H8    S    
C6    H31   S    
Cr12  O52   S    
Cr9   O19   S    
Cr3   O11   S    
C45   C50   A    
C73   O12   A    
C19   H22   S    
C49   C53   A    
Cr5   O37   S    
C53   H30   S    
C43   C93   S    
Cr1   O1    S    
Cr4   O13   S    
C2    C25   A    
C51   C55   A    
C91   C98   A    
C94   C95   A    
C17   C21   A    
C49   H47   S    
C68   H11   S    
C71   C88   S    
C90   H14   S    
C61   C65   A    
C30   H38   S    
C80   O43   A    
C12   C13   S    
C43   O25   A    
C91   C95   A    
C26   C74   S    
C98   C99   A    
C49   C71   A    
C73   O32   A    
C41   O22   A    
Cr6   O38   S    
C51   H28   S    
C56   C61   A    
Cr1   O9    S    
C1    C14   S    
C48   C52   A    
C16   H19   S    
C45   C67   A    
C78   O47   A    
C69   C86   S    
C52   C56   A    
Cr9   O10   S    
