data_mof_unit_54360.cif
_audit_creation_date              2012-12-10T16:57:06-0500
_audit_creation_method            fapswitch 2.2
_symmetry_space_group_name_H-M    P1
_symmetry_Int_Tables_number       1
_space_group_crystal_system       triclinic
_cell_length_a                    7.752512
_cell_length_b                    8.575356
_cell_length_c                    16.954535
_cell_angle_alpha                 91.394107
_cell_angle_beta                  82.834373
_cell_angle_gamma                 93.591217
_cell_volume                      1115.99217471

loop_
_atom_site_label
_atom_site_type_symbol
_atom_type_description
_atom_site_fract_x
_atom_site_fract_y
_atom_site_fract_z
_atom_type_partial_charge
C1    C     C_R   0.546076 0.794708 0.497911 0.970634
C2    C     C_R   0.369196 0.540253 0.231350 -0.296080
C3    C     C_R   0.651500 0.496544 0.848967 0.469057
C4    C     C_R   0.343832 0.511171 0.152942 0.394385
C5    C     C_R   0.518572 0.569705 0.897519 -0.035040
C6    C     C_R   0.468667 0.428992 0.103997 -0.002577
C7    C     C_R   0.375435 0.623410 0.865943 -0.128151
C8    C     C_R   0.608940 0.367831 0.134801 -0.082699
C9    C     C_R   0.360156 0.599468 0.785940 -0.172830
C10   C     C_R   0.629447 0.392877 0.214267 -0.159258
C11   C     C_2   0.511306 0.567164 0.982653 -0.046225
C12   C     C_R   0.453925 0.205292 0.502073 0.967477
C13   C     C_2   0.473342 0.431106 0.018886 -0.068433
C14   C     C_2   0.570390 0.958131 0.496716 -0.366352
C15   C     C_2   0.429613 0.041867 0.503244 -0.368976
C16   C     C_R   0.481991 0.504107 0.653308 0.904408
C17   C     C_R   0.518047 0.496620 0.346725 0.897278
C18   C     C_R   0.487791 0.520807 0.737962 -0.128195
C19   C     C_R   0.511159 0.481543 0.262167 -0.080230
C20   C     C_R   0.633409 0.470843 0.769480 -0.265217
H1    H     H_    0.733579 0.411991 0.731942 0.215654
H2    H     H_    0.296613 0.990984 0.509469 0.183418
H3    H     H_    0.022528 0.382737 0.440082 0.191775
H4    H     H_    0.977473 0.617281 0.559907 0.198946
H5    H     H_    0.989898 0.517733 0.228299 0.332195
H6    H     H_    0.085729 0.349140 0.833538 0.393095
H7    H     H_    0.276247 0.606946 0.269011 0.195472
H8    H     H_    0.735514 0.341860 0.238370 0.157140
H9    H     H_    0.249543 0.642236 0.761705 0.204716
H10   H     H_    0.457973 0.322059 0.985705 0.179809
H11   H     H_    0.528642 0.676071 0.015707 0.189913
H12   H     H_    0.272826 0.678605 0.903807 0.234874
H13   H     H_    0.705143 0.305173 0.096791 0.221171
H14   H     H_    0.703390 0.009014 0.490488 0.183354
N1    N     N_2   0.953500 0.457650 0.478520 -0.173642
N2    N     N_2   0.046500 0.542350 0.521480 -0.168046
O1    O     O_R   0.388470 0.738640 0.505270 -0.615710
O2    O     O_2   0.079814 0.449951 0.066363 -0.246797
O3    O     O_3   0.002190 0.612960 0.195733 -0.519162
O4    O     O_2   0.908142 0.564484 0.938420 -0.234605
O5    O     O_2   0.798008 0.290602 0.932077 -0.310337
O6    O     O_3   0.996157 0.402981 0.809467 -0.583607
O7    O     O_R   0.611530 0.261360 0.494730 -0.615186
O8    O     O_R   0.679650 0.711510 0.491500 -0.625679
O9    O     O_R   0.320350 0.288490 0.508500 -0.626082
O10   O     O_R   0.337210 0.515200 0.623500 -0.603875
O11   O     O_R   0.662790 0.484800 0.376500 -0.615965
O12   O     O_R   0.628380 0.488060 0.609730 -0.631570
O13   O     O_R   0.371620 0.511940 0.390270 -0.635724
O14   O     O_2   0.197468 0.721130 0.071957 -0.262966
S1    S     S_3+6 0.153213 0.574476 0.118779 0.041788
S2    S     S_3+6 0.841303 0.437639 0.885412 0.020394
Zn1   Zn    Zn3+2 0.305580 0.518120 0.509190 0.963549
Zn2   Zn    Zn3+2 0.694420 0.481880 0.490810 0.958713

loop_
_geom_bond_atom_site_label_1
_geom_bond_atom_site_label_2
_ccdc_geom_bond_type
C14   H14   S    
O3    S1    S    
C3    S2    S    
C2    H7    S    
N2    Zn1   S    
C9    H9    S    
C9    C18   A    
C1    O8    A    
C2    C4    A    
N1    N2    D    
C12   C15   S    
C1    O1    A    
C10   C19   A    
O1    Zn1   S    
C7    C9    A    
C16   O12   A    
O14   S1    D    
C11   H11   S    
C3    C20   A    
C15   H2    S    
H5    O3    S    
N1    Zn2   S    
O12   Zn2   S    
C11   C13   D    
H4    N2    S    
O11   Zn2   S    
O13   Zn1   S    
O10   Zn1   S    
C4    C6    A    
C17   C19   S    
C5    C11   S    
C12   O7    A    
H3    N1    S    
C8    H13   S    
O2    S1    D    
C7    H12   S    
C4    S1    S    
C16   O10   A    
O8    Zn2   S    
C13   H10   S    
C20   H1    S    
H6    O6    S    
C18   C20   A    
C16   C18   S    
C10   H8    S    
C5    C7    A    
C14   C15   D    
C12   O9    A    
C6    C8    A    
C1    C14   S    
O7    Zn2   S    
C3    C5    A    
C2    C19   A    
O4    S2    D    
O9    Zn1   S    
C8    C10   A    
C17   O13   A    
C17   O11   A    
O6    S2    S    
O5    S2    D    
C6    C13   S    
