data_mof_unit_48475.cif
_audit_creation_date              2012-12-11T14:04:14-0500
_audit_creation_method            fapswitch 2.2
_symmetry_space_group_name_H-M    P1
_symmetry_Int_Tables_number       1
_space_group_crystal_system       triclinic
_cell_length_a                    19.009133
_cell_length_b                    11.042839
_cell_length_c                    18.639253
_cell_angle_alpha                 89.182564
_cell_angle_beta                  90.187925
_cell_angle_gamma                 89.009918
_cell_volume                      3911.64835197

loop_
_atom_site_label
_atom_site_type_symbol
_atom_type_description
_atom_site_fract_x
_atom_site_fract_y
_atom_site_fract_z
_atom_type_partial_charge
C1    C     C_R   0.239897 0.468469 0.646805 0.562834
C2    C     C_R   0.991411 0.683986 0.576337 0.018473
C3    C     C_R   0.501871 0.150585 0.428332 0.015850
C4    C     C_R   0.491411 0.183986 0.576337 0.018473
C5    C     C_R   0.051623 0.853179 0.411737 0.146190
C6    C     C_R   0.020575 0.905237 0.555853 0.144057
C7    C     C_R   0.551623 0.353179 0.411737 0.146190
C8    C     C_R   0.520575 0.405237 0.555853 0.144057
C9    C     C_R   0.057499 0.969639 0.437461 -0.122477
C10   C     C_R   0.042870 0.995571 0.508227 -0.142596
C11   C     C_R   0.557499 0.469639 0.437461 -0.122477
C12   C     C_R   0.760166 0.465340 0.352543 0.547236
C13   C     C_R   0.542870 0.495571 0.508227 -0.142596
C14   C     C_R   0.011666 0.783890 0.531081 -0.017535
C15   C     C_R   0.022165 0.762027 0.456684 -0.013940
C16   C     C_R   0.511666 0.283890 0.531081 -0.017535
C17   C     C_R   0.522165 0.262027 0.456684 -0.013940
C18   C     C_R   0.962544 0.582006 0.545505 -0.058962
C19   C     C_R   0.984778 0.552653 0.475906 -0.053265
C20   C     C_R   0.462544 0.082006 0.545505 -0.058962
C21   C     C_R   0.484778 0.052653 0.475906 -0.053265
C22   C     C_R   0.923102 0.498466 0.586779 0.245615
C23   C     C_R   0.739896 0.968469 0.646805 0.562834
C24   C     C_R   0.987701 0.427122 0.458086 0.304651
C25   C     C_R   0.423102 0.998466 0.586779 0.245616
C26   C     C_R   0.487702 0.927122 0.458086 0.304651
C27   C     C_R   0.920848 0.378418 0.565117 -0.157628
C28   C     C_R   0.955733 0.342206 0.503407 -0.158031
C29   C     C_R   0.420848 0.878418 0.565117 -0.157628
C30   C     C_R   0.455733 0.842206 0.503407 -0.158031
C31   C     C_2   0.258405 0.937195 0.912949 -0.086023
C32   C     C_2   0.740725 0.940567 0.087031 -0.107027
C33   C     C_2   0.758405 0.437195 0.912949 -0.086023
C34   C     C_R   0.260166 0.965340 0.352543 0.547235
C35   C     C_2   0.240725 0.440567 0.087031 -0.107027
C36   C     C_2   0.270948 0.986842 0.066145 -0.109021
C37   C     C_2   0.727572 0.988983 0.933655 -0.097344
C38   C     C_2   0.770948 0.486842 0.066145 -0.109021
C39   C     C_2   0.227572 0.488983 0.933655 -0.097344
C40   C     C_R   0.208730 0.829293 0.640088 0.593451
C41   C     C_R   0.772878 0.873181 0.352432 0.563715
C42   C     C_R   0.708730 0.329293 0.640088 0.593451
C43   C     C_R   0.272878 0.373181 0.352432 0.563715
C44   C     C_2   0.237587 0.061469 0.019573 -0.160241
C45   C     C_2   0.264291 0.783791 0.525171 -0.182707
C46   C     C_2   0.760219 0.063440 0.978510 -0.166218
C47   C     C_2   0.737587 0.561469 0.019573 -0.160241
C48   C     C_2   0.260219 0.563440 0.978510 -0.166218
C49   C     C_2   0.222091 0.025297 0.945943 -0.138853
C50   C     C_2   0.776213 0.027536 0.052723 -0.149095
C51   C     C_2   0.722091 0.525297 0.945943 -0.138853
C52   C     C_2   0.276213 0.527536 0.052723 -0.149095
C53   C     C_2   0.987969 0.664815 0.914891 -0.084005
C54   C     C_2   0.987416 0.656096 0.072435 -0.097680
C55   C     C_2   0.487969 0.164815 0.914891 -0.084005
C56   C     C_2   0.726072 0.823931 0.468279 -0.090255
C57   C     C_2   0.487416 0.156096 0.072435 -0.097680
C58   C     C_2   0.959416 0.572059 0.029543 -0.155766
C59   C     C_2   0.973286 0.566103 0.953357 -0.157691
C60   C     C_2   0.459416 0.072059 0.029543 -0.155766
C61   C     C_2   0.473286 0.066103 0.953357 -0.157691
C62   C     C_R   0.029680 0.659054 0.644646 0.607137
C63   C     C_R   0.969910 0.651489 0.355760 0.591676
C64   C     C_R   0.529680 0.159054 0.644646 0.607137
C65   C     C_R   0.469910 0.151489 0.355760 0.591676
C66   C     C_R   0.223992 0.518442 0.858059 0.571054
C67   C     C_2   0.764291 0.283791 0.525171 -0.182707
C68   C     C_R   0.775327 0.518388 0.141030 0.558157
C69   C     C_R   0.723992 0.018442 0.858059 0.571054
C70   C     C_R   0.275327 0.018388 0.141030 0.558157
C71   C     C_R   0.228896 0.876625 0.851236 0.592738
C72   C     C_R   0.771072 0.877183 0.148788 0.547713
C73   C     C_R   0.728896 0.376625 0.851236 0.592738
C74   C     C_R   0.271072 0.377183 0.148788 0.547713
C75   C     C_R   0.027415 0.652916 0.849187 0.576971
C76   C     C_R   0.968094 0.651633 0.147405 0.543933
C77   C     C_R   0.527415 0.152916 0.849187 0.576971
C78   C     C_2   0.226072 0.323931 0.468279 -0.090255
C79   C     C_R   0.468094 0.151633 0.147405 0.543933
C80   C     C_2   0.223376 0.856516 0.565566 -0.071642
C81   C     C_2   0.751092 0.909405 0.423399 -0.065087
C82   C     C_2   0.723376 0.356516 0.565566 -0.071642
C83   C     C_2   0.251092 0.409405 0.423399 -0.065087
C84   C     C_2   0.240412 0.893820 0.414423 -0.123850
C85   C     C_2   0.757146 0.909861 0.580263 -0.103160
C86   C     C_2   0.740412 0.393820 0.414423 -0.123850
C87   C     C_2   0.257146 0.409861 0.580263 -0.103160
C88   C     C_2   0.283768 0.820817 0.451753 -0.166419
C89   C     C_R   0.001871 0.650585 0.428332 0.015850
C90   C     C_2   0.709878 0.850741 0.542497 -0.114363
C91   C     C_2   0.783768 0.320817 0.451753 -0.166419
C92   C     C_2   0.209878 0.350741 0.542497 -0.114363
C93   C     C_3   0.127244 0.734203 0.329640 -0.265800
C94   C     C_3   0.929054 0.956072 0.640062 -0.252665
C95   C     C_3   0.627244 0.234202 0.329640 -0.265800
C96   C     C_3   0.429054 0.456072 0.640062 -0.252665
Cr1   Cr    Cr6+3 0.113970 0.508630 0.747920 1.020601
Cr2   Cr    Cr6+3 0.887700 0.820070 0.250200 1.041374
Cr3   Cr    Cr6+3 0.612300 0.320070 0.749800 1.042446
Cr4   Cr    Cr6+3 0.387700 0.320070 0.250200 1.041374
Cr5   Cr    Cr6+3 0.886030 0.508630 0.252080 1.091284
Cr6   Cr    Cr6+3 0.613970 0.008630 0.747920 1.020601
Cr7   Cr    Cr6+3 0.386030 0.008630 0.252080 1.091284
Cr8   Cr    Cr6+3 0.269200 0.666740 0.749850 1.034748
Cr9   Cr    Cr6+3 0.730800 0.666740 0.250150 1.033134
Cr10  Cr    Cr6+3 0.769200 0.166740 0.749850 1.034748
Cr11  Cr    Cr6+3 0.230800 0.166740 0.250150 1.033134
Cr12  Cr    Cr6+3 0.112300 0.820070 0.749800 1.042446
H1    H     H_    0.334863 0.794939 0.430706 0.163247
H2    H     H_    0.705418 0.903815 0.951340 0.105710
H3    H     H_    0.793764 0.400644 0.050241 0.096980
H4    H     H_    0.205418 0.403815 0.951340 0.105710
H5    H     H_    0.307823 0.901803 0.934541 0.090820
H6    H     H_    0.691303 0.907635 0.066317 0.102334
H7    H     H_    0.807823 0.401803 0.934541 0.090820
H8    H     H_    0.191303 0.407635 0.066317 0.102334
H9    H     H_    0.928324 0.498741 0.051513 0.151446
H10   H     H_    0.976874 0.476341 0.930348 0.155181
H11   H     H_    0.428324 0.998741 0.051513 0.151446
H12   H     H_    0.659341 0.825426 0.564649 0.178908
H13   H     H_    0.476874 0.976341 0.930348 0.155181
H14   H     H_    0.018467 0.730487 0.051989 0.098469
H15   H     H_    0.980660 0.754772 0.936855 0.110020
H16   H     H_    0.518467 0.230486 0.051989 0.098469
H17   H     H_    0.480660 0.254772 0.936855 0.110020
H18   H     H_    0.288405 0.702122 0.548095 0.131297
H19   H     H_    0.719419 0.731216 0.451244 0.163189
H20   H     H_    0.788405 0.202122 0.548095 0.131297
H21   H     H_    0.219419 0.231216 0.451244 0.163189
H22   H     H_    0.187898 0.910233 0.433521 0.123938
H23   H     H_    0.834863 0.294939 0.430706 0.163247
H24   H     H_    0.807658 0.929816 0.556191 0.089326
H25   H     H_    0.687899 0.410233 0.433521 0.123938
H26   H     H_    0.307658 0.429816 0.556191 0.089326
H27   H     H_    0.201922 0.941823 0.544889 0.134511
H28   H     H_    0.761385 0.000670 0.441336 0.089878
H29   H     H_    0.701922 0.441823 0.544889 0.134511
H30   H     H_    0.261385 0.500670 0.441336 0.089878
H31   H     H_    0.076363 0.039042 0.401998 0.165380
H32   H     H_    0.048960 0.087444 0.526480 0.153018
H33   H     H_    0.576363 0.539042 0.401998 0.165380
H34   H     H_    0.159341 0.325426 0.564649 0.178909
H35   H     H_    0.548960 0.587444 0.526480 0.153018
H36   H     H_    0.894010 0.311623 0.597478 0.157086
H37   H     H_    0.957212 0.246918 0.490443 0.146673
H38   H     H_    0.394010 0.811623 0.597478 0.157086
H39   H     H_    0.457212 0.746918 0.490443 0.146673
H40   H     H_    0.213932 0.145660 0.038164 0.138061
H41   H     H_    0.783371 0.146332 0.958049 0.133636
H42   H     H_    0.713932 0.645660 0.038164 0.138061
H43   H     H_    0.283371 0.646332 0.958049 0.133636
H44   H     H_    0.081527 0.904761 0.306950 0.261898
H45   H     H_    0.175256 0.065483 0.921185 0.157631
H46   H     H_    0.175145 0.771423 0.304338 0.138816
H47   H     H_    0.142647 0.688345 0.380951 0.169537
H48   H     H_    0.105487 0.666942 0.292351 0.196044
H49   H     H_    0.031412 0.014121 0.644851 0.246204
H50   H     H_    0.907113 0.030984 0.605881 0.124835
H51   H     H_    0.901640 0.870495 0.629154 0.200024
H52   H     H_    0.920871 0.978528 0.697345 0.171816
H53   H     H_    0.581527 0.404761 0.306950 0.261898
H54   H     H_    0.675145 0.271423 0.304338 0.138816
H55   H     H_    0.642647 0.188345 0.380951 0.169537
H56   H     H_    0.823032 0.065596 0.076467 0.159500
H57   H     H_    0.605487 0.166942 0.292351 0.196044
H58   H     H_    0.531412 0.514121 0.644851 0.246204
H59   H     H_    0.407113 0.530984 0.605881 0.124835
H60   H     H_    0.401641 0.370495 0.629154 0.200025
H61   H     H_    0.420871 0.478528 0.697345 0.171816
H62   H     H_    0.117752 0.222093 0.384408 0.370714
H63   H     H_    0.926427 0.427506 0.740145 0.336519
H64   H     H_    0.617752 0.722093 0.384408 0.370714
H65   H     H_    0.426427 0.927507 0.740145 0.336519
H66   H     H_    0.675256 0.565483 0.921185 0.157631
H67   H     H_    0.323033 0.565596 0.076467 0.159500
H68   H     H_    0.293764 0.900644 0.050241 0.096980
N1    N     N_2   0.075468 0.830240 0.340254 -0.506396
N2    N     N_2   0.003114 0.941737 0.626581 -0.479901
N3    N     N_2   0.575468 0.330240 0.340254 -0.506396
N4    N     N_2   0.503114 0.441737 0.626581 -0.479901
O1    O     O_R   0.043230 0.549300 0.667990 -0.516641
O2    O     O_R   0.832470 0.905110 0.169660 -0.507220
O3    O     O_R   0.667530 0.405110 0.830340 -0.509146
O4    O     O_R   0.332470 0.405110 0.169660 -0.507220
O5    O     O_R   0.054010 0.748440 0.822860 -0.496746
O6    O     O_R   0.945990 0.748440 0.177140 -0.493450
O7    O     O_R   0.554010 0.248440 0.822860 -0.496746
O8    O     O_R   0.445990 0.248440 0.177140 -0.493450
O9    O     O_3   0.165160 0.665150 0.749190 -0.317707
O10   O     O_3   0.834840 0.665150 0.250810 -0.293021
O11   O     O_3   0.665160 0.165150 0.749190 -0.317707
O12   O     O_R   0.956770 0.549300 0.332010 -0.442217
O13   O     O_3   0.334840 0.165150 0.250810 -0.293021
O14   O     O_R   0.178620 0.457600 0.674100 -0.487866
O15   O     O_R   0.821380 0.457600 0.325900 -0.478200
O16   O     O_R   0.678620 0.957600 0.674100 -0.487866
O17   O     O_R   0.321380 0.957600 0.325900 -0.478200
O18   O     O_R   0.284680 0.542100 0.669460 -0.555365
O19   O     O_R   0.715320 0.542100 0.330540 -0.543424
O20   O     O_R   0.784680 0.042100 0.669460 -0.555365
O21   O     O_R   0.215320 0.042100 0.330540 -0.543424
O22   O     O_R   0.262860 0.790390 0.676650 -0.430582
O23   O     O_R   0.543230 0.049300 0.667990 -0.516641
O24   O     O_R   0.737140 0.790390 0.323350 -0.486157
O25   O     O_R   0.762860 0.290390 0.676650 -0.430582
O26   O     O_R   0.237140 0.290390 0.323350 -0.486157
O27   O     O_R   0.167460 0.907030 0.670940 -0.479725
O28   O     O_R   0.832540 0.907030 0.329060 -0.509994
O29   O     O_R   0.667460 0.407030 0.670940 -0.479725
O30   O     O_R   0.332540 0.407030 0.329060 -0.509994
O31   O     O_R   0.053950 0.750220 0.675100 -0.477184
O32   O     O_R   0.946050 0.750220 0.324900 -0.476326
O33   O     O_R   0.553950 0.250220 0.675100 -0.477184
O34   O     O_R   0.456770 0.049300 0.332010 -0.442217
O35   O     O_R   0.446050 0.250220 0.324900 -0.476326
O36   O     O_R   0.043300 0.547370 0.827390 -0.524267
O37   O     O_R   0.956700 0.547370 0.172610 -0.502358
O38   O     O_R   0.543300 0.047370 0.827390 -0.524267
O39   O     O_R   0.456700 0.047370 0.172610 -0.502358
O40   O     O_R   0.178690 0.455820 0.821860 -0.487928
O41   O     O_R   0.821310 0.455820 0.178140 -0.503118
O42   O     O_R   0.678690 0.955820 0.821860 -0.487928
O43   O     O_R   0.321310 0.955820 0.178140 -0.503118
O44   O     O_R   0.284750 0.540170 0.828860 -0.497970
O45   O     O_R   0.262920 0.788600 0.824420 -0.493772
O46   O     O_R   0.715250 0.540170 0.171140 -0.502089
O47   O     O_R   0.784750 0.040170 0.828860 -0.497970
O48   O     O_R   0.215250 0.040170 0.171140 -0.502089
O49   O     O_2   0.997627 0.318103 0.330656 -0.276434
O50   O     O_2   0.091988 0.458739 0.360865 -0.319659
O51   O     O_3   0.089118 0.250745 0.425262 -0.600473
O52   O     O_2   0.893788 0.658736 0.695097 -0.303236
O53   O     O_2   0.796776 0.557618 0.638279 -0.254586
O54   O     O_3   0.876286 0.431727 0.725560 -0.492519
O55   O     O_2   0.497627 0.818103 0.330656 -0.276434
O56   O     O_R   0.737080 0.788600 0.175580 -0.510741
O57   O     O_2   0.591988 0.958739 0.360865 -0.319659
O58   O     O_3   0.589118 0.750745 0.425262 -0.600473
O59   O     O_2   0.393788 0.158736 0.695097 -0.303236
O60   O     O_2   0.296776 0.057618 0.638279 -0.254586
O61   O     O_3   0.376286 0.931727 0.725560 -0.492518
O62   O     O_R   0.762920 0.288600 0.824420 -0.493772
O63   O     O_R   0.237080 0.288600 0.175580 -0.510741
O64   O     O_R   0.167530 0.905110 0.830340 -0.509147
S1    S     S_3+6 0.042323 0.366216 0.390183 -0.005045
S2    S     S_3+6 0.871770 0.541789 0.662391 0.023123
S3    S     S_3+6 0.542323 0.866216 0.390183 -0.005045
S4    S     S_3+6 0.371770 0.041789 0.662391 0.023122

loop_
_geom_bond_atom_site_label_1
_geom_bond_atom_site_label_2
_ccdc_geom_bond_type
C44   C49   S    
C1    C87   S    
C21   C26   A    
Cr4   O35   S    
Cr2   O2    S    
C94   H51   S    
C37   C69   S    
C2    C18   A    
O61   S4    S    
C43   C83   S    
C57   C79   S    
C68   O41   A    
C42   C82   S    
C63   O32   A    
Cr2   O10   S    
Cr5   O12   S    
Cr2   O28   S    
Cr10  O25   S    
Cr3   O7    S    
C53   C59   D    
C56   C81   D    
C32   C72   S    
C3    C65   S    
Cr4   O13   S    
C7    C11   A    
C28   H37   S    
C8    C13   A    
C80   H27   S    
C10   H32   S    
C42   O25   A    
C49   H45   S    
C93   H46   S    
Cr4   O8    S    
C78   H21   S    
C70   O48   A    
C71   O64   A    
Cr11  O21   S    
C82   H29   S    
C86   C91   D    
C85   H24   S    
C94   N2    S    
C14   C15   A    
C73   O3    A    
C68   O46   A    
O53   S2    D    
C91   H23   S    
C20   C25   A    
C34   O21   A    
Cr5   O41   S    
C63   O12   A    
C69   O47   A    
C75   O36   A    
O57   S3    D    
C60   H11   S    
C61   H13   S    
C18   C19   A    
Cr7   O17   S    
C56   H19   S    
Cr4   O30   S    
H44   N1    S    
C43   O30   A    
C35   H8    S    
Cr11  O26   S    
C66   O40   A    
Cr7   O43   S    
C9    H31   S    
C78   C83   D    
C73   O62   A    
C55   H17   S    
C16   C17   A    
C7    C17   A    
Cr1   O36   S    
Cr7   O39   S    
O58   S3    S    
Cr4   O4    S    
C62   O31   A    
C96   H60   S    
C40   C80   S    
C19   C24   A    
H53   N3    S    
C92   H34   S    
C9    C10   A    
C45   H18   S    
Cr3   O3    S    
O50   S1    D    
H49   N2    S    
C39   C48   D    
O49   S1    D    
C1    O18   A    
Cr1   O9    S    
C54   H14   S    
C40   O27   A    
C94   H50   S    
C87   C92   D    
C6    N2    S    
C43   O26   A    
C71   O45   A    
C87   H26   S    
Cr11  O63   S    
C24   S1    S    
C53   C75   S    
C34   C84   S    
Cr10  O11   S    
Cr10  O62   S    
Cr12  O27   S    
C2    C14   A    
C95   H57   S    
O55   S3    D    
C36   C70   S    
Cr6   O11   S    
C25   C29   A    
C23   O16   A    
C33   H7    S    
C79   O8    A    
C50   H56   S    
C24   C28   A    
C64   O33   A    
C93   H47   S    
C45   C88   S    
C56   C90   S    
C66   O44   A    
Cr5   O10   S    
C53   H15   S    
C95   H54   S    
C29   H38   S    
C22   S2    S    
C93   N1    S    
C57   C60   D    
C47   C51   S    
Cr3   O33   S    
C78   C92   S    
C58   C59   S    
Cr2   O32   S    
C23   O20   A    
C58   H9    S    
C72   O56   A    
O59   S4    D    
C90   H12   S    
Cr1   O14   S    
C4    C16   A    
C51   H66   S    
Cr6   O23   S    
C5    C9    A    
C29   C30   A    
C19   C89   A    
C95   H55   S    
C6    C14   A    
C30   H39   S    
C8    N4    S    
C86   H25   S    
C79   O39   A    
C52   H67   S    
C47   H42   S    
Cr9   O19   S    
C76   O37   A    
O51   S1    S    
C35   C74   S    
C41   C81   S    
H62   O51   S    
Cr12  O64   S    
C27   C28   A    
C67   C91   S    
C27   H36   S    
C37   H2    S    
C96   H59   S    
C7    N3    S    
C15   C89   A    
Cr9   O46   S    
C96   N4    S    
C41   O24   A    
Cr1   O1    S    
C11   H33   S    
Cr7   O34   S    
C5    N1    S    
C38   C47   D    
C42   O29   A    
H65   O61   S    
C69   O42   A    
C88   H1    S    
Cr7   O13   S    
C95   N3    S    
C39   H4    S    
C64   O23   A    
C38   C68   S    
C26   C30   A    
C59   H10   S    
C96   H61   S    
C77   O7    A    
Cr9   O56   S    
C54   C76   S    
Cr12  O9    S    
C36   C44   D    
H58   N4    S    
C74   O63   A    
Cr11  O13   S    
Cr12  O31   S    
C76   O6    A    
C26   S3    S    
Cr6   O42   S    
C81   H28   S    
Cr10  O20   S    
Cr3   O29   S    
C33   C73   S    
C46   C50   S    
C44   H40   S    
C94   H52   S    
C8    C16   A    
C18   C22   A    
Cr8   O18   S    
Cr9   O10   S    
C93   H48   S    
C32   C50   D    
C84   C88   D    
C40   O22   A    
Cr9   O24   S    
Cr6   O16   S    
C6    C10   A    
C85   C90   D    
Cr11  O48   S    
C36   H68   S    
C33   C51   D    
C70   O43   A    
C4    C64   S    
C12   C86   S    
C22   C27   A    
C12   O15   A    
C41   O28   A    
C1    O14   A    
C37   C46   D    
C72   O2    A    
C65   O34   A    
Cr2   O6    S    
C67   H20   S    
O54   S2    S    
C62   O1    A    
Cr3   O11   S    
C11   C13   A    
C34   O17   A    
C65   O35   A    
C55   C77   S    
Cr8   O9    S    
C55   C61   D    
C84   H22   S    
C39   C66   S    
C12   O19   A    
Cr8   O44   S    
C3    C17   A    
C45   C80   D    
O52   S2    D    
C63   C89   S    
C13   H35   S    
Cr12  O5    S    
C77   O38   A    
C5    C15   A    
C3    C21   A    
Cr6   O38   S    
Cr5   O15   S    
C4    C20   A    
C25   S4    S    
Cr5   O37   S    
C48   C52   S    
C46   H41   S    
C74   O4    A    
C20   C21   A    
C67   C82   D    
Cr8   O45   S    
C23   C85   S    
C48   H43   S    
C54   C58   D    
C35   C52   D    
O60   S4    D    
Cr1   O40   S    
Cr10  O47   S    
C60   C61   S    
C31   C49   D    
C32   H6    S    
C38   H3    S    
C2    C62   S    
C31   H5    S    
C83   H30   S    
C75   O5    A    
Cr8   O22   S    
C31   C71   S    
C57   H16   S    
H63   O54   S    
H64   O58   S    
