data_mof_unit_6577.cif
_audit_creation_date              2013-03-05T15:50:44-0500
_audit_creation_method            fapswitch 2.2
_symmetry_space_group_name_H-M    P1
_symmetry_Int_Tables_number       1
_space_group_crystal_system       triclinic
_cell_length_a                    22.831787
_cell_length_b                    7.225746
_cell_length_c                    20.811368
_cell_angle_alpha                 90.075377
_cell_angle_beta                  93.198021
_cell_angle_gamma                 90.108951
_cell_volume                      3428.03416096

loop_
_atom_site_label
_atom_site_type_symbol
_atom_site_description
_atom_site_fract_x
_atom_site_fract_y
_atom_site_fract_z
_atom_type_partial_charge
O1    O     O_R   0.438030 0.494310 0.439340 -0.591491
O2    O     O_R   0.561970 0.994310 0.560660 -0.592769
O3    O     O_R   0.556900 0.822900 0.435960 -0.588031
O4    O     O_R   0.443100 0.322900 0.564040 -0.586992
C1    C     C_R   0.575850 0.655516 0.421071 0.959337
C2    C     C_R   0.424155 0.155438 0.578937 0.962438
O5    O     O_R   0.438170 0.823950 0.431660 -0.595351
O6    O     O_R   0.561830 0.323950 0.568340 -0.595828
O7    O     O_R   0.442390 0.995390 0.556340 -0.583850
O8    O     O_R   0.557610 0.495390 0.443660 -0.583699
C3    C     C_R   0.418446 0.655131 0.415668 0.928671
C4    C     C_R   0.581775 0.155458 0.584098 0.929926
O9    O     O_3   0.501520 0.661170 0.540910 -0.285721
O10   O     O_3   0.498480 0.161170 0.459090 -0.286878
V1    V     V_3+5 0.499720 0.935580 0.492410 1.149199
V2    V     V_3+5 0.500280 0.435580 0.507590 1.150146
C5    C     C_R   0.832465 0.236047 0.862204 -0.196736
C6    C     C_R   0.170102 0.442992 0.143684 -0.223706
C7    C     C_R   0.870429 0.082607 0.863723 -0.304092
C8    C     C_R   0.128624 0.586360 0.137170 -0.291788
C9    C     C_R   0.860873 0.939776 0.817290 0.296157
C10   C     C_R   0.134526 0.742757 0.178578 0.294182
C11   C     C_R   0.812192 0.949085 0.772010 -0.029235
C12   C     C_R   0.183262 0.757142 0.223661 -0.029878
C13   C     C_R   0.774977 0.105635 0.771202 -0.009524
C14   C     C_R   0.224514 0.611354 0.229138 -0.002009
C15   C     C_R   0.785716 0.250124 0.815907 0.151809
C16   C     C_R   0.217356 0.453199 0.189619 0.142321
C17   C     C_R   0.800412 0.807345 0.726432 -0.124157
C18   C     C_R   0.191305 0.912380 0.264419 -0.135000
C19   C     C_R   0.752433 0.818876 0.681954 -0.242256
C20   C     C_R   0.239682 0.924854 0.308407 -0.235372
C21   C     C_R   0.715703 0.973978 0.680741 0.151629
C22   C     C_R   0.280692 0.781159 0.313985 0.153158
C23   C     C_R   0.727196 0.118996 0.725032 0.064825
C24   C     C_R   0.272834 0.622646 0.274782 0.063842
C25   C     C_R   0.691100 0.277761 0.722989 0.149163
C26   C     C_R   0.313076 0.474861 0.281468 0.146164
C27   C     C_R   0.702716 0.421046 0.767459 -0.236754
C28   C     C_R   0.305143 0.318018 0.242098 -0.232292
C29   C     C_R   0.749373 0.406920 0.813691 -0.172136
C30   C     C_R   0.257924 0.307724 0.196393 -0.187700
C31   C     C_R   0.667955 0.986752 0.635571 -0.246502
C32   C     C_R   0.328970 0.792498 0.358731 -0.254225
C33   C     C_R   0.631797 0.144606 0.632871 -0.138930
C34   C     C_R   0.368899 0.644980 0.366307 -0.135757
C35   C     C_R   0.644050 0.290402 0.676584 -0.260121
C36   C     C_R   0.360392 0.486112 0.327548 -0.256117
H1    H     H_    0.839089 0.345313 0.897624 0.169567
H2    H     H_    0.166203 0.323995 0.111967 0.175636
H3    H     H_    0.827918 0.685950 0.724781 0.184173
H4    H     H_    0.160519 0.026023 0.262659 0.184277
H5    H     H_    0.744307 0.706438 0.648081 0.141918
H6    H     H_    0.244771 0.047019 0.338488 0.144607
H7    H     H_    0.659557 0.874315 0.601732 0.143124
H8    H     H_    0.334645 0.914606 0.388793 0.140697
H9    H     H_    0.616522 0.412566 0.675142 0.144335
H10   H     H_    0.390960 0.371771 0.332775 0.144388
H11   H     H_    0.675639 0.544123 0.766576 0.141954
H12   H     H_    0.335489 0.203035 0.246645 0.141016
H13   H     H_    0.757298 0.519581 0.847508 0.141052
H14   H     H_    0.252906 0.185033 0.166570 0.141325
C37   C     C_3   0.244140 0.283354 0.802489 -0.394700
C38   C     C_3   0.755311 0.781311 0.196745 -0.393242
C39   C     C_3   0.249382 0.936201 0.798854 -0.395899
C40   C     C_3   0.751155 0.434167 0.201989 -0.398524
C41   C     C_3   0.299088 0.948745 0.750768 -0.389232
C42   C     C_3   0.701453 0.446821 0.250071 -0.387800
H15   H     H_    0.337096 0.304032 0.781620 0.154360
H16   H     H_    0.662316 0.799126 0.217622 0.154392
H17   H     H_    0.263767 0.285490 0.852647 0.153591
H18   H     H_    0.735639 0.780418 0.146601 0.152843
H19   H     H_    0.224387 0.805202 0.790384 0.156819
H20   H     H_    0.776561 0.304582 0.211036 0.156552
H21   H     H_    0.269088 0.931284 0.848950 0.153821
H22   H     H_    0.731427 0.426220 0.151941 0.153511
H23   H     H_    0.342456 0.949872 0.777971 0.154264
H24   H     H_    0.658066 0.444967 0.222912 0.153963
H25   H     H_    0.297753 0.823675 0.719437 0.153739
H26   H     H_    0.703201 0.323215 0.281977 0.153517
C43   C     C_1   0.378499 0.146223 0.624728 -0.266559
C44   C     C_1   0.621513 0.646458 0.375281 -0.266232
C45   C     C_3   0.207344 0.104233 0.791071 0.402575
C46   C     C_3   0.792672 0.604226 0.208947 0.402890
C47   C     C_3   0.293821 0.295892 0.754373 -0.391068
C48   C     C_3   0.705632 0.793963 0.244857 -0.391955
C49   C     C_3   0.292364 0.125622 0.708774 0.413675
C50   C     C_3   0.707654 0.625807 0.291240 0.413893
C51   C     C_3   0.231161 0.118917 0.672432 -0.399883
C52   C     C_3   0.768901 0.623220 0.327541 -0.400603
C53   C     C_3   0.181460 0.106442 0.720542 -0.369403
C54   C     C_3   0.818599 0.610634 0.279434 -0.368498
C55   C     C_1   0.339922 0.137382 0.662633 -0.100085
C56   C     C_1   0.660094 0.637642 0.337379 -0.100451
C57   C     C_1   0.159809 0.092489 0.837235 -0.092903
C58   C     C_1   0.840204 0.592375 0.162781 -0.093601
C59   C     C_1   0.121282 0.083685 0.875197 -0.231699
C60   C     C_1   0.878726 0.583530 0.124814 -0.227659
H27   H     H_    0.151366 0.226462 0.713176 0.165383
H28   H     H_    0.848320 0.732190 0.286208 0.168002
H29   H     H_    0.155120 0.978817 0.710576 0.166330
H30   H     H_    0.845342 0.484551 0.289963 0.163455
H31   H     H_    0.224712 0.244842 0.642144 0.159882
H32   H     H_    0.774979 0.750736 0.357236 0.159663
H33   H     H_    0.215281 0.406883 0.796733 0.157411
H34   H     H_    0.783786 0.906251 0.201896 0.157825
H35   H     H_    0.288579 0.425327 0.725702 0.153576
H36   H     H_    0.710493 0.924862 0.272923 0.153613
H37   H     H_    0.228480 0.997214 0.639561 0.159717
H38   H     H_    0.771988 0.503112 0.360972 0.159927
O11   O     O_R   0.942420 0.735670 0.056390 -0.577922
O12   O     O_R   0.057580 0.235670 0.943610 -0.593723
O13   O     O_R   0.061840 0.404850 0.068350 -0.569677
O14   O     O_R   0.938160 0.904850 0.931650 -0.559868
C61   C     C_R   0.080743 0.574232 0.085416 0.974956
C62   C     C_R   0.918994 0.073352 0.914809 0.970329
O15   O     O_R   0.943100 0.406010 0.064050 -0.594575
O16   O     O_R   0.056900 0.906010 0.935950 -0.579611
O17   O     O_R   0.938020 0.234710 0.939330 -0.586765
O18   O     O_R   0.061980 0.734710 0.060670 -0.565548
C63   C     C_R   0.924297 0.574465 0.078929 0.968764
C64   C     C_R   0.075704 0.074527 0.921071 0.969165
O19   O     O_3   0.998500 0.567790 0.959120 -0.264713
O20   O     O_3   0.001500 0.067790 0.040880 -0.248163
V3    V     V_3+5 0.000280 0.293330 0.007580 1.233185
V4    V     V_3+5 0.999720 0.793330 0.992420 1.259740
N1    N     N_R   0.902201 0.791355 0.813763 0.236547
O21   O     O_R   0.955762 0.825599 0.798958 -0.398944
O22   O     O_R   0.887444 0.623969 0.829137 -0.427314
N2    N     N_R   0.089774 0.882125 0.176884 0.234984
O23   O     O_R   0.036454 0.838961 0.190223 -0.405942
O24   O     O_R   0.101146 0.048455 0.157248 -0.420234

loop_
_geom_bond_atom_site_label_1
_geom_bond_atom_site_label_2
_geom_bond_distance
_ccdc_geom_bond_type
C42   H26   1.113069 S    
C60   C63   1.452487 S    
C40   C42   1.556999 S    
C28   H12   1.083682 S    
O11   C63   1.330157 A    
C41   H23   1.112839 S    
C29   H13   1.083726 S    
O2    C4    1.330477 A    
C2    O7    1.324441 A    
H15   C47   1.112835 S    
C27   C29   1.399004 A    
O5    C3    1.334809 A    
C54   H28   1.112915 S    
C44   C56   1.216462 T    
C11   C17   1.410297 A    
C23   C25   1.413105 A    
C12   C14   1.414881 A    
C8    C10   1.421894 A    
C46   C58   1.491526 S    
O14   V4    2.008228 S    
C51   C53   1.557206 S    
C48   C50   1.551967 S    
C39   C45   1.552178 S    
O13   V3    2.004745 S    
C40   H20   1.113110 S    
C51   H37   1.112924 S    
C39   H19   1.113115 S    
O16   C64   1.332943 A    
C20   H6    1.083829 S    
O15   C63   1.333273 A    
C38   C46   1.552506 S    
C5    C7    1.407931 A    
C58   C60   1.216383 T    
C15   C29   1.404883 A    
C39   C41   1.556987 S    
O1    C3    1.331125 A    
C19   C21   1.400432 A    
C25   C35   1.407067 A    
C30   H14   1.083746 S    
C26   C36   1.406123 A    
C54   H30   1.112905 S    
C28   C30   1.399168 A    
C27   H11   1.083653 S    
O6    V2    2.008150 S    
C2    C43   1.452565 S    
C51   H31   1.112918 S    
C53   H29   1.112913 S    
C38   C48   1.557020 S    
C32   C34   1.407214 A    
C50   C56   1.491618 S    
C33   C35   1.408420 A    
C42   H24   1.112843 S    
C34   C36   1.409034 A    
C47   C49   1.551977 S    
C5    C15   1.401392 A    
C6    C16   1.402773 A    
O4    C2    1.327163 A    
C5    H1    1.084056 S    
O19   V4    1.769649 S    
O5    V1    2.004666 S    
C37   C45   1.552490 S    
C20   C22   1.400064 A    
O4    V2    1.979155 S    
N2    O24   1.300314 A    
N1    O22   1.300096 A    
O12   C64   1.330075 A    
C59   C64   1.452398 S    
C35   H9    1.084062 S    
C43   C55   1.216390 T    
C32   H8    1.084318 S    
C46   C54   1.551546 S    
C52   C54   1.557247 S    
O6    C4    1.335547 A    
C45   C57   1.491414 S    
O11   V4    1.962450 S    
C41   H25   1.113073 S    
O1    V2    1.999057 S    
C19   H5    1.083868 S    
C36   H10   1.084203 S    
O2    V1    1.997115 S    
C31   C33   1.408638 A    
C52   H32   1.112922 S    
O12   V3    1.962761 S    
O18   V4    1.999038 S    
C13   C23   1.416478 A    
O17   V3    1.997103 S    
C31   H7    1.084261 S    
C37   H17   1.112863 S    
C9    C11   1.418257 A    
C42   C50   1.552301 S    
C10   C12   1.418496 A    
C9    N1    1.434320 S    
C52   H38   1.112920 S    
N1    O21   1.301045 A    
H16   C48   1.112832 S    
C10   N2    1.435034 S    
O3    V1    1.979927 S    
C6    H2    1.083796 S    
C17   H3    1.081398 S    
C14   C24   1.417270 A    
C22   C32   1.404926 A    
C18   H4    1.081244 S    
C7    C9    1.421115 A    
C41   C49   1.552270 S    
C48   H36   1.113112 S    
C50   C52   1.552023 S    
C4    C33   1.487288 S    
O3    C1    1.327409 A    
C8    C61   1.493607 S    
O14   C62   1.335220 A    
C57   C59   1.216326 T    
C38   H34   1.113076 S    
C13   C15   1.409519 A    
C45   C53   1.551533 S    
C14   C16   1.410992 A    
C39   H21   1.112852 S    
C62   O17   1.334281 A    
C24   C26   1.412006 A    
N2    O23   1.301104 A    
O7    V1    1.966014 S    
C1    O8    1.324618 A    
C17   C19   1.396841 A    
O8    V2    1.965688 S    
C18   C20   1.397418 A    
C1    C44   1.452680 S    
C26   C28   1.403118 A    
C7    C62   1.494380 S    
C49   C55   1.491493 S    
C16   C30   1.404387 A    
C21   C23   1.409236 A    
C22   C24   1.410722 A    
C6    C8    1.406470 A    
C38   H18   1.112860 S    
C12   C18   1.410944 A    
C37   H33   1.113071 S    
C40   C46   1.552177 S    
C11   C13   1.415613 A    
C25   C27   1.402806 A    
C61   O18   1.331241 A    
O9    V2    1.770142 S    
C49   C51   1.552013 S    
O10   V1    1.771920 S    
C3    C34   1.486672 S    
O16   V4    1.979418 S    
C53   H27   1.112906 S    
C47   H35   1.113106 S    
C21   C31   1.402478 A    
O15   V3    1.980191 S    
C37   C47   1.556974 S    
C40   H22   1.112854 S    
O20   V3    1.771425 S    
O13   C61   1.337953 A    
