data_mof_unit_22485.cif
_audit_creation_date              2012-12-11T14:33:57-0500
_audit_creation_method            fapswitch 2.2
_symmetry_space_group_name_H-M    P1
_symmetry_Int_Tables_number       1
_space_group_crystal_system       triclinic
_cell_length_a                    13.855484
_cell_length_b                    13.977277
_cell_length_c                    27.321153
_cell_angle_alpha                 89.969296
_cell_angle_beta                  90.091911
_cell_angle_gamma                 119.642992
_cell_volume                      4598.58786229

loop_
_atom_site_label
_atom_site_type_symbol
_atom_type_description
_atom_site_fract_x
_atom_site_fract_y
_atom_site_fract_z
_atom_type_partial_charge
C1    C     C_R   0.234137 0.787075 0.568832 0.539810
C2    C     C_R   0.212660 0.446750 0.568851 0.542532
C3    C     C_R   0.552501 0.765138 0.569097 0.539361
C4    C     C_3   0.759698 0.811363 0.782538 -0.263554
C5    C     C_3   0.162860 0.966289 0.771636 -0.267050
C6    C     C_3   0.031006 0.186425 0.769661 -0.266651
C7    C     C_3   0.741032 0.801422 0.726446 -0.235288
C8    C     C_3   0.177016 0.948977 0.716827 -0.233900
C9    C     C_3   0.051456 0.217770 0.714833 -0.233635
C10   C     C_1   0.707046 0.861345 0.860274 -0.062299
C11   C     C_1   0.116026 0.880902 0.852873 -0.065993
C12   C     C_1   0.112586 0.231984 0.852407 -0.063913
C13   C     C_1   0.626839 0.813666 0.659334 -0.074628
C14   C     C_1   0.179079 0.817953 0.656858 -0.075344
C15   C     C_1   0.178856 0.360289 0.656734 -0.075417
C16   C     C_1   0.599862 0.795574 0.616976 -0.013874
C17   C     C_1   0.200328 0.805534 0.615527 -0.013790
C18   C     C_1   0.193293 0.394371 0.615467 -0.014289
C19   C     C_R   0.064856 0.150352 0.095964 0.581433
C20   C     C_R   0.777521 0.884054 0.088380 0.548290
C21   C     C_R   0.116464 0.893636 0.088143 0.561246
C22   C     C_R   0.069182 0.160442 0.943250 0.536926
C23   C     C_R   0.779529 0.886933 0.950850 0.538564
C24   C     C_R   0.090978 0.929548 0.943328 0.533750
C25   C     C_R   0.618373 0.895636 0.361493 -0.133039
C26   C     C_R   0.097213 0.732500 0.362854 -0.134619
C27   C     C_R   0.264274 0.357636 0.363791 -0.135404
C28   C     C_R   0.644770 0.911272 0.311872 0.014165
C29   C     C_R   0.080625 0.743977 0.313189 0.014292
C30   C     C_R   0.241307 0.306753 0.317700 0.013932
C31   C     C_R   0.681221 0.929176 0.210385 0.017209
C32   C     C_R   0.060626 0.759944 0.211543 0.017076
C33   C     C_R   0.200699 0.225890 0.220991 0.016944
C34   C     C_R   0.232511 0.788333 0.431814 0.547627
C35   C     C_R   0.211692 0.444520 0.431374 0.549563
C36   C     C_R   0.555563 0.767213 0.431899 0.548596
C37   C     C_R   0.653558 0.000815 0.234485 -0.138113
C38   C     C_R   0.977470 0.670845 0.237606 -0.127955
C39   C     C_R   0.303011 0.256730 0.243599 -0.124168
C40   C     C_R   0.635140 0.991768 0.284970 -0.130932
C41   C     C_R   0.988033 0.662206 0.288093 -0.128900
C42   C     C_R   0.323308 0.297186 0.291570 -0.128819
C43   C     C_R   0.704176 0.939557 0.160126 -0.150606
C44   C     C_R   0.050696 0.771089 0.161173 -0.135798
C45   C     C_R   0.182897 0.195129 0.171521 -0.129044
C46   C     C_R   0.729020 0.864840 0.137123 -0.003361
C47   C     C_R   0.135353 0.861301 0.136244 -0.005279
C48   C     C_R   0.082819 0.172555 0.148625 -0.008669
C49   C     C_R   0.658905 0.745020 0.364150 -0.131419
C50   C     C_R   0.266081 0.910819 0.361925 -0.128470
C51   C     C_R   0.076216 0.328060 0.367993 -0.130328
C52   C     C_R   0.683115 0.757871 0.314616 0.013417
C53   C     C_R   0.254325 0.920463 0.312216 0.013810
C54   C     C_R   0.052732 0.279068 0.321932 0.011721
C55   C     C_R   0.673571 0.839604 0.288046 0.063906
C56   C     C_R   0.162369 0.835912 0.287427 0.063287
C57   C     C_R   0.136172 0.270418 0.296130 0.062593
C58   C     C_R   0.708406 0.684664 0.290633 -0.126870
C59   C     C_R   0.337600 0.009637 0.286467 -0.127144
C60   C     C_R   0.949298 0.245203 0.300021 -0.129238
C61   C     C_R   0.720399 0.689768 0.240161 -0.127256
C62   C     C_R   0.331743 0.013388 0.235874 -0.129523
C63   C     C_R   0.930343 0.207965 0.251837 -0.122739
C64   C     C_R   0.710417 0.770128 0.213592 0.011029
C65   C     C_R   0.240650 0.930042 0.210937 0.014416
C66   C     C_R   0.013445 0.201683 0.225372 0.016491
C67   C     C_3   0.541378 0.749051 0.740727 -0.221384
C68   C     C_3   0.244608 0.818298 0.741162 -0.221127
C69   C     C_3   0.159357 0.417038 0.740305 -0.220656
C70   C     C_R   0.688878 0.846744 0.237360 0.065273
C71   C     C_R   0.154320 0.841941 0.236635 0.063845
C72   C     C_R   0.116175 0.230839 0.247751 0.062022
C73   C     C_R   0.724982 0.776696 0.163600 -0.123419
C74   C     C_R   0.232714 0.936058 0.160770 -0.132885
C75   C     C_R   0.997270 0.171853 0.176175 -0.129585
C76   C     C_R   0.618635 0.807967 0.386729 -0.003304
C77   C     C_R   0.193498 0.813107 0.386405 -0.003650
C78   C     C_R   0.183239 0.372550 0.388123 -0.004869
C79   C     C_3   0.684776 0.947500 0.728282 -0.161291
C80   C     C_3   0.041649 0.746415 0.724735 -0.160197
C81   C     C_3   0.258370 0.309684 0.726847 -0.161240
C82   C     C_3   0.711478 0.962565 0.784081 0.185124
C83   C     C_3   0.022375 0.764459 0.779322 0.183937
C84   C     C_3   0.238497 0.270328 0.781000 0.184051
C85   C     C_1   0.734358 0.872330 0.902622 -0.042990
C86   C     C_1   0.104150 0.901423 0.894449 -0.038677
C87   C     C_1   0.094900 0.200230 0.894105 -0.042734
C88   C     C_3   0.648654 0.828057 0.712244 0.034550
C89   C     C_3   0.160619 0.832460 0.708503 0.035084
C90   C     C_3   0.162306 0.326659 0.708284 0.033611
C91   C     C_3   0.561775 0.763802 0.796722 -0.199944
C92   C     C_3   0.226319 0.833564 0.795959 -0.193553
C93   C     C_3   0.144455 0.383624 0.795130 -0.193675
C94   C     C_3   0.684418 0.850178 0.807388 0.095543
C95   C     C_3   0.130995 0.860642 0.801398 0.094528
C96   C     C_3   0.131905 0.267644 0.800999 0.093896
Cr1   Cr    Cr6+3 0.164410 0.584450 0.499910 1.017810
Cr2   Cr    Cr6+3 0.415550 0.579960 0.499910 1.018301
Cr3   Cr    Cr6+3 0.420040 0.835590 0.499910 1.015389
Cr4   Cr    Cr6+3 0.155170 0.075460 0.019960 1.003063
Cr5   Cr    Cr6+3 0.924540 0.079710 0.019960 0.994489
Cr6   Cr    Cr6+3 0.920290 0.844830 0.019960 0.996126
H1    H     H_    0.505436 0.790192 0.813362 0.153198
H2    H     H_    0.206419 0.757353 0.816594 0.158547
H3    H     H_    0.217168 0.445296 0.816484 0.159932
H4    H     H_    0.513856 0.662148 0.730568 0.123068
H5    H     H_    0.331137 0.879618 0.730601 0.123208
H6    H     H_    0.089762 0.429914 0.728366 0.123752
H7    H     H_    0.541406 0.683362 0.813480 0.111969
H8    H     H_    0.304534 0.901244 0.811719 0.109918
H9    H     H_    0.069756 0.384031 0.809816 0.104789
H10   H     H_    0.848359 0.871266 0.790429 0.086745
H11   H     H_    0.097685 0.989985 0.775821 0.088857
H12   H     H_    0.014030 0.100584 0.774731 0.088613
H13   H     H_    0.706275 0.006808 0.139474 0.103421
H14   H     H_    0.975611 0.713346 0.142015 0.113020
H15   H     H_    0.248119 0.193016 0.150502 0.121344
H16   H     H_    0.588571 0.945548 0.379144 0.127422
H17   H     H_    0.039792 0.657841 0.382010 0.123044
H18   H     H_    0.346728 0.390827 0.379334 0.124582
H19   H     H_    0.646156 0.063669 0.214325 0.097575
H20   H     H_    0.905308 0.607152 0.218848 0.097714
H21   H     H_    0.368607 0.253083 0.223638 0.100036
H22   H     H_    0.612150 0.046764 0.302858 0.099551
H23   H     H_    0.924465 0.591276 0.307400 0.100545
H24   H     H_    0.404201 0.323983 0.307698 0.101775
H25   H     H_    0.742335 0.717286 0.145972 0.128517
H26   H     H_    0.298749 0.005286 0.141429 0.122333
H27   H     H_    0.919118 0.151703 0.158707 0.117683
H28   H     H_    0.737606 0.631069 0.221886 0.097927
H29   H     H_    0.397814 0.081873 0.216295 0.093825
H30   H     H_    0.852318 0.188144 0.234649 0.110303
H31   H     H_    0.715379 0.621394 0.310674 0.101079
H32   H     H_    0.408908 0.074513 0.305271 0.096937
H33   H     H_    0.884698 0.251847 0.319427 0.102992
H34   H     H_    0.472951 0.765424 0.730704 0.112195
H35   H     H_    0.234841 0.735053 0.735591 0.113224
H36   H     H_    0.237659 0.496775 0.735614 0.112883
H37   H     H_    0.661187 0.678802 0.383893 0.127840
H38   H     H_    0.339032 0.974930 0.380186 0.130996
H39   H     H_    0.012550 0.337466 0.386805 0.130001
H40   H     H_    0.759473 0.006661 0.707245 0.074769
H41   H     H_    0.979507 0.753214 0.701280 0.073770
H42   H     H_    0.264856 0.247599 0.703656 0.075738
H43   H     H_    0.617616 0.966627 0.719531 0.150086
H44   H     H_    0.028856 0.661947 0.719361 0.150160
H45   H     H_    0.338557 0.388073 0.723295 0.148730
H46   H     H_    0.802833 0.018827 0.787245 0.070415
H47   H     H_    0.957286 0.789339 0.779403 0.071632
H48   H     H_    0.223624 0.184662 0.780707 0.073078
H49   H     H_    0.717701 0.716530 0.714532 0.125890
H50   H     H_    0.261250 0.012514 0.704526 0.125853
H51   H     H_    0.981279 0.226500 0.700061 0.125083
H52   H     H_    0.819846 0.859100 0.707548 0.110852
H53   H     H_    0.115454 0.959981 0.694855 0.112671
H54   H     H_    0.053829 0.150527 0.694007 0.113619
H55   H     H_    0.741792 0.730333 0.797732 0.109758
H56   H     H_    0.242395 0.034443 0.786055 0.107563
H57   H     H_    0.956087 0.189491 0.781892 0.106992
O1    O     O_R   0.137150 0.468200 0.553200 -0.511069
O2    O     O_R   0.531800 0.668950 0.553200 -0.511154
O3    O     O_R   0.331050 0.862850 0.553200 -0.509627
O4    O     O_R   0.179100 0.982980 0.967000 -0.510538
O5    O     O_R   0.017020 0.196120 0.967000 -0.489243
O6    O     O_R   0.803880 0.820900 0.967000 -0.519386
O7    O     O_R   0.173970 0.688730 0.549930 -0.501093
O8    O     O_R   0.311270 0.485240 0.549930 -0.500289
O9    O     O_R   0.514760 0.826030 0.549930 -0.499082
O10   O     O_R   0.140110 0.470540 0.446010 -0.521630
O11   O     O_R   0.529460 0.669570 0.446010 -0.521465
O12   O     O_R   0.330430 0.859890 0.446010 -0.524033
O13   O     O_R   0.176710 0.690910 0.450560 -0.502066
O14   O     O_R   0.309090 0.485800 0.450560 -0.501206
O15   O     O_R   0.514200 0.823290 0.450560 -0.504033
O16   O     O_3   0.333333 0.666667 0.499990 -0.263579
O17   O     O_R   0.176750 0.985260 0.074180 -0.529936
O18   O     O_R   0.014740 0.191490 0.074180 -0.495588
O19   O     O_R   0.808510 0.823250 0.074180 -0.517516
O20   O     O_R   0.146100 0.172630 0.068980 -0.479472
O21   O     O_R   0.827370 0.973470 0.068980 -0.516764
O22   O     O_R   0.026530 0.853900 0.068980 -0.488124
O23   O     O_3   1.000000 1.000000 0.020040 -0.280655
O24   O     O_R   0.148270 0.170520 0.969620 -0.493258
O25   O     O_R   0.829480 0.977750 0.969620 -0.522333
O26   O     O_R   0.022250 0.851730 0.969620 -0.483624
O27   O     O_3   0.648353 0.004791 0.807085 -0.582724
C97   C     C_3   0.716481 0.096828 0.836788 0.001461
H58   H     H_    0.763245 0.170717 0.813261 0.125890
H59   H     H_    0.776743 0.083480 0.858726 0.131275
C98   C     C_3   0.643536 0.116933 0.872384 -0.249074
H60   H     H_    0.587979 0.138491 0.851540 0.158386
H61   H     H_    0.591205 0.040450 0.893527 0.177917
C99   C     C_3   0.714010 0.209681 0.908040 -0.488532
H62   H     H_    0.769250 0.188886 0.929567 0.163272
H63   H     H_    0.659310 0.221910 0.933867 0.142342
H64   H     H_    0.765411 0.287418 0.887723 0.144155
O28   O     O_3   0.991002 0.666093 0.805994 -0.582018
C100  C     C_3   0.894566 0.635470 0.834123 0.001303
H65   H     H_    0.820502 0.598787 0.809714 0.125694
H66   H     H_    0.898673 0.707163 0.853899 0.132603
C101  C     C_3   0.883402 0.550555 0.872137 -0.244660
H67   H     H_    0.877042 0.477243 0.853249 0.160706
H68   H     H_    0.958548 0.586551 0.895827 0.182670
C102  C     C_3   0.781075 0.515363 0.904030 -0.490840
H69   H     H_    0.786082 0.587556 0.923408 0.166264
H70   H     H_    0.775612 0.454724 0.931710 0.144809
H71   H     H_    0.705171 0.476651 0.881010 0.144205
O29   O     O_3   0.332058 0.342910 0.809658 -0.583423
C103  C     C_3   0.369793 0.284415 0.838857 0.000963
H72   H     H_    0.419414 0.258893 0.815882 0.127103
H73   H     H_    0.299865 0.209859 0.855898 0.128540
C104  C     C_3   0.442251 0.359458 0.880012 -0.244072
H74   H     H_    0.514015 0.433624 0.864052 0.160000
H75   H     H_    0.392935 0.386519 0.902247 0.185428
C105  C     C_3   0.484399 0.300080 0.913142 -0.489635
H76   H     H_    0.413597 0.227004 0.930276 0.165049
H77   H     H_    0.537177 0.356584 0.942574 0.146584
H78   H     H_    0.534646 0.273312 0.891578 0.140976

loop_
_geom_bond_atom_site_label_1
_geom_bond_atom_site_label_2
_ccdc_geom_bond_type
C15   C18   T    
C10   C85   T    
C36   O15   A    
C98   H60   S    
Cr1   O16   S    
C26   C29   A    
C2    C18   S    
C33   C45   A    
C101  H67   S    
C48   C75   A    
C27   C78   A    
C25   H16   S    
Cr2   O2    S    
C6    C9    S    
C6    H57   S    
C53   C59   A    
Cr1   O10   S    
C20   O21   A    
C54   C60   A    
C27   H18   S    
C25   C28   A    
C21   O22   A    
C7    H52   S    
C67   C88   S    
C33   C39   A    
Cr1   O13   S    
C31   C43   A    
C82   O27   S    
C60   C63   A    
C82   C94   S    
C8    H50   S    
C37   C40   A    
C69   C93   S    
C105  H77   S    
C34   C77   S    
C64   C70   A    
C50   H38   S    
C53   C56   A    
C79   H40   S    
Cr3   O12   S    
C28   C40   A    
C11   C86   T    
C11   C95   S    
Cr1   O7    S    
C30   C57   A    
C103  C104  S    
C39   H21   S    
C84   C96   S    
C80   C89   S    
Cr4   O24   S    
C8    H53   S    
C6    H12   S    
C97   C98   S    
C36   C76   S    
C33   C72   A    
C43   H13   S    
C23   O6    A    
C51   H39   S    
C28   C55   A    
C31   C70   A    
C66   C72   A    
C7    C88   S    
C9    H54   S    
O29   C103  S    
C99   H63   S    
Cr4   O17   S    
Cr6   O23   S    
C64   C73   A    
C104  C105  S    
C100  H65   S    
C68   H5    S    
C32   C38   A    
C83   O28   S    
Cr4   O23   S    
C19   O18   A    
Cr2   O8    S    
C98   C99   S    
C44   C47   A    
C93   H3    S    
C49   C52   A    
C58   C61   A    
C80   H44   S    
C4    H10   S    
C63   C66   A    
C9    H51   S    
C27   C30   A    
C101  H68   S    
C14   C17   T    
C68   H35   S    
C80   C83   S    
C79   C88   S    
C5    C95   S    
C69   H6    S    
C68   C92   S    
C3    O9    A    
C68   C89   S    
C39   C42   A    
C81   H42   S    
C58   H31   S    
C40   H22   S    
C74   H26   S    
C50   C53   A    
C26   C77   A    
Cr1   O1    S    
C41   H23   S    
C83   H47   S    
C26   H17   S    
C38   C41   A    
C79   H43   S    
C105  H78   S    
Cr2   O14   S    
C3    O2    A    
C19   C48   S    
C20   O19   A    
C81   H45   S    
C73   H25   S    
C92   C95   S    
C65   C74   A    
C31   C37   A    
C24   O26   A    
C35   O14   A    
C61   C64   A    
C105  H76   S    
C14   C89   S    
C22   O24   A    
C80   H41   S    
C5    C8    S    
Cr3   O3    S    
C22   O5    A    
C84   O29   S    
C92   H2    S    
C4    H55   S    
C102  H71   S    
C56   C71   A    
C83   C95   S    
C100  C101  S    
C67   C91   S    
C103  H72   S    
C32   C44   A    
C49   C76   A    
C32   C71   A    
C22   C87   S    
C102  H69   S    
C60   H33   S    
C38   H20   S    
Cr5   O25   S    
C52   C58   A    
C61   H28   S    
C93   H9    S    
C7    H49   S    
C81   C90   S    
C104  H75   S    
C1    O3    A    
C99   H62   S    
C93   C96   S    
C6    C96   S    
C49   H37   S    
C35   O10   A    
C101  C102  S    
C37   H19   S    
C24   O4    A    
C42   H24   S    
C69   C90   S    
C50   C77   A    
C19   O20   A    
C21   O17   A    
C81   C84   S    
C34   O13   A    
Cr3   O9    S    
C45   C48   A    
C45   H15   S    
C69   H36   S    
C34   O12   A    
C4    C7    S    
C59   C62   A    
C98   H61   S    
C59   H32   S    
C62   C65   A    
C5    H11   S    
Cr6   O22   S    
C1    C17   S    
C62   H29   S    
Cr5   O5    S    
C30   C42   A    
C47   C74   A    
C91   H1    S    
C9    C90   S    
C79   C82   S    
C82   H46   S    
C52   C55   A    
C67   H4    S    
C29   C56   A    
Cr6   O6    S    
Cr6   O26   S    
C35   C78   S    
C36   O11   A    
C51   C54   A    
C91   H7    S    
C67   H34   S    
C51   C78   A    
C97   H58   S    
C12   C87   T    
Cr5   O21   S    
C65   C71   A    
C91   C94   S    
C102  H70   S    
Cr2   O16   S    
C92   H8    S    
C4    C94   S    
Cr3   O15   S    
C1    O7    A    
Cr6   O19   S    
C66   C75   A    
C13   C88   S    
C103  H73   S    
C63   H30   S    
Cr4   O4    S    
C57   C72   A    
O28   C100  S    
C43   C46   A    
C97   H59   S    
C55   C70   A    
Cr5   O18   S    
C3    C16   S    
Cr2   O11   S    
C99   H64   S    
C23   O25   A    
Cr3   O16   S    
C104  H74   S    
C44   H14   S    
C25   C76   A    
C2    O1    A    
C5    H56   S    
C23   C85   S    
C13   C16   T    
C10   C94   S    
C29   C41   A    
C12   C96   S    
C100  H66   S    
C8    C89   S    
C21   C47   S    
O27   C97   S    
Cr4   O20   S    
C24   C86   S    
C2    O8    A    
C46   C73   A    
C20   C46   S    
Cr5   O23   S    
C75   H27   S    
C15   C90   S    
C54   C57   A    
C84   H48   S    
