data_mof_unit_63715.cif
_audit_creation_date              2012-12-10T16:43:19-0500
_audit_creation_method            fapswitch 2.2
_symmetry_space_group_name_H-M    P1
_symmetry_Int_Tables_number       1
_space_group_crystal_system       triclinic
_cell_length_a                    30.188808
_cell_length_b                    31.16075
_cell_length_c                    21.84874
_cell_angle_alpha                 89.942253
_cell_angle_beta                  134.964002
_cell_angle_gamma                 90.086116
_cell_volume                      14542.4461085

loop_
_atom_site_label
_atom_site_type_symbol
_atom_type_description
_atom_site_fract_x
_atom_site_fract_y
_atom_site_fract_z
_atom_type_partial_charge
C1    C     C_R   0.688316 0.808365 0.882177 0.812019
C2    C     C_R   0.311663 0.808375 0.117825 0.811710
C3    C     C_R   0.188316 0.308365 0.882177 0.811812
C4    C     C_R   0.811666 0.308377 0.117824 0.811794
C5    C     C_R   0.453096 0.788845 0.999171 0.109663
C6    C     C_R   0.546725 0.788837 0.000226 0.109670
C7    C     C_R   0.953099 0.288846 0.999178 0.109869
C8    C     C_R   0.046729 0.288837 0.000233 0.109757
C9    C     C_R   0.477425 0.671379 0.001333 -0.205467
C10   C     C_R   0.522219 0.671373 0.998464 -0.205091
C11   C     C_R   0.977423 0.171379 0.001328 -0.205591
C12   C     C_R   0.022216 0.171374 0.998460 -0.205574
C13   C     C_R   0.523363 0.827701 0.000216 -0.206835
C14   C     C_R   0.476506 0.827705 0.999025 -0.206654
C15   C     C_R   0.023368 0.327701 0.000227 -0.206978
C16   C     C_R   0.976511 0.327705 0.999035 -0.207212
C17   C     C_2   0.601414 0.910296 0.752712 -0.187029
C18   C     C_2   0.398534 0.910365 0.247284 -0.187139
C19   C     C_2   0.101415 0.410296 0.752712 -0.187292
C20   C     C_2   0.898465 0.410401 0.247225 -0.187453
C21   C     C_2   0.597614 0.909640 0.687537 0.265307
C22   C     C_2   0.402222 0.909688 0.312356 0.265285
C23   C     C_2   0.097614 0.409639 0.687536 0.265426
C24   C     C_2   0.902224 0.409687 0.312362 0.268289
C25   C     C_2   0.642333 0.880303 0.826285 -0.124403
C26   C     C_2   0.357633 0.880358 0.173720 -0.124303
C27   C     C_2   0.142334 0.380303 0.826285 -0.124493
C28   C     C_2   0.857574 0.380382 0.173679 -0.124096
C29   C     C_2   0.647251 0.839423 0.813027 -0.225175
C30   C     C_2   0.352661 0.839462 0.186976 -0.225287
C31   C     C_2   0.147251 0.339424 0.813027 -0.225138
C32   C     C_2   0.852668 0.339472 0.186964 -0.225341
C33   C     C_R   0.134894 0.753894 0.082965 0.353323
C34   C     C_R   0.865167 0.753943 0.917124 0.352959
C35   C     C_R   0.634900 0.253854 0.082981 0.353373
C36   C     C_R   0.365175 0.253989 0.917144 0.353345
C37   C     C_R   0.117969 0.753148 0.003654 -0.159456
C38   C     C_R   0.882082 0.753258 0.996431 -0.160952
C39   C     C_R   0.617974 0.253153 0.003667 -0.159503
C40   C     C_R   0.382089 0.253254 0.996448 -0.159517
C41   C     C_R   0.054942 0.753486 0.924757 -0.286844
C42   C     C_R   0.945109 0.753648 0.075330 -0.286721
C43   C     C_R   0.554947 0.253535 0.924773 -0.286500
C44   C     C_R   0.445115 0.253595 0.075351 -0.286670
C45   C     C_R   0.664044 0.749790 0.999479 0.801504
C46   C     C_R   0.335915 0.749806 0.000443 0.801553
C47   C     C_R   0.164044 0.249790 0.999479 0.801407
C48   C     C_R   0.835916 0.249807 0.000443 0.801389
C49   C     C_R   0.007839 0.753317 0.922824 0.115274
C50   C     C_R   0.992216 0.753436 0.077268 0.114116
C51   C     C_R   0.507845 0.253367 0.922841 0.115170
C52   C     C_R   0.492222 0.253387 0.077288 0.115207
C53   C     C_R   0.023880 0.752981 0.001066 0.006497
C54   C     C_R   0.976176 0.753013 0.999029 0.006520
C55   C     C_R   0.523886 0.252984 0.001083 0.006575
C56   C     C_R   0.476183 0.253014 0.999047 0.006571
C57   C     C_R   0.087475 0.753104 0.081299 0.075869
C58   C     C_R   0.912583 0.753108 0.918794 0.076115
C59   C     C_R   0.587481 0.253061 0.081315 0.076123
C60   C     C_R   0.412589 0.253156 0.918813 0.076103
C61   C     C_R   0.944866 0.753292 0.843633 -0.223168
C62   C     C_R   0.055189 0.753438 0.156458 -0.222042
C63   C     C_R   0.444872 0.253389 0.843651 -0.222756
C64   C     C_R   0.555196 0.253341 0.156478 -0.222783
C65   C     C_R   0.897673 0.753203 0.841545 -0.146971
C66   C     C_R   0.102384 0.753287 0.158547 -0.146491
C67   C     C_R   0.397679 0.253299 0.841563 -0.146377
C68   C     C_R   0.602391 0.253195 0.158565 -0.146341
C69   C     C_2   0.903218 0.591230 0.249865 -0.153953
C70   C     C_2   0.061754 0.625543 0.680261 -0.153862
C71   C     C_2   0.438337 0.125593 0.319686 -0.152807
C72   C     C_2   0.561753 0.125578 0.680178 -0.152710
C73   C     C_2   0.902414 0.588803 0.310326 -0.310893
C74   C     C_2   0.091311 0.595032 0.677001 -0.312631
C75   C     C_2   0.408770 0.095000 0.322942 -0.313714
C76   C     C_2   0.591315 0.095032 0.676997 -0.313836
C77   C     C_2   0.862419 0.621622 0.177054 -0.153228
C78   C     C_2   0.096512 0.661957 0.740929 -0.154086
C79   C     C_2   0.403574 0.162002 0.259024 -0.154770
C80   C     C_2   0.596524 0.161985 0.740865 -0.154832
C81   C     C_2   0.847662 0.659743 0.187001 -0.315253
C82   C     C_2   0.155424 0.657075 0.818296 -0.310495
C83   C     C_2   0.344626 0.157081 0.181698 -0.311042
C84   C     C_2   0.655404 0.157077 0.818284 -0.311125
C85   C     C_R   0.058139 0.559707 0.615385 0.845953
C86   C     C_R   0.939912 0.557789 0.380713 0.842386
C87   C     C_R   0.558143 0.059706 0.615390 0.842104
C88   C     C_R   0.441894 0.059700 0.384601 0.842049
C89   C     C_R   0.810290 0.691455 0.117949 0.844868
C90   C     C_R   0.190016 0.691217 0.882513 0.844209
C91   C     C_R   0.310002 0.191220 0.117488 0.844254
C92   C     C_R   0.690011 0.191217 0.882510 0.844287
C93   C     C_R   0.559775 0.941656 0.618333 0.728320
C94   C     C_R   0.440175 0.941665 0.381645 0.728238
C95   C     C_R   0.059775 0.441655 0.618332 0.728199
C96   C     C_R   0.940175 0.441666 0.381645 0.724170
C97   C     C_R   0.834949 0.751049 0.998720 0.805550
C98   C     C_R   0.165072 0.751013 0.001315 0.805686
C99   C     C_R   0.334952 0.251046 0.998728 0.805850
C100  C     C_R   0.665075 0.251016 0.001321 0.805905
C101  C     C_R   0.406371 0.788564 0.998312 -0.239947
C102  C     C_R   0.593491 0.788548 0.001171 -0.240336
C103  C     C_R   0.906373 0.288564 0.998317 -0.240400
C104  C     C_R   0.093494 0.288548 0.001177 -0.240123
C105  C     C_R   0.384748 0.749601 0.001376 -0.055447
C106  C     C_R   0.615098 0.749579 0.998318 -0.056246
C107  C     C_R   0.884748 0.249601 0.001377 -0.055391
C108  C     C_R   0.115099 0.249579 0.998320 -0.055403
C109  C     C_R   0.409176 0.710579 0.004186 -0.238816
C110  C     C_R   0.590580 0.710557 0.995572 -0.239043
C111  C     C_R   0.909174 0.210579 0.004184 -0.239091
C112  C     C_R   0.090579 0.210558 0.995572 -0.239193
C113  C     C_R   0.454419 0.710240 0.002071 0.108370
C114  C     C_R   0.545291 0.710229 0.997606 0.107939
C115  C     C_R   0.954418 0.210240 0.002069 0.108386
C116  C     C_R   0.045291 0.210230 0.997606 0.108469
C117  C     C_R   0.476814 0.749533 0.000204 0.060885
C118  C     C_R   0.522940 0.749528 0.999311 0.060932
C119  C     C_R   0.976816 0.249533 0.000207 0.060878
C120  C     C_R   0.022941 0.249528 0.999314 0.060849
Cu1   Cu    Cu3+1 0.719490 0.719480 0.938970 0.974408
Cu2   Cu    Cu3+1 0.280510 0.719480 0.061030 0.975912
Cu3   Cu    Cu3+1 0.219490 0.219480 0.938970 0.976264
Cu4   Cu    Cu3+1 0.780510 0.219480 0.061030 0.976167
Cu5   Cu    Cu3+1 0.780480 0.780500 0.060980 0.957095
Cu6   Cu    Cu3+1 0.219520 0.780500 0.939020 0.956318
Cu7   Cu    Cu3+1 0.280480 0.280500 0.060980 0.955836
Cu8   Cu    Cu3+1 0.719520 0.280500 0.939020 0.955694
Cu9   Cu    Cu3+1 0.455530 0.999980 0.499990 0.962857
Cu10  Cu    Cu3+1 0.544470 0.999980 0.500010 0.962622
Cu11  Cu    Cu3+1 0.955530 0.499980 0.499990 0.962400
Cu12  Cu    Cu3+1 0.044470 0.499980 0.500010 0.963033
H1    H     H_    0.387500 0.818612 0.996763 0.142978
H2    H     H_    0.612430 0.818595 0.002664 0.143014
H3    H     H_    0.887504 0.318612 0.996771 0.142666
H4    H     H_    0.112435 0.318595 0.002672 0.142875
H5    H     H_    0.042615 0.753051 0.864539 0.161039
H6    H     H_    0.957430 0.753262 0.135545 0.164385
H7    H     H_    0.542617 0.253134 0.864552 0.161218
H8    H     H_    0.457433 0.253168 0.135564 0.161149
H9    H     H_    0.932059 0.753438 0.783129 0.147433
H10   H     H_    0.067997 0.753650 0.216962 0.149448
H11   H     H_    0.432065 0.253571 0.783147 0.147702
H12   H     H_    0.568005 0.253514 0.216983 0.147686
H13   H     H_    0.849482 0.753316 0.779093 0.198390
H14   H     H_    0.150575 0.753424 0.220999 0.198834
H15   H     H_    0.349489 0.253448 0.779112 0.198526
H16   H     H_    0.650582 0.253296 0.221016 0.198522
H17   H     H_    0.931567 0.569106 0.250997 0.161514
H18   H     H_    0.011085 0.625062 0.635004 0.162143
H19   H     H_    0.489007 0.125191 0.364962 0.163577
H20   H     H_    0.511078 0.125129 0.634849 0.163666
H21   H     H_    0.869104 0.607590 0.304068 0.154390
H22   H     H_    0.140934 0.597999 0.715421 0.155580
H23   H     H_    0.359149 0.097894 0.284520 0.155363
H24   H     H_    0.640953 0.097969 0.715480 0.155315
H25   H     H_    0.847452 0.613539 0.116350 0.164913
H26   H     H_    0.072117 0.692139 0.723982 0.160426
H27   H     H_    0.427979 0.192224 0.275955 0.160846
H28   H     H_    0.572160 0.192187 0.723881 0.160963
H29   H     H_    0.868183 0.669768 0.250216 0.155351
H30   H     H_    0.177371 0.625649 0.839061 0.154604
H31   H     H_    0.322661 0.125627 0.160931 0.154826
H32   H     H_    0.677312 0.125638 0.839068 0.154870
H33   H     H_    0.391780 0.680574 0.005832 0.144945
H34   H     H_    0.607959 0.680550 0.994081 0.146656
H35   H     H_    0.891777 0.180575 0.005827 0.144905
H36   H     H_    0.107957 0.180550 0.994078 0.144808
H37   H     H_    0.460499 0.640999 0.002458 0.147846
H38   H     H_    0.539106 0.640989 0.997459 0.148522
H39   H     H_    0.960495 0.140999 0.002451 0.147681
H40   H     H_    0.039102 0.140989 0.997452 0.147675
H41   H     H_    0.541103 0.858083 0.000669 0.146058
H42   H     H_    0.458816 0.858089 0.998476 0.146090
H43   H     H_    0.041110 0.358083 0.000683 0.145781
H44   H     H_    0.958823 0.358090 0.998489 0.145482
H45   H     H_    0.577251 0.934970 0.755064 0.119221
H46   H     H_    0.422829 0.935043 0.245044 0.119288
H47   H     H_    0.077253 0.434970 0.755065 0.119010
H48   H     H_    0.922687 0.435118 0.244921 0.115171
H49   H     H_    0.666985 0.891672 0.890683 0.153131
H50   H     H_    0.333083 0.891722 0.109347 0.153138
H51   H     H_    0.166987 0.391673 0.890683 0.153059
H52   H     H_    0.832967 0.391751 0.109287 0.152548
H53   H     H_    0.617151 0.827263 0.747481 0.193108
H54   H     H_    0.382670 0.827317 0.252520 0.192976
H55   H     H_    0.117150 0.327263 0.747481 0.193104
H56   H     H_    0.882723 0.327326 0.252516 0.192863
O1    O     O_R   0.679710 0.768740 0.859430 -0.587563
O2    O     O_R   0.320290 0.768740 0.140570 -0.587588
O3    O     O_R   0.179710 0.268740 0.859430 -0.587531
O4    O     O_R   0.820290 0.268740 0.140570 -0.587539
O5    O     O_R   0.082020 0.544510 0.588970 -0.581286
O6    O     O_R   0.917980 0.544510 0.411030 -0.585659
O7    O     O_R   0.582020 0.044510 0.588970 -0.585334
O8    O     O_R   0.417980 0.044510 0.411030 -0.585304
O9    O     O_R   0.506970 0.955460 0.589020 -0.594561
O10   O     O_R   0.493030 0.955460 0.410980 -0.594646
O11   O     O_R   0.006970 0.455460 0.589020 -0.594671
O12   O     O_R   0.993030 0.455460 0.410980 -0.598096
O13   O     O_R   0.582050 0.955480 0.588990 -0.575805
O14   O     O_R   0.417950 0.955480 0.411010 -0.575836
O15   O     O_R   0.082050 0.455480 0.588990 -0.575773
O16   O     O_R   0.917950 0.455480 0.411010 -0.575534
O17   O     O_R   0.731220 0.820270 0.962460 -0.581982
O18   O     O_R   0.268780 0.820270 0.037540 -0.582047
O19   O     O_R   0.231220 0.320270 0.962460 -0.582165
O20   O     O_R   0.768780 0.320270 0.037540 -0.582108
O21   O     O_R   0.659370 0.724200 0.948480 -0.585786
O22   O     O_R   0.340630 0.724200 0.051520 -0.587183
O23   O     O_R   0.159370 0.224200 0.948480 -0.587108
O24   O     O_R   0.840630 0.224200 0.051520 -0.587058
O25   O     O_R   0.710880 0.775730 0.051510 -0.588907
O26   O     O_R   0.289120 0.775730 0.948490 -0.587464
O27   O     O_R   0.210880 0.275730 0.051510 -0.587702
O28   O     O_R   0.789120 0.275730 0.948490 -0.587831
O29   O     O_R   0.768760 0.679710 0.037490 -0.580378
O30   O     O_R   0.231240 0.679710 0.962510 -0.586302
O31   O     O_R   0.268760 0.179710 0.037490 -0.586138
O32   O     O_R   0.731240 0.179710 0.962510 -0.586155
O33   O     O_R   0.820270 0.731240 0.140520 -0.587112
O34   O     O_R   0.179730 0.731240 0.859480 -0.580570
O35   O     O_R   0.320270 0.231240 0.140520 -0.580778
O36   O     O_R   0.679730 0.231240 0.859480 -0.580819
O37   O     O_R   0.789100 0.724240 0.948440 -0.570323
O38   O     O_R   0.210900 0.724240 0.051560 -0.567453
O39   O     O_R   0.289100 0.224240 0.948440 -0.567171
O40   O     O_R   0.710900 0.224240 0.051560 -0.567348
O41   O     O_R   0.840600 0.775770 0.051470 -0.581301
O42   O     O_R   0.159400 0.775770 0.948530 -0.584046
O43   O     O_R   0.340600 0.275770 0.051470 -0.584129
O44   O     O_R   0.659400 0.275770 0.948530 -0.583976
O45   O     O_R   0.006940 0.544490 0.589000 -0.580933
O46   O     O_R   0.993060 0.544490 0.411000 -0.580332
O47   O     O_R   0.506940 0.044490 0.589000 -0.580154
O48   O     O_R   0.493060 0.044490 0.411000 -0.580202
O49   O     O_3   0.636618 0.882805 0.692407 -0.721168
H57   H     H_    0.624291 0.883712 0.636653 0.332186
O50   O     O_3   0.363067 0.882847 0.307333 -0.720990
H58   H     H_    0.375303 0.883756 0.363020 0.332267
O51   O     O_3   0.136616 0.382804 0.692404 -0.721102
H59   H     H_    0.124288 0.383711 0.636649 0.332245
O52   O     O_3   0.863138 0.382807 0.307418 -0.720797
H60   H     H_    0.875414 0.383708 0.363134 0.332273
O53   O     O_3   0.196558 0.756286 0.162317 -0.729624
H61   H     H_    0.222375 0.769273 0.154777 0.335962
O54   O     O_3   0.803511 0.756301 0.837766 -0.730034
H62   H     H_    0.777744 0.769351 0.845276 0.336076
O55   O     O_3   0.696566 0.256207 0.162337 -0.729664
H63   H     H_    0.722388 0.269219 0.154824 0.335981
O56   O     O_3   0.303521 0.256391 0.837790 -0.729679
H64   H     H_    0.277760 0.269414 0.845332 0.335856

loop_
_geom_bond_atom_site_label_1
_geom_bond_atom_site_label_2
_ccdc_geom_bond_type
C66   H14   S    
C97   O37   A    
C55   C56   A    
Cu4   O32   S    
C11   H39   S    
C47   O23   A    
C42   H6    S    
C88   O8    A    
C9    H37   S    
O50   H58   S    
C18   C26   S    
C35   O55   S    
C57   C66   A    
C72   C76   D    
C85   O5    A    
Cu8   O36   S    
C40   C99   S    
C71   C79   S    
C39   C100  S    
Cu1   O37   S    
O56   H64   S    
C20   H48   S    
C53   C54   A    
Cu11  O45   S    
C13   H41   S    
Cu5   O33   S    
O55   H63   S    
C86   O46   A    
C1    O1    A    
Cu9   O47   S    
C37   C41   A    
C85   O45   A    
C64   C68   A    
C70   C78   S    
Cu6   O42   S    
C89   O29   A    
C90   O34   A    
C55   C59   A    
C24   C96   S    
C45   O21   A    
C79   H27   S    
C34   C58   A    
C12   C116  A    
C80   H28   S    
C48   C107  S    
Cu3   O39   S    
C95   O15   A    
O52   H60   S    
C112  H36   S    
C46   C105  S    
Cu11  O11   S    
Cu12  O12   S    
C36   O56   S    
C87   O47   A    
C74   H22   S    
C24   O52   S    
C35   C59   A    
O51   H59   S    
Cu5   O17   S    
C92   O32   A    
Cu7   O19   S    
C36   C40   A    
C103  H3    S    
Cu6   O26   S    
C13   C14   A    
C106  C110  A    
C98   O42   A    
C69   C77   S    
C78   H26   S    
C97   O41   A    
C48   O24   A    
C60   C67   A    
C29   H53   S    
C70   H18   S    
C46   O26   A    
Cu3   O23   S    
C70   C74   D    
C45   O25   A    
C84   C92   S    
Cu2   O22   S    
C33   O53   S    
C94   O14   A    
Cu1   O21   S    
C48   O28   A    
C23   O51   S    
C93   O13   A    
C9    C10   A    
C110  C114  A    
C41   H5    S    
C10   C114  A    
Cu7   O35   S    
Cu4   Cu8   S    
C81   C89   S    
C16   H44   S    
C104  C108  A    
C43   C51   A    
C44   H8    S    
C7    C103  A    
O49   H57   S    
C101  C105  A    
C22   C94   S    
C93   O9    A    
Cu5   O25   S    
C62   H10   S    
C38   C97   S    
C96   O16   A    
C41   C49   A    
C37   C98   S    
Cu4   O40   S    
C25   H49   S    
C4    O20   A    
C5    C101  A    
C25   C29   D    
C88   O48   A    
Cu2   O2    S    
C71   H19   S    
C71   C75   D    
C49   C61   A    
C15   C16   A    
C32   H56   S    
C27   C31   D    
C80   C84   D    
C7    C119  A    
C11   C115  A    
C92   O36   A    
C51   C63   A    
C69   H17   S    
C47   C108  S    
C12   H40   S    
Cu10  O7    S    
C52   C64   A    
C62   C66   A    
C19   C23   D    
C39   C43   A    
C82   H30   S    
C72   H20   S    
C46   O22   A    
C64   H12   S    
C76   H24   S    
C33   C37   A    
C99   O39   A    
C108  C112  A    
C115  C119  A    
C5    C117  A    
C94   O10   A    
C34   C38   A    
Cu2   Cu6   S    
C35   C39   A    
C17   C21   D    
C102  H2    S    
C63   C67   A    
Cu1   Cu5   S    
C109  C113  A    
C61   C65   A    
C59   C68   A    
C111  C115  A    
C78   C82   D    
C58   C65   A    
Cu3   Cu7   S    
C28   C32   D    
O54   H62   S    
C91   O35   A    
C105  C109  A    
Cu7   O43   S    
C50   C54   A    
Cu1   O1    S    
C69   C73   D    
Cu11  O16   S    
C8    C104  A    
C76   C87   S    
C77   H25   S    
C5    C14   A    
C114  C118  A    
Cu10  O13   S    
C109  H33   S    
C83   H31   S    
Cu8   O28   S    
C2    O18   A    
Cu9   O14   S    
C26   H50   S    
C61   H9    S    
C7    C16   A    
C42   C50   A    
Cu2   O30   S    
C8    C15   A    
C101  H1    S    
C98   O38   A    
C67   H15   S    
Cu12  O5    S    
C50   C62   A    
C113  C117  A    
Cu11  O6    S    
C111  H35   S    
Cu3   O3    S    
Cu11  Cu12  S    
C20   C28   S    
C19   H47   S    
Cu4   O4    S    
Cu9   O8    S    
C19   C27   S    
C45   C106  S    
C8    C120  A    
C103  C107  A    
C22   O50   S    
C54   C58   A    
C17   H45   S    
C96   O12   A    
Cu3   O31   S    
Cu12  O15   S    
C53   C57   A    
C104  H4    S    
C21   O49   S    
C18   C22   D    
C107  C111  A    
C2    O2    A    
C36   C60   A    
C68   H16   S    
C44   C52   A    
C99   O43   A    
C119  C120  A    
C47   O27   A    
C75   H23   S    
C38   C42   A    
C14   H42   S    
C33   C57   A    
C43   H7    S    
C100  O40   A    
Cu1   O29   S    
Cu4   O24   S    
C84   H32   S    
Cu5   O41   S    
C82   C90   S    
C15   H43   S    
C2    C30   S    
C3    O19   A    
C4    O4    A    
C28   H52   S    
C17   C25   S    
C72   C80   S    
Cu10  O10   S    
C117  C118  A    
C86   O6    A    
C3    C31   S    
C89   O33   A    
C110  H34   S    
Cu7   O27   S    
C1    C29   S    
C21   C93   S    
Cu6   O18   S    
C49   C53   A    
C10   H38   S    
C83   C91   S    
C65   H13   S    
Cu10  O48   S    
C1    O17   A    
C23   C95   S    
C102  C106  A    
C51   C55   A    
C6    C102  A    
C74   C85   S    
C91   O31   A    
C3    O3    A    
C27   H51   S    
C9    C113  A    
C90   O30   A    
C87   O7    A    
C4    C32   S    
C79   C83   D    
C116  C120  A    
C75   C88   S    
C40   C44   A    
C56   C60   A    
C18   H46   S    
C95   O11   A    
C77   C81   D    
Cu8   O44   S    
C73   H21   S    
C34   O54   S    
C30   H54   S    
C63   H11   S    
Cu9   Cu10  S    
C112  C116  A    
C100  O44   A    
C81   H29   S    
C73   C86   S    
Cu8   O20   S    
Cu6   O34   S    
C31   H55   S    
O53   H61   S    
Cu12  O46   S    
C20   C24   D    
Cu9   O9    S    
C52   C56   A    
C11   C12   A    
C6    C118  A    
C6    C13   A    
C26   C30   D    
Cu2   O38   S    
