data_mof_unit_9325.cif
_audit_creation_date              2013-03-05T15:48:30-0500
_audit_creation_method            fapswitch 2.2
_symmetry_space_group_name_H-M    P1
_symmetry_Int_Tables_number       1
_space_group_crystal_system       triclinic
_cell_length_a                    20.133626
_cell_length_b                    7.170261
_cell_length_c                    13.696481
_cell_angle_alpha                 90.07626
_cell_angle_beta                  103.275905
_cell_angle_gamma                 89.98942
_cell_volume                      1924.42671756

loop_
_atom_site_label
_atom_site_type_symbol
_atom_site_description
_atom_site_fract_x
_atom_site_fract_y
_atom_site_fract_z
_atom_type_partial_charge
O1    O     O_R   0.449830 0.506740 0.599960 -0.580383
O2    O     O_R   0.550170 0.006740 0.400040 -0.587817
O3    O     O_R   0.588980 0.179860 0.596720 -0.607520
O4    O     O_R   0.411020 0.679860 0.403280 -0.605289
C1    C     C_R   0.615328 0.345608 0.620814 0.988075
C2    C     C_R   0.384344 0.845285 0.379895 0.992499
O5    O     O_R   0.452740 0.177340 0.612040 -0.607215
O6    O     O_R   0.547260 0.677340 0.387960 -0.597512
O7    O     O_R   0.412960 0.002070 0.415460 -0.533717
O8    O     O_R   0.587040 0.502070 0.584540 -0.532043
C3    C     C_R   0.436163 0.346009 0.637357 1.060471
C4    C     C_R   0.564408 0.845636 0.363362 1.060093
O9    O     O_3   0.487110 0.337570 0.435490 -0.240593
O10   O     O_3   0.512890 0.837570 0.564510 -0.241790
V1    V     V_3+5 0.502390 0.064650 0.511970 1.311279
V2    V     V_3+5 0.497610 0.564650 0.488030 1.320392
C5    C     C_R   0.608703 0.895456 0.113317 -0.231820
C6    C     C_R   0.391174 0.423154 0.885434 -0.235095
H1    H     H_    0.582406 0.919918 0.036062 0.198265
H2    H     H_    0.417259 0.451640 0.962395 0.197692
C7    C     C_R   0.603471 0.854660 0.285858 -0.244006
C8    C     C_R   0.397318 0.358257 0.715123 -0.250880
C9    C     C_R   0.932086 0.807769 0.311578 -0.197129
C10   C     C_R   0.067630 0.347103 0.685227 -0.203116
C11   C     C_R   0.896864 0.754693 0.382788 -0.261597
C12   C     C_R   0.101657 0.358837 0.608211 -0.251868
C13   C     C_R   0.825069 0.751022 0.359840 0.526596
C14   C     C_R   0.173072 0.379069 0.628652 0.558433
C15   C     C_R   0.787556 0.821885 0.265887 0.010973
C16   C     C_R   0.212007 0.373098 0.729972 0.007438
C17   C     C_R   0.824474 0.862246 0.191086 0.003415
C18   C     C_R   0.175747 0.374127 0.808199 0.000166
C19   C     C_R   0.714720 0.845080 0.241137 0.036175
C20   C     C_R   0.285324 0.374383 0.757121 0.035897
C21   C     C_R   0.680398 0.881947 0.140077 0.024054
C22   C     C_R   0.319562 0.406215 0.858762 0.022972
C23   C     C_R   0.717508 0.907101 0.066366 0.598825
C24   C     C_R   0.282674 0.415611 0.933663 0.594320
C25   C     C_R   0.788758 0.902397 0.092654 -0.405035
C26   C     C_R   0.211809 0.393539 0.908474 -0.403070
C27   C     C_R   0.674738 0.841993 0.313640 -0.200548
C28   C     C_R   0.326332 0.338301 0.688024 -0.202692
C29   C     C_R   0.569943 0.880133 0.185603 0.489002
C30   C     C_R   0.430155 0.403659 0.813577 0.491266
C31   C     C_R   0.896745 0.854572 0.214984 -0.117064
C32   C     C_R   0.103573 0.360157 0.784768 -0.116119
H3    H     H_    0.697494 0.839760 0.392876 0.221953
H4    H     H_    0.305149 0.288777 0.613196 0.236329
H5    H     H_    0.987352 0.800248 0.329985 0.136631
H6    H     H_    0.012441 0.336339 0.666916 0.138946
H7    H     H_    0.925918 0.705950 0.454826 0.144773
H8    H     H_    0.071650 0.359822 0.531660 0.142994
H9    H     H_    0.816050 0.929450 0.034698 0.146998
H10   H     H_    0.184870 0.396622 0.968326 0.147631
C33   C     C_3   0.236272 0.745094 0.143764 -0.451166
C34   C     C_3   0.763755 0.244786 0.856368 -0.456563
H11   H     H_    0.213567 0.606942 0.124443 0.212309
H12   H     H_    0.786531 0.106616 0.874846 0.212150
H13   H     H_    0.241801 0.805518 0.071251 0.217311
H14   H     H_    0.758492 0.304629 0.929219 0.218712
C35   C     C_3   0.307535 0.723263 0.216743 0.350800
C36   C     C_3   0.692363 0.223235 0.783650 0.345693
H15   H     H_    0.310450 0.575833 0.241785 0.134471
H16   H     H_    0.689579 0.076328 0.758101 0.138868
H17   H     H_    0.268836 0.621925 0.375906 0.173664
H18   H     H_    0.729691 0.125416 0.622018 0.155984
C37   C     C_3   0.185146 0.792524 0.296428 0.332253
C38   C     C_3   0.814254 0.292108 0.703407 0.330148
C39   C     C_3   0.219846 0.067483 0.200400 -0.067608
C40   C     C_3   0.779991 0.567428 0.800568 -0.067691
C41   C     C_3   0.186981 0.867014 0.189760 -0.264643
C42   C     C_3   0.812860 0.366801 0.810406 -0.253751
H19   H     H_    0.222028 0.102717 0.122377 0.134248
H20   H     H_    0.778519 0.603060 0.878865 0.134328
C43   C     C_3   0.313372 0.856811 0.309466 -0.433977
C44   C     C_3   0.686176 0.357768 0.691424 -0.409685
C45   C     C_3   0.258658 0.774136 0.363722 0.213364
C46   C     C_3   0.740566 0.277066 0.636184 0.179743
C47   C     C_3   0.295351 0.065308 0.268172 0.448704
C48   C     C_3   0.704026 0.565574 0.734076 0.449454
H21   H     H_    0.155601 0.889986 0.332734 0.153861
H22   H     H_    0.844683 0.387119 0.667394 0.146644
O11   O     O_R   0.912980 0.203550 0.915410 -0.541489
O12   O     O_R   0.087020 0.703550 0.084590 -0.541885
O13   O     O_R   0.047270 0.535570 0.887960 -0.597324
O14   O     O_R   0.952730 0.035570 0.112040 -0.599220
C49   C     C_R   0.064100 0.368108 0.862554 0.937236
C50   C     C_R   0.936088 0.867914 0.137511 0.936460
O15   O     O_R   0.911030 0.532970 0.903270 -0.571819
O16   O     O_R   0.088970 0.032970 0.096730 -0.571984
O17   O     O_R   0.949820 0.708150 0.099970 -0.594451
O18   O     O_R   0.050180 0.208150 0.900030 -0.593926
C51   C     C_R   0.884246 0.366159 0.881028 0.974939
C52   C     C_R   0.115753 0.866291 0.118889 0.975386
O19   O     O_3   0.012900 0.375230 0.064480 -0.246689
O20   O     O_3   0.987100 0.875230 0.935520 -0.244924
V3    V     V_3+5 0.997610 0.648190 0.988040 1.271505
V4    V     V_3+5 0.002390 0.148190 0.011960 1.271712
O21   O     O_3   0.499675 0.894619 0.160573 -0.708815
H23   H     H_    0.484097 0.912607 0.087081 0.348901
O22   O     O_3   0.500223 0.424046 0.838165 -0.701712
H24   H     H_    0.515280 0.456207 0.910318 0.349910
O23   O     O_3   0.360031 0.751222 0.166170 -0.622329
H25   H     H_    0.400078 0.677857 0.201901 0.355922
O24   O     O_3   0.640038 0.249998 0.834770 -0.621003
H26   H     H_    0.599496 0.179849 0.797771 0.352327
O25   O     O_3   0.151917 0.619367 0.288443 -0.684163
H27   H     H_    0.132141 0.605682 0.348079 0.321116
O26   O     O_3   0.846590 0.117818 0.710435 -0.683135
H28   H     H_    0.855868 0.090433 0.643670 0.338601
N1    N     N_R   0.176253 0.216100 0.226949 0.277948
O27   O     O_R   0.146056 0.200432 0.300848 -0.368553
O28   O     O_R   0.155169 0.346415 0.161455 -0.368766
N2    N     N_R   0.823379 0.715393 0.773118 0.278310
O29   O     O_R   0.852944 0.698511 0.698586 -0.373421
O30   O     O_R   0.845125 0.845937 0.838394 -0.365675
N3    N     N_R   0.344286 0.120170 0.205511 0.240730
O31   O     O_R   0.330736 0.089679 0.109179 -0.373658
O32   O     O_R   0.406507 0.170111 0.246978 -0.300789
N4    N     N_R   0.655528 0.617123 0.797980 0.241535
O33   O     O_R   0.670371 0.588718 0.894476 -0.379628
O34   O     O_R   0.592585 0.661485 0.757355 -0.299861
N5    N     N_R   0.301220 0.201135 0.352145 0.233224
O35   O     O_R   0.344629 0.337733 0.363529 -0.408412
O36   O     O_R   0.264495 0.186762 0.418166 -0.327122
N6    N     N_R   0.696945 0.704107 0.651446 0.231981
O37   O     O_R   0.652321 0.837484 0.641274 -0.410014
O38   O     O_R   0.733289 0.694627 0.584873 -0.324657
O39   O     O_3   0.683002 0.942183 0.969009 -0.695601
H29   H     H_    0.714374 0.919633 0.924369 0.326350
O40   O     O_3   0.317330 0.442117 0.031895 -0.696917
H30   H     H_    0.286042 0.416302 0.076251 0.327056
O41   O     O_3   0.261953 0.851809 0.458924 -0.683185
H31   H     H_    0.300676 0.791956 0.506683 0.326479
O42   O     O_3   0.737366 0.359021 0.542169 -0.684442
H32   H     H_    0.698822 0.300446 0.493393 0.323087
O43   O     O_3   0.792068 0.659836 0.423588 -0.703339
H33   H     H_    0.826107 0.610906 0.482148 0.367912
O44   O     O_3   0.203704 0.422951 0.551288 -0.740826
H34   H     H_    0.169733 0.414105 0.486477 0.352843

loop_
_geom_bond_atom_site_label_1
_geom_bond_atom_site_label_2
_geom_bond_distance
_ccdc_geom_bond_type
C24   C26   1.397718 A    
C48   N4    1.499226 S    
O22   H24   0.991735 S    
C9    C31   1.392113 A    
C33   H13   1.112845 S    
C13   C15   1.428204 A    
N1    O27   1.299868 A    
C37   C45   1.559233 S    
O2    C4    1.316587 A    
C2    O7    1.304962 A    
C5    C29   1.398741 A    
N2    O29   1.299928 A    
O19   V4    1.771864 S    
O18   V4    2.034762 S    
N5    O35   1.297987 A    
C41   C52   1.536064 S    
C25   H9    1.081874 S    
C35   C43   1.572217 S    
O5    C3    1.321429 A    
C13   O43   1.378192 S    
O12   V3    2.013049 S    
C21   C23   1.398931 A    
C29   O21   1.380980 S    
C32   C49   1.469230 S    
C12   H8    1.083262 S    
N3    O32   1.301154 A    
O14   C50   1.316837 A    
C9    H5    1.084324 S    
C37   C41   1.564600 S    
O11   C51   1.338642 A    
C15   C19   1.436939 A    
C35   H15   1.109174 S    
C47   N3    1.500461 S    
C39   C41   1.575040 S    
C36   H16   1.106879 S    
N5    O36   1.297082 A    
C19   C21   1.422999 A    
C7    C29   1.396229 A    
C8    C30   1.396753 A    
C23   O39   1.378174 S    
C20   C28   1.415060 A    
C34   C42   1.557822 S    
O11   V4    2.013613 S    
O20   V4    2.206409 S    
C40   H20   1.109067 S    
O25   H27   0.992418 S    
C39   H19   1.109064 S    
C30   O22   1.380814 S    
C46   O42   1.404085 S    
C20   C22   1.422588 A    
O6    C4    1.320440 A    
O5    V1    2.038807 S    
O6    V2    2.040400 S    
C49   O18   1.313484 A    
C38   C46   1.559774 S    
C36   C44   1.572436 S    
C14   O44   1.379582 S    
C45   O41   1.404691 S    
N4    O34   1.301241 A    
O16   C52   1.317872 A    
O13   C49   1.315518 A    
C10   H6    1.084214 S    
H18   C46   1.117124 S    
H17   C45   1.116099 S    
C16   C20   1.437096 A    
C40   C48   1.590309 S    
O42   H32   0.993073 S    
C31   C50   1.465915 S    
O4    C2    1.311391 A    
C36   O24   1.405436 S    
C28   H4    1.075504 S    
C47   N5    1.489937 S    
C4    C7    1.460558 S    
C40   N2    1.477257 S    
C34   H14   1.112815 S    
O15   V3    2.034121 S    
O4    V2    2.035129 S    
C11   H7    1.083337 S    
C6    C30   1.399438 A    
O21   H23   0.991732 S    
C50   O17   1.310230 A    
C38   C42   1.565923 S    
O20   V3    1.773551 S    
C27   H3    1.076859 S    
N1    O28   1.298130 A    
O1    V2    2.031561 S    
O12   C52   1.338273 A    
O17   V3    2.033824 S    
O2    V1    2.030654 S    
C43   C45   1.579415 S    
C7    C27   1.400412 A    
C42   C51   1.537154 S    
C37   H21   1.106463 S    
C26   H10   1.082046 S    
C33   H11   1.097347 S    
O41   H31   0.993112 S    
C34   C36   1.556937 S    
C39   C47   1.588947 S    
C43   C47   1.610687 S    
O40   H30   0.988074 S    
O3    V1    2.034136 S    
N4    O33   1.302626 A    
O39   H29   0.987933 S    
O24   H26   0.992763 S    
N6    O38   1.295273 A    
C35   O23   1.404908 S    
C18   C32   1.417870 A    
C44   C48   1.609988 S    
C44   C46   1.576583 S    
O3    C1    1.312069 A    
N2    O30   1.298201 A    
O44   H34   0.990362 S    
O19   V3    2.208779 S    
C11   C13   1.407210 A    
O43   H33   0.992108 S    
C3    C8    1.461564 S    
C12   C14   1.407790 A    
C38   H22   1.105702 S    
C24   O40   1.378903 S    
C1    C44   1.530950 S    
C22   C24   1.399382 A    
O7    V1    2.023910 S    
C19   C27   1.414847 A    
C1    O8    1.304265 A    
C23   C25   1.396921 A    
O8    V2    2.024545 S    
N3    O31   1.302689 A    
C16   C18   1.428372 A    
C39   N1    1.477617 S    
C10   C12   1.386104 A    
C37   O25   1.402652 S    
C8    C28   1.398983 A    
C48   N6    1.488852 S    
N6    O37   1.297597 A    
C33   C35   1.556886 S    
C14   C16   1.429218 A    
C5    H1    1.083455 S    
C34   H12   1.096842 S    
C6    H2    1.083455 S    
C38   O26   1.402185 S    
C18   C26   1.405107 A    
O15   C51   1.318343 A    
O14   V4    2.040439 S    
O13   V3    2.038847 S    
C9    C11   1.384835 A    
C15   C17   1.427056 A    
C17   C31   1.417265 A    
O9    V2    1.772225 S    
O23   H25   0.992782 S    
C17   C25   1.404730 A    
O10   V1    1.773912 S    
C40   C42   1.576304 S    
O1    C3    1.316322 A    
C5    C21   1.408687 A    
O26   H28   0.993790 S    
C6    C22   1.408928 A    
O16   V4    2.035116 S    
C33   C41   1.559268 S    
C10   C32   1.392025 A    
C2    C43   1.531746 S    
