data_mof_unit_67591.cif
_audit_creation_date              2012-10-26T19:41:52-0400
_audit_creation_method            fapswitch 2.2
_symmetry_space_group_name_H-M    P1
_symmetry_Int_Tables_number       1
_space_group_crystal_system       triclinic
_cell_length_a                    10.994207
_cell_length_b                    10.890574
_cell_length_c                    9.726357
_cell_angle_alpha                 91.29181
_cell_angle_beta                  93.81219
_cell_angle_gamma                 104.898571
_cell_volume                      1121.97882885

loop_
_atom_site_label
_atom_site_type_symbol
_atom_type_description
_atom_site_fract_x
_atom_site_fract_y
_atom_site_fract_z
_atom_type_partial_charge
C1    C     C_R   0.497311 0.260179 0.500026 0.637484
C2    C     C_R   0.493572 0.057565 0.631457 -0.037192
C3    C     C_R   0.480025 0.118926 0.503957 0.050973
C4    C     C_R   0.256881 0.487777 0.494704 0.632976
C5    C     C_R   0.430001 0.041565 0.383498 0.319172
C6    C     C_R   0.405961 0.907773 0.387089 0.276397
C7    C     C_R   0.441277 0.852678 0.507600 0.008943
C8    C     C_R   0.647261 0.736036 0.137833 0.265661
C9    C     C_R   0.688903 0.833838 0.046071 -0.056195
C10   C     C_R   0.716088 0.808369 0.915875 0.165511
C11   C     C_R   0.665403 0.688227 0.859295 -0.018381
C12   C     C_3   0.973082 0.563957 0.398292 0.188504
C13   C     C_R   0.582058 0.595726 0.930508 0.031293
C14   C     C_R   0.578150 0.606045 0.079947 0.088062
C15   C     C_R   0.418658 0.404626 0.066924 0.328518
C16   C     C_R   0.479593 0.730407 0.501086 0.588812
C17   C     C_R   0.416413 0.406111 0.916494 0.316976
C18   C     C_R   0.741497 0.500785 0.503854 0.624883
C19   C     C_3   0.027726 0.414005 0.594846 -0.162953
C20   C     C_3   0.917243 0.376645 0.482830 0.136304
C21   C     C_3   0.880017 0.502409 0.508477 -0.065493
C22   C     C_3   0.990166 0.538142 0.621302 0.156942
C23   C     C_3   0.003702 0.435775 0.369035 0.195472
C24   C     C_3   0.080194 0.598306 0.513994 0.168719
C25   C     C_3   0.116430 0.474501 0.484048 -0.049210
C26   C     C_R   0.544055 0.122592 0.759076 0.018048
C27   C     C_R   0.527685 0.061477 0.885062 0.310936
C28   C     C_R   0.462605 0.932288 0.883547 0.303360
C29   C     C_R   0.429083 0.864627 0.758296 -0.033079
C30   C     C_R   0.455326 0.923811 0.632597 -0.067208
Cu1   Cu    Cu3+1 0.499990 0.499990 0.640660 1.066846
Cu2   Cu    Cu3+1 0.500010 0.500010 0.359340 1.204726
H1    H     H_    0.378818 0.765461 0.760508 0.179894
H2    H     H_    0.686675 0.948655 0.442096 0.409523
H3    H     H_    0.840458 0.107853 0.943258 0.399430
H4    H     H_    0.209475 0.194997 0.621084 0.354447
H5    H     H_    0.193150 0.610812 0.825280 0.345121
H6    H     H_    0.123588 0.776018 0.570279 0.391445
H7    H     H_    0.123816 0.731474 0.107989 0.422010
H8    H     H_    0.767977 0.411847 0.146232 0.362088
H9    H     H_    0.361051 0.034969 0.192091 0.404367
H10   H     H_    0.607236 0.218029 0.992289 0.346653
H11   H     H_    0.719947 0.933368 0.080404 0.217691
H12   H     H_    0.683346 0.672497 0.754758 0.218957
H13   H     H_    0.044450 0.348087 0.673955 0.231781
H14   H     H_    0.599177 0.219896 0.765098 0.179969
H15   H     H_    0.971685 0.122286 0.550294 0.366926
H16   H     H_    0.479102 0.921280 0.081552 0.401213
H17   H     H_    0.317815 0.745808 0.297612 0.389603
H18   H     H_    0.141094 0.126833 0.120741 0.406144
N1    N     N_R   0.501210 0.501210 0.147910 -0.297762
N2    N     N_R   0.501250 0.501290 0.852040 -0.312233
O1    O     O_R   0.499990 0.319640 0.618810 -0.495066
O2    O     O_2   0.717338 0.186439 0.383027 -0.182995
O3    O     O_3   0.919656 0.118533 0.462419 -0.404407
O4    O     O_3   0.433119 0.867544 0.001764 -0.667601
O5    O     O_3   0.353418 0.834026 0.270516 -0.652971
O6    O     O_2   0.289252 0.285517 0.293568 -0.257338
O7    O     O_2   0.192454 0.387214 0.119632 -0.178083
O8    O     O_3   0.218019 0.161708 0.072095 -0.403485
O9    O     O_2   0.741346 0.733379 0.417214 -0.255497
O10   O     O_2   0.852520 0.894528 0.271396 -0.147208
O11   O     O_3   0.649844 0.920351 0.347462 -0.506029
O12   O     O_R   0.500000 0.319660 0.381240 -0.392703
O13   O     O_2   0.952641 0.941489 0.888031 -0.171546
O14   O     O_2   0.809799 0.898338 0.677963 -0.216754
O15   O     O_3   0.787435 0.069297 0.859137 -0.487707
O16   O     O_2   0.314294 0.156774 0.854778 -0.256215
O17   O     O_2   0.168350 0.291091 0.861885 -0.200907
O18   O     O_3   0.276271 0.274247 0.645326 -0.519923
O19   O     O_2   0.003234 0.739699 0.788106 -0.213607
O20   O     O_2   0.876651 0.533698 0.857040 -0.209635
O21   O     O_3   0.121722 0.578136 0.882724 -0.410983
O22   O     O_3   0.169297 0.716048 0.534824 -0.696215
O23   O     O_R   0.316850 0.499960 0.618770 -0.461077
O24   O     O_2   0.876543 0.656305 0.171852 -0.252501
O25   O     O_2   0.032691 0.808472 0.331453 -0.193262
O26   O     O_3   0.111971 0.660678 0.172138 -0.428214
O27   O     O_2   0.987864 0.432424 0.082711 -0.104512
O28   O     O_2   0.968098 0.228732 0.193091 -0.182334
O29   O     O_3   0.782739 0.334591 0.188428 -0.458182
O30   O     O_3   0.409455 0.099051 0.262343 -0.577686
O31   O     O_3   0.569803 0.127261 0.009538 -0.632409
O32   O     O_R   0.316860 0.499980 0.381190 -0.452192
O33   O     O_R   0.500000 0.680340 0.618760 -0.556033
O34   O     O_R   0.500010 0.680360 0.381190 -0.453207
O35   O     O_R   0.683140 0.500020 0.618810 -0.502980
O36   O     O_R   0.683150 0.500040 0.381230 -0.459585
O37   O     O_2   0.779152 0.197216 0.629542 -0.286062
S1    S     S_3+6 0.826803 0.216341 0.489192 0.074122
S2    S     S_3+6 0.282446 0.307909 0.143222 0.157030
S3    S     S_3+6 0.724620 0.813521 0.299036 0.116679
S4    S     S_3+6 0.819648 0.928935 0.830277 0.078892
S5    S     S_3+6 0.294442 0.283233 0.817714 0.085232
S6    S     S_3+6 0.994362 0.600509 0.791648 0.098655
S7    S     S_3+6 0.994028 0.676933 0.266006 0.131717
S8    S     S_3+6 0.940153 0.356336 0.203367 0.171710

loop_
_geom_bond_atom_site_label_1
_geom_bond_atom_site_label_2
_ccdc_geom_bond_type
Cu1   O33   S    
O28   S8    D    
C18   C21   S    
C22   S6    S    
C19   C20   S    
Cu1   N2    S    
C4    C25   S    
C28   O4    S    
C12   C23   S    
C26   C27   A    
C28   C29   A    
O18   S5    S    
O2    S1    D    
O3    S1    S    
C5    C6    A    
O19   S6    D    
Cu2   O36   S    
C29   H1    S    
H17   O5    S    
H16   O4    S    
C1    O1    A    
C4    O23   A    
O20   S6    D    
C14   N1    A    
O26   S7    S    
C8    C9    A    
O10   S3    D    
O11   S3    S    
C8    S3    S    
C15   N1    A    
O6    S2    D    
O9    S3    D    
O13   S4    D    
C7    C30   A    
C13   C14   A    
C16   O34   A    
C6    O5    S    
C17   N2    A    
H4    O18   S    
Cu2   O32   S    
C9    H11   S    
Cu1   O35   S    
H7    O26   S    
C19   C22   S    
C24   C25   S    
Cu2   O12   S    
O17   S5    D    
C10   S4    S    
C20   S1    S    
C12   C21   S    
O16   S5    D    
C1    C3    S    
Cu2   N1    S    
C29   C30   A    
C13   N2    A    
Cu1   O23   S    
Cu1   Cu2   S    
C4    O32   A    
C20   C23   S    
H3    O15   S    
Cu2   O34   S    
C11   H12   S    
C2    C26   A    
O7    S2    D    
Cu1   O1    S    
O14   S4    D    
C7    C16   S    
C23   S8    S    
C16   O33   A    
C22   C24   S    
O21   S6    S    
C1    O12   A    
H15   O3    S    
H6    O22   S    
O8    S2    S    
C15   C17   A    
H5    O21   S    
C8    C14   A    
H8    O29   S    
O27   S8    D    
H10   O31   S    
C3    C5    A    
C19   H13   S    
C6    C7    A    
C12   C24   S    
O25   S7    D    
C18   O35   A    
C2    C30   A    
H18   O8    S    
C27   O31   S    
C2    C3    A    
O24   S7    D    
C5    O30   S    
C11   C13   A    
C24   O22   S    
O29   S8    S    
H9    O30   S    
H2    O11   S    
C9    C10   A    
C23   C25   S    
C19   C25   S    
C18   O36   A    
C10   C11   A    
C26   H14   S    
C15   S2    S    
C20   C21   S    
C27   C28   A    
O15   S4    S    
C12   S7    S    
C17   S5    S    
O37   S1    D    
C21   C22   S    
