data_mof_unit_6285.cif
_audit_creation_date              2012-12-11T14:07:44-0500
_audit_creation_method            fapswitch 2.2
_symmetry_space_group_name_H-M    P1
_symmetry_Int_Tables_number       1
_space_group_crystal_system       triclinic
_cell_length_a                    19.799957
_cell_length_b                    17.08768
_cell_length_c                    15.410547
_cell_angle_alpha                 90.522444
_cell_angle_beta                  53.458378
_cell_angle_gamma                 90.448247
_cell_volume                      4188.80859362

loop_
_atom_site_label
_atom_site_type_symbol
_atom_type_description
_atom_site_fract_x
_atom_site_fract_y
_atom_site_fract_z
_atom_type_partial_charge
C1    C     C_R   0.372040 0.195707 0.002008 -0.170212
C2    C     C_R   0.689895 0.837817 0.017851 0.176276
C3    C     C_R   0.779060 0.142625 0.229581 -0.216078
C4    C     C_R   0.459315 0.339634 0.309333 0.169051
C5    C     C_R   0.502861 0.338402 0.355756 -0.152169
C6    C     C_R   0.589699 0.351106 0.292329 -0.137973
C7    C     C_R   0.634369 0.365707 0.182093 -0.080753
C8    C     C_R   0.592171 0.368542 0.135119 -0.100172
C9    C     C_R   0.505274 0.356286 0.198232 -0.179018
C10   C     C_R   0.289988 0.667676 0.308182 0.162592
C11   C     C_R   0.351462 0.629372 0.311299 -0.137526
C12   C     C_R   0.403164 0.571997 0.234869 -0.132492
C13   C     C_R   0.206756 0.650977 0.987383 0.166753
C14   C     C_R   0.393423 0.550399 0.155455 -0.090340
C15   C     C_R   0.331055 0.585284 0.153260 -0.116911
C16   C     C_R   0.279096 0.642593 0.229584 -0.216067
C17   C     C_3   0.829263 0.254066 0.792869 -1.042381
C18   C     C_3   0.818974 0.750344 0.814914 -1.057389
C19   C     C_3   0.329260 0.754072 0.792869 -1.042304
C20   C     C_3   0.318997 0.250331 0.814872 -1.057398
C21   C     C_R   0.189932 0.337838 0.017794 0.176268
C22   C     C_R   0.689954 0.860588 0.678447 0.007065
C23   C     C_R   0.615162 0.180528 0.693586 0.014087
C24   C     C_R   0.189979 0.360611 0.678439 0.007056
C25   C     C_R   0.115159 0.680526 0.693594 0.014109
C26   C     C_3   0.246265 0.224798 0.450269 -0.432048
C27   C     C_3   0.180638 0.854224 0.502459 -0.424930
C28   C     C_3   0.746199 0.724948 0.450146 -0.432086
C29   C     C_R   0.377900 0.802089 0.991439 -0.206402
C30   C     C_3   0.680540 0.354240 0.502458 -0.424992
C31   C     C_3   0.192528 0.272811 0.553381 -0.389428
C32   C     C_3   0.125627 0.808864 0.609853 -0.401796
C33   C     C_3   0.692478 0.772985 0.553236 -0.389516
C34   C     C_3   0.625563 0.308869 0.609856 -0.401684
C35   C     C_3   0.352434 0.206221 0.487409 -0.407965
C36   C     C_3   0.307188 0.786496 0.465581 -0.393033
C37   C     C_3   0.852175 0.706033 0.487541 -0.408011
C38   C     C_3   0.807119 0.286589 0.465597 -0.392981
C39   C     C_3   0.864878 0.823107 0.375264 -0.108614
C40   C     C_R   0.872033 0.695704 0.002018 -0.170206
C41   C     C_3   0.727013 0.227125 0.395173 -0.113475
C42   C     C_3   0.364778 0.323187 0.375180 -0.108597
C43   C     C_3   0.227052 0.727092 0.395178 -0.113498
C44   C     C_3   0.340424 0.234416 0.401629 0.335258
C45   C     C_3   0.259417 0.804858 0.416797 0.333676
C46   C     C_3   0.840338 0.734374 0.401670 0.335321
C47   C     C_3   0.759349 0.304910 0.416797 0.333692
C48   C     C_3   0.748415 0.817084 0.577488 0.383452
C49   C     C_3   0.663774 0.226887 0.594884 0.380249
C50   C     C_3   0.248469 0.317121 0.577465 0.383396
C51   C     C_R   0.877900 0.302090 0.991438 -0.206186
C52   C     C_3   0.163799 0.726867 0.594890 0.380290
C53   C     C_3   0.801043 0.757010 0.589126 -0.415334
C54   C     C_3   0.753455 0.235078 0.564616 -0.401446
C55   C     C_3   0.301314 0.257233 0.588983 -0.415139
C56   C     C_3   0.253484 0.735018 0.564631 -0.401390
C57   C     C_R   0.352091 0.826968 0.216286 -0.129742
C58   C     C_R   0.393739 0.197930 0.211252 -0.136581
C59   C     C_R   0.852051 0.327011 0.216279 -0.129636
C60   C     C_R   0.893686 0.697915 0.211279 -0.136712
C61   C     C_3   0.811137 0.871918 0.481367 -0.463137
C62   C     C_R   0.655540 0.906797 0.075140 -0.161988
C63   C     C_3   0.668693 0.183957 0.501922 -0.457869
C64   C     C_3   0.311020 0.371994 0.481277 -0.463172
C65   C     C_3   0.168697 0.683949 0.501936 -0.457878
C66   C     C_2   0.277872 0.690925 0.970284 -0.259862
C67   C     C_2   0.255787 0.295377 0.006645 -0.273660
C68   C     C_2   0.777864 0.190931 0.970295 -0.259810
C69   C     C_2   0.755742 0.795347 0.006710 -0.273679
C70   C     C_2   0.819098 0.248779 0.897937 0.292344
C71   C     C_2   0.804432 0.746384 0.922927 0.299159
C72   C     C_2   0.319101 0.748778 0.897933 0.292280
C73   C     C_R   0.666365 0.087140 0.055947 -0.149895
C74   C     C_2   0.304464 0.246394 0.922881 0.299142
C75   C     C_R   0.367870 0.887887 0.893912 -0.150470
C76   C     C_R   0.363658 0.110553 0.899710 -0.139051
C77   C     C_R   0.867871 0.387887 0.893910 -0.150711
C78   C     C_R   0.863648 0.610549 0.899723 -0.139107
C79   C     C_R   0.405565 0.107115 0.304491 -0.143789
C80   C     C_R   0.361517 0.916221 0.315706 -0.131744
C81   C     C_R   0.905532 0.607096 0.304507 -0.143766
C82   C     C_R   0.861473 0.416263 0.315695 -0.131718
C83   C     C_R   0.343099 0.185354 0.941722 0.102250
C84   C     C_R   0.155560 0.406808 0.075109 -0.162007
C85   C     C_R   0.351423 0.811349 0.927992 0.095466
C86   C     C_R   0.843082 0.685347 0.941745 0.102261
C87   C     C_R   0.851423 0.311350 0.927992 0.095590
C88   C     C_R   0.315481 0.852489 0.319993 -0.019212
C89   C     C_R   0.385014 0.183931 0.305584 0.011384
C90   C     C_R   0.815412 0.352550 0.319987 -0.019338
C91   C     C_R   0.884916 0.683893 0.305634 0.011437
C92   C     C_R   0.657049 0.181144 0.960318 -0.118094
C93   C     C_R   0.644191 0.809706 0.983746 -0.128545
C94   C     C_R   0.157055 0.681139 0.960308 -0.118243
C95   C     C_R   0.166366 0.587141 0.055947 -0.149802
C96   C     C_R   0.144218 0.309720 0.983704 -0.128532
C97   C     C_R   0.648043 0.827243 0.780249 -0.139950
C98   C     C_R   0.604518 0.197609 0.788805 -0.145678
C99   C     C_R   0.148048 0.327241 0.780232 -0.139940
C100  C     C_R   0.104518 0.697608 0.788809 -0.145685
C101  C     C_R   0.592193 0.104153 0.697123 -0.151871
C102  C     C_R   0.641336 0.921817 0.685376 -0.140299
C103  C     C_R   0.092185 0.604154 0.697131 -0.151895
C104  C     C_R   0.141338 0.421823 0.685375 -0.140278
C105  C     C_R   0.959435 0.839347 0.309549 0.168963
C106  C     C_R   0.706751 0.150981 0.987391 0.166695
C107  C     C_R   0.002848 0.838038 0.356141 -0.152038
C108  C     C_R   0.089709 0.850549 0.292837 -0.138064
C109  C     C_R   0.134542 0.864986 0.182553 -0.081020
C110  C     C_R   0.092483 0.867865 0.135401 -0.099822
C111  C     C_R   0.005558 0.855833 0.198394 -0.178882
C112  C     C_R   0.789971 0.167738 0.308152 0.162536
C113  C     C_R   0.851516 0.129506 0.311193 -0.137430
C114  C     C_R   0.903281 0.072186 0.234695 -0.132486
C115  C     C_R   0.893524 0.050567 0.155301 -0.090348
C116  C     C_R   0.831073 0.085366 0.153199 -0.116945
H1    H     H_    0.378670 0.250192 0.032597 0.091129
H2    H     H_    0.560234 0.303377 0.634609 0.157182
H3    H     H_    0.230161 0.667629 0.227187 0.106269
H4    H     H_    0.896434 0.264944 0.726020 0.249962
H5    H     H_    0.811003 0.198820 0.773284 0.261582
H6    H     H_    0.791586 0.303391 0.796242 0.232749
H7    H     H_    0.887211 0.744136 0.749101 0.245665
H8    H     H_    0.784963 0.701850 0.807665 0.237137
H9    H     H_    0.799334 0.807315 0.802660 0.264004
H10   H     H_    0.396432 0.764964 0.726016 0.249951
H11   H     H_    0.311009 0.698821 0.773276 0.261578
H12   H     H_    0.291568 0.803391 0.796259 0.232716
H13   H     H_    0.154355 0.314700 0.544253 0.154234
H14   H     H_    0.387230 0.244115 0.749054 0.245678
H15   H     H_    0.284979 0.201833 0.807648 0.237110
H16   H     H_    0.299359 0.307295 0.802602 0.264013
H17   H     H_    0.060299 0.803404 0.634587 0.157196
H18   H     H_    0.147830 0.233216 0.621575 0.162020
H19   H     H_    0.122819 0.841827 0.674524 0.152898
H20   H     H_    0.647629 0.733443 0.621393 0.162081
H21   H     H_    0.622754 0.341845 0.674520 0.152892
H22   H     H_    0.328900 0.145160 0.511992 0.151033
H23   H     H_    0.320376 0.841612 0.492138 0.153386
H24   H     H_    0.828551 0.644987 0.512047 0.151043
H25   H     H_    0.389288 0.747086 0.014774 0.112814
H26   H     H_    0.820247 0.341718 0.492196 0.153385
H27   H     H_    0.760597 0.716802 0.657782 0.154568
H28   H     H_    0.751586 0.261985 0.632123 0.157301
H29   H     H_    0.261031 0.217038 0.657722 0.154576
H30   H     H_    0.251620 0.761934 0.632129 0.157312
H31   H     H_    0.844559 0.842157 0.325130 0.096552
H32   H     H_    0.686821 0.247302 0.371364 0.095212
H33   H     H_    0.344327 0.342106 0.325135 0.096534
H34   H     H_    0.186882 0.747287 0.371349 0.095195
H35   H     H_    0.776909 0.917342 0.470563 0.145992
H36   H     H_    0.878658 0.750189 0.032612 0.091143
H37   H     H_    0.604728 0.179167 0.521735 0.143463
H38   H     H_    0.276659 0.417297 0.470521 0.145993
H39   H     H_    0.104730 0.679201 0.521744 0.143477
H40   H     H_    0.850582 0.903954 0.499347 0.158586
H41   H     H_    0.691947 0.123227 0.493380 0.157456
H42   H     H_    0.350472 0.404172 0.499136 0.158594
H43   H     H_    0.191909 0.623203 0.493410 0.157460
H44   H     H_    0.419726 0.205283 0.454701 0.154766
H45   H     H_    0.369715 0.760278 0.405266 0.154413
H46   H     H_    0.919438 0.705002 0.454958 0.154817
H47   H     H_    0.889290 0.247086 0.014770 0.112779
H48   H     H_    0.869674 0.260420 0.405282 0.154398
H49   H     H_    0.330950 0.782787 0.188321 0.112308
H50   H     H_    0.386147 0.252814 0.183863 0.076934
H51   H     H_    0.830892 0.282847 0.188316 0.112345
H52   H     H_    0.886091 0.752806 0.183905 0.076915
H53   H     H_    0.843157 0.787771 0.603654 0.163502
H54   H     H_    0.782750 0.176523 0.549426 0.156758
H55   H     H_    0.343463 0.288164 0.603325 0.163398
H56   H     H_    0.282742 0.676448 0.549485 0.156737
H57   H     H_    0.281521 0.684736 0.037250 0.102831
H58   H     H_    0.234140 0.244136 0.391839 0.156202
H59   H     H_    0.253712 0.294752 0.078702 0.104996
H60   H     H_    0.781506 0.184748 0.037267 0.102834
H61   H     H_    0.753657 0.794704 0.078774 0.105006
H62   H     H_    0.364889 0.913508 0.832340 0.104937
H63   H     H_    0.358835 0.085382 0.838918 0.101573
H64   H     H_    0.864889 0.413509 0.832339 0.104988
H65   H     H_    0.858818 0.585378 0.838936 0.101584
H66   H     H_    0.412836 0.077675 0.360178 0.085665
H67   H     H_    0.351680 0.949823 0.382076 0.086445
H68   H     H_    0.912830 0.577664 0.360175 0.085670
H69   H     H_    0.143066 0.867847 0.472419 0.151988
H70   H     H_    0.851617 0.449876 0.382068 0.086462
H71   H     H_    0.664794 0.234455 0.918306 0.111485
H72   H     H_    0.645647 0.751844 0.953887 0.110252
H73   H     H_    0.164803 0.734448 0.918291 0.111432
H74   H     H_    0.145684 0.251861 0.953833 0.110258
H75   H     H_    0.663079 0.774331 0.802210 0.093867
H76   H     H_    0.610355 0.254146 0.815886 0.082713
H77   H     H_    0.163070 0.274304 0.802166 0.093819
H78   H     H_    0.110362 0.754143 0.815887 0.082706
H79   H     H_    0.581535 0.073880 0.644374 0.087742
H80   H     H_    0.734208 0.744390 0.391630 0.156175
H81   H     H_    0.651442 0.956244 0.620234 0.091197
H82   H     H_    0.081516 0.573883 0.644390 0.087748
H83   H     H_    0.151429 0.456255 0.620248 0.091213
H84   H     H_    0.668923 0.934535 0.126535 0.093092
H85   H     H_    0.685229 0.058714 0.100432 0.091675
H86   H     H_    0.168947 0.434543 0.126501 0.093097
H87   H     H_    0.185225 0.558722 0.100440 0.091660
H88   H     H_    0.226968 0.162139 0.468630 0.168284
H89   H     H_    0.199562 0.911180 0.517773 0.158985
H90   H     H_    0.726772 0.662319 0.468483 0.168315
H91   H     H_    0.642958 0.367809 0.472411 0.151965
H92   H     H_    0.699426 0.411219 0.517766 0.158989
H93   H     H_    0.970116 0.828257 0.441459 0.108117
H94   H     H_    0.122309 0.849394 0.329432 0.100335
H95   H     H_    0.201715 0.874677 0.133955 0.119725
H96   H     H_    0.127250 0.879538 0.049914 0.101145
H97   H     H_    0.974545 0.858985 0.159775 0.089097
H98   H     H_    0.858068 0.140301 0.374501 0.107089
H99   H     H_    0.950057 0.043374 0.238312 0.120559
H100  H     H_    0.933353 0.005817 0.096640 0.093806
H101  H     H_    0.822399 0.067343 0.092929 0.104801
H102  H     H_    0.654478 0.815007 0.543987 0.154205
H103  H     H_    0.730071 0.167604 0.227245 0.106255
H104  H     H_    0.470246 0.328548 0.441042 0.108104
H105  H     H_    0.622404 0.349978 0.328796 0.100416
H106  H     H_    0.701520 0.375566 0.133397 0.119685
H107  H     H_    0.626806 0.380355 0.049677 0.101078
H108  H     H_    0.474153 0.359412 0.159746 0.089078
H109  H     H_    0.357994 0.640146 0.374629 0.107105
H110  H     H_    0.449874 0.543122 0.238558 0.120729
H111  H     H_    0.433199 0.505603 0.096853 0.093794
H112  H     H_    0.322395 0.567283 0.092971 0.104791
N1    N     N_R   0.408680 0.130160 0.995800 -0.035525
N2    N     N_R   0.403730 0.078230 0.935950 -0.040896
N3    N     N_R   0.903730 0.421770 0.935950 -0.040946
N4    N     N_R   0.903730 0.578230 0.935950 -0.040896
N5    N     N_R   0.426630 0.075970 0.212960 -0.034502
N6    N     N_R   0.426630 0.924030 0.212960 -0.037261
N7    N     N_R   0.926630 0.575970 0.212960 -0.034498
N8    N     N_R   0.926630 0.424030 0.212960 -0.037275
N9    N     N_R   0.591320 0.134600 0.004200 -0.047810
N10   N     N_R   0.591320 0.865400 0.004200 -0.046665
N11   N     N_R   0.091320 0.634600 0.004200 -0.047795
N12   N     N_R   0.408680 0.869840 0.995800 -0.036180
N13   N     N_R   0.091320 0.365400 0.004200 -0.046666
N14   N     N_R   0.578320 0.867660 0.846880 -0.033727
N15   N     N_R   0.578320 0.132340 0.846880 -0.032485
N16   N     N_R   0.078320 0.367660 0.846880 -0.033728
N17   N     N_R   0.078320 0.632340 0.846880 -0.032476
N18   N     N_R   0.573370 0.074390 0.787040 -0.031409
N19   N     N_R   0.573370 0.925610 0.787040 -0.035477
N20   N     N_R   0.073370 0.574390 0.787040 -0.031406
N21   N     N_R   0.073370 0.425610 0.787040 -0.035477
N22   N     N_R   0.596270 0.927870 0.064040 -0.040441
N23   N     N_R   0.908680 0.630160 0.995800 -0.035522
N24   N     N_R   0.596270 0.072130 0.064040 -0.039346
N25   N     N_R   0.096270 0.427870 0.064040 -0.040445
N26   N     N_R   0.096270 0.572130 0.064040 -0.039345
N27   N     N_R   0.908680 0.369840 0.995800 -0.036201
N28   N     N_R   0.421680 0.867580 0.153120 -0.036760
N29   N     N_R   0.421680 0.132420 0.153120 -0.033693
N30   N     N_R   0.921680 0.367580 0.153120 -0.036776
N31   N     N_R   0.921680 0.632420 0.153120 -0.033670
N32   N     N_R   0.403730 0.921770 0.935950 -0.040930
Ni1   Ni    Ni4+2 0.500000 0.131190 0.000000 0.208151
Ni2   Ni    Ni4+2 0.500000 0.868810 0.000000 0.212993
Ni3   Ni    Ni4+2 0.000000 0.631190 0.000000 0.208123
Ni4   Ni    Ni4+2 1.000000 0.368810 0.000000 0.212996
Ni5   Ni    Ni4+2 0.488650 1.000000 0.862740 0.203892
Ni6   Ni    Ni4+2 0.988650 0.500000 0.862740 0.203878
Ni7   Ni    Ni4+2 0.511350 0.000000 0.137260 0.209733
Ni8   Ni    Ni4+2 0.011350 0.500000 0.137260 0.209741

loop_
_geom_bond_atom_site_label_1
_geom_bond_atom_site_label_2
_ccdc_geom_bond_type
C34   H2    S    
C54   H28   S    
C49   C63   S    
C82   N8    A    
C116  H101  S    
C24   C99   A    
C28   H90   S    
N28   Ni2   S    
C54   H54   S    
C22   C48   S    
C9    H108  S    
C74   C83   S    
C65   H43   S    
C76   H63   S    
C51   N27   A    
C4    C42   S    
C25   C52   S    
C114  C115  A    
C68   H60   S    
C92   H71   S    
C26   C44   S    
C7    C8    A    
C23   C101  A    
C33   H102  S    
C105  C107  A    
N26   Ni8   S    
C60   H52   S    
C68   C106  S    
C13   C95   A    
N29   Ni1   S    
C60   N31   A    
N27   Ni4   S    
N22   Ni7   S    
C92   C106  A    
N31   Ni3   S    
C3    C116  A    
C18   H9    S    
C32   H17   S    
C16   H3    S    
C28   H80   S    
C55   H29   S    
C5    H104  S    
C57   H49   S    
C36   H23   S    
C26   H58   S    
C95   H87   S    
C115  C116  A    
N2    Ni5   S    
C64   H38   S    
C19   H12   S    
C18   C71   S    
N32   Ni5   S    
C50   C64   S    
C108  C109  A    
C40   H36   S    
C27   H69   S    
C80   H67   S    
C40   C86   A    
C99   N16   A    
C69   C71   D    
C42   H33   S    
C35   H44   S    
C32   C52   S    
C100  N17   A    
C25   C100  A    
C17   H4    S    
C69   H61   S    
C97   N14   A    
C110  C111  A    
C75   C85   A    
N10   N22   A    
C66   C72   D    
C65   H39   S    
C67   H59   S    
C8    C9    A    
C37   H24   S    
C64   H42   S    
C107  C108  A    
C81   N7    A    
N9    N24   A    
C51   H47   S    
N16   Ni4   S    
C41   C112  S    
C2    C69   S    
N3    N27   A    
C49   C54   S    
C3    C112  A    
C29   N12   A    
C29   C85   A    
N17   N20   A    
C53   H53   S    
C18   H7    S    
C6    H105  S    
C37   C53   S    
C27   C45   S    
C38   H48   S    
C105  C111  A    
C29   H25   S    
C17   C70   S    
C22   C97   A    
C21   C67   S    
C2    C62   A    
C38   H26   S    
N11   Ni3   S    
C19   C72   S    
C103  H82   S    
C42   C44   S    
C113  H98   S    
C20   H16   S    
C31   H18   S    
C70   C87   S    
C31   H13   S    
C76   C83   A    
C55   H55   S    
C112  C113  A    
C41   C47   S    
C43   H34   S    
C72   C85   S    
C15   H112  S    
C75   H62   S    
C13   C66   S    
N25   Ni8   S    
C24   C50   S    
C48   C53   S    
C39   C61   S    
C110  H96   S    
C92   N9    A    
C77   N3    A    
C77   H64   S    
N16   N21   A    
C30   C34   S    
C58   N29   A    
N9    Ni1   S    
C44   C89   S    
C80   N6    A    
C30   C47   S    
C17   H5    S    
C45   C88   S    
C63   H37   S    
C98   H76   S    
C102  H81   S    
N12   Ni2   S    
N4    N23   A    
C40   N23   A    
C25   C103  A    
N5    N29   A    
C46   C91   S    
C96   H74   S    
C73   H85   S    
N13   Ni4   S    
C35   C55   S    
C32   H19   S    
C27   H89   S    
C59   C90   A    
N19   Ni5   S    
N21   Ni6   S    
C26   H88   S    
N1    N2    A    
C36   C56   S    
C1    N1    A    
N7    N31   A    
N5    Ni7   S    
C71   C86   S    
C61   H35   S    
C94   N11   A    
N24   Ni7   S    
C12   H110  S    
C38   C54   S    
C21   C84   A    
C97   H75   S    
C93   N10   A    
C43   C65   S    
N15   N18   A    
C30   H92   S    
N11   N26   A    
C38   C47   S    
C26   C31   S    
N14   Ni2   S    
C20   C74   S    
C36   C45   S    
C66   H57   S    
C67   C74   D    
C1    H1    S    
C82   C90   A    
N12   N32   A    
C35   C44   S    
C43   C45   S    
C95   N26   A    
C79   N5    A    
C98   N15   A    
C6    C7    A    
C8    H107  S    
C39   C46   S    
C68   C70   D    
C12   C14   A    
C28   C33   S    
N1    Ni1   S    
C51   C87   A    
C76   N2    A    
C36   H45   S    
C47   C90   S    
N10   Ni2   S    
N13   N25   A    
C63   H41   S    
C31   C50   S    
C39   H31   S    
N18   Ni5   S    
C61   H40   S    
N6    N28   A    
C59   H51   S    
C11   H109  S    
C113  C114  A    
C60   C91   A    
C84   H86   S    
N7    Ni8   S    
C39   C105  S    
C34   C49   S    
C104  N21   A    
C34   H21   S    
C10   C43   S    
C82   H70   S    
C114  H99   S    
C2    C93   A    
N30   Ni4   S    
C102  N19   A    
C103  N20   A    
C20   H14   S    
C4    C5    A    
C111  H97   S    
C15   C16   A    
C42   C64   S    
C108  H94   S    
C11   C12   A    
C57   C88   A    
C80   C88   A    
C107  H93   S    
C21   C96   A    
C100  H78   S    
C1    C83   A    
N15   Ni1   S    
C99   H77   S    
C19   H10   S    
N8    N30   A    
C50   C55   S    
C22   C102  A    
C79   H66   S    
C13   C94   A    
C28   C46   S    
N14   N19   A    
C101  N18   A    
C73   N24   A    
C57   N28   A    
C37   C46   S    
C94   H73   S    
C62   H84   S    
C14   H111  S    
C35   H22   S    
C10   C16   A    
C109  C110  A    
C24   C104  A    
C33   H20   S    
C78   C86   A    
C48   C61   S    
C5    C6    A    
C41   H32   S    
N6    Ni7   S    
C30   H91   S    
C7    H106  S    
C73   C106  A    
C104  H83   S    
N4    Ni6   S    
C115  H100  S    
C56   H30   S    
C58   H50   S    
C58   C89   A    
C96   N13   A    
C79   C89   A    
C59   N30   A    
C23   C49   S    
C10   C11   A    
C27   C32   S    
C81   C91   A    
C93   H72   S    
C101  H79   S    
C17   H6    S    
C62   N22   A    
C23   C98   A    
N20   Ni6   S    
C75   N32   A    
C77   C87   A    
C3    H103  S    
N3    Ni6   S    
N23   Ni3   S    
C84   N25   A    
N8    Ni8   S    
C33   C48   S    
C41   C63   S    
C14   C15   A    
C20   H15   S    
C81   H68   S    
C53   H27   S    
C4    C9    A    
C109  H95   S    
C78   N4    A    
C19   H11   S    
C56   H56   S    
C52   C65   S    
C52   C56   S    
C18   H8    S    
C37   H46   S    
C78   H65   S    
N17   Ni3   S    
