data_mof_unit_6118.cif
_audit_creation_date              2012-12-11T17:00:17-0500
_audit_creation_method            fapswitch 2.2
_symmetry_space_group_name_H-M    P1
_symmetry_Int_Tables_number       1
_space_group_crystal_system       triclinic
_cell_length_a                    6.947876
_cell_length_b                    13.679062
_cell_length_c                    20.25759
_cell_angle_alpha                 103.234207
_cell_angle_beta                  89.78599
_cell_angle_gamma                 91.032285
_cell_volume                      1873.85458855

loop_
_atom_site_label
_atom_site_type_symbol
_atom_type_description
_atom_site_fract_x
_atom_site_fract_y
_atom_site_fract_z
_atom_type_partial_charge
O1    O     O_R   0.506770 0.599700 0.449550 -0.531838
O2    O     O_R   0.179980 0.595740 0.587960 -0.525360
O3    O     O_R   0.004580 0.400300 0.550450 -0.536627
C1    C     C_R   0.349619 0.620178 0.614057 0.735740
O4    O     O_R   0.177380 0.611700 0.452380 -0.562602
O5    O     O_R   0.001970 0.416370 0.413900 -0.547212
C2    C     C_R   0.347125 0.636132 0.433920 0.719911
O6    O     O_R   0.509390 0.583630 0.586100 -0.523291
O7    O     O_3   0.337530 0.435890 0.487530 -0.379939
V1    V     V_3+5 0.064660 0.511890 0.502310 1.577732
O8    O     O_R   0.671950 0.404260 0.412040 -0.535869
C3    C     C_R   0.840894 0.379607 0.386061 0.752592
O9    O     O_R   0.674540 0.388300 0.547620 -0.556812
C4    C     C_R   0.841873 0.362880 0.565397 0.836178
V2    V     V_3+5 0.564030 0.488110 0.497690 1.578496
O10   O     O_3   0.841030 0.564110 0.512470 -0.360246
C5    C     C_R   0.913023 0.114397 0.610798 0.576108
H1    H     H_    0.896410 0.986976 0.693099 0.250522
C6    C     C_R   0.848104 0.285608 0.605253 -0.383163
C7    C     C_R   0.870706 0.316876 0.931655 0.567430
C8    C     C_R   0.893133 0.392609 0.896621 -0.213011
C9    C     C_R   0.908042 0.370003 0.826014 0.370011
C10   C     C_R   0.875344 0.269166 0.788152 0.043630
C11   C     C_R   0.866195 0.191583 0.824574 -0.112210
C12   C     C_R   0.862722 0.241720 0.715629 -0.025783
C13   C     C_R   0.890131 0.140161 0.681594 -0.204012
C14   C     C_R   0.887411 0.065562 0.718532 0.038884
C15   C     C_R   0.864787 0.090735 0.788536 -0.068943
C16   C     C_R   0.810333 0.309762 0.675894 0.257733
C17   C     C_R   0.902917 0.188144 0.573534 0.513933
C18   C     C_R   0.864795 0.216244 0.896447 -0.216590
H2    H     H_    0.912269 0.469521 0.924959 0.170233
H3    H     H_    0.852739 0.030467 0.814693 0.184174
C19   C     C_R   0.753889 0.266913 0.200154 -0.038005
C20   C     C_R   0.868902 0.181949 0.184787 -0.182138
C21   C     C_R   0.991394 0.164192 0.236530 0.401218
C22   C     C_R   0.984779 0.227523 0.303616 0.293400
C23   C     C_R   0.852572 0.308631 0.318789 -0.239408
C24   C     C_R   0.744836 0.326870 0.265225 -0.067040
C25   C     C_3   0.537095 0.348804 0.260534 0.467117
C26   C     C_3   0.544946 0.283183 0.188282 0.576938
H4    H     H_    0.444579 0.318861 0.296548 0.044173
C27   C     C_R   0.486641 0.675540 0.730590 -0.119609
C28   C     C_R   0.358591 0.691991 0.681132 -0.263899
C29   C     C_R   0.231880 0.774591 0.699314 0.390448
C30   C     C_R   0.231000 0.833615 0.766276 0.601352
C31   C     C_R   0.357040 0.815179 0.816015 -0.209645
C32   C     C_R   0.486570 0.736190 0.796518 -0.152611
C33   C     C_3   0.701719 0.740935 0.800068 0.125531
C34   C     C_3   0.701888 0.679110 0.727962 1.158174
H5    H     H_    0.761279 0.701686 0.837903 0.090776
C35   C     C_R   0.531170 0.865577 0.382905 -0.016948
H6    H     H_    0.537358 0.809815 0.473029 0.163405
H7    H     H_    0.615453 0.931822 0.406234 0.219481
C36   C     C_R   0.365441 0.713906 0.394848 -0.173230
C37   C     C_R   0.275534 0.691087 0.070239 0.119083
C38   C     C_R   0.263578 0.612978 0.105038 0.262165
C39   C     C_R   0.300481 0.633732 0.174517 0.756569
C40   C     C_R   0.350903 0.732017 0.211638 -0.191612
C41   C     C_R   0.393149 0.806314 0.174325 -0.284262
C42   C     C_R   0.375416 0.756892 0.283867 0.024539
C43   C     C_R   0.478848 0.846339 0.314362 -0.160431
C44   C     C_R   0.527529 0.916328 0.276415 0.569761
C45   C     C_R   0.478005 0.899027 0.208453 0.549570
C46   C     C_R   0.295711 0.698459 0.327381 0.481065
C47   C     C_R   0.483418 0.797224 0.421568 -0.196821
C48   C     C_R   0.349869 0.785400 0.103910 -0.122595
O11   O     O_R   0.203450 0.916320 0.913910 -0.543371
O12   O     O_R   0.535520 0.888300 0.047620 -0.533133
O13   O     O_R   0.710860 0.083650 0.086100 -0.501336
C49   C     C_R   0.365401 0.863141 0.065084 0.938348
O14   O     O_R   0.532860 0.904250 0.912040 -0.557007
O15   O     O_R   0.708190 0.099710 0.949550 -0.547746
C50   C     C_R   0.364535 0.883093 0.884610 0.781490
O16   O     O_R   0.206120 0.900260 0.050460 -0.541117
O17   O     O_3   0.375280 0.064080 0.012470 -0.355053
V3    V     V_3+5 0.648180 0.988110 0.997690 1.580992
O18   O     O_R   0.038220 0.111740 0.952370 -0.541243
C51   C     C_R   0.870346 0.138205 0.935650 0.783017
O19   O     O_R   0.040880 0.095790 0.087940 -0.517978
C52   C     C_R   0.872888 0.116253 0.115526 0.884105
V4    V     V_3+5 0.148800 0.011950 0.002300 1.620832
O20   O     O_3   0.871820 0.935920 0.987530 -0.408010
F1    F     F_    0.936337 0.163203 0.505723 -0.640832
O21   O     O_3   0.101497 0.204388 0.352853 -0.621339
H8    H     H_    0.051863 0.236067 0.398355 0.342025
F2    F     F_    0.513066 0.449659 0.263566 -0.584020
O22   O     O_3   0.519434 0.336285 0.137515 -0.542724
H9    H     H_    0.379939 0.350490 0.137100 0.376107
O23   O     O_3   0.429995 0.195223 0.177752 -0.622756
H10   H     H_    0.456934 0.161345 0.215053 0.318396
O24   O     O_3   0.117941 0.805519 0.652495 -0.555671
H11   H     H_    0.169444 0.778880 0.606404 0.301590
F3    F     F_    0.124147 0.917428 0.780265 -0.693353
O25   O     O_3   0.774735 0.838305 0.804367 -0.602461
H12   H     H_    0.851800 0.856002 0.846655 0.321603
F4    F     F_    0.785647 0.586999 0.721990 -0.684455
F5    F     F_    0.770333 0.729894 0.680648 -0.629083
F6    F     F_    0.619319 0.004064 0.305773 -0.648771
O26   O     O_3   0.142576 0.633758 0.304449 -0.590355
H13   H     H_    0.078110 0.613053 0.342614 0.306474
O27   O     O_3   0.220576 0.677267 0.003151 -0.648864
H14   H     H_    0.118601 0.624423 0.993321 0.307407
F7    F     F_    0.309954 0.553315 0.202598 -0.556731
O28   O     O_3   0.222504 0.514489 0.072753 -0.575573
H15   H     H_    0.258609 0.503800 0.024328 0.320387
F8    F     F_    0.522239 0.973233 0.176453 -0.673812
F9    F     F_    0.949357 0.018286 0.577889 -0.625792
O29   O     O_3   0.708649 0.393867 0.706405 -0.574984
H16   H     H_    0.637745 0.418820 0.671539 0.328292
F10   F     F_    0.867479 0.341488 0.000521 -0.634379
O30   O     O_3   0.975556 0.446313 0.797470 -0.578503
H17   H     H_    0.056273 0.416177 0.757864 0.318662
O31   O     O_3   0.105367 0.080073 0.221236 -0.615329
H18   H     H_    0.178906 0.073856 0.261746 0.349745

loop_
_geom_bond_atom_site_label_1
_geom_bond_atom_site_label_2
_ccdc_geom_bond_type
C38   O28   S    
O12   V3    S    
O25   H12   S    
C2    C36   S    
C1    O6    A    
C21   O31   S    
O31   H18   S    
C20   C52   S    
O21   H8    S    
C13   C14   A    
C22   C23   A    
C5    C13   A    
C25   F2    S    
C16   O29   S    
C21   C22   A    
O5    C3    A    
C23   C24   A    
V3    O20   S    
O11   C50   A    
V2    O10   S    
C37   C38   A    
C19   C20   A    
O12   C49   A    
C29   O24   S    
O24   H11   S    
C44   F6    S    
O14   V3    S    
O8    V2    S    
C20   C21   A    
C41   C48   A    
C33   H5    S    
C10   C11   A    
O1    V2    S    
C27   C32   A    
C25   H4    S    
C26   O23   S    
C40   C41   A    
C8    C9    A    
O13   V3    S    
C3    C23   S    
C5    C17   A    
C42   C43   A    
C19   C26   S    
O30   H17   S    
C36   C46   A    
C35   H7    S    
C38   C39   A    
C12   C16   A    
C8    H2    S    
C40   C42   A    
C34   F5    S    
C19   C24   A    
O17   V3    S    
C46   O26   S    
O19   V4    S    
C5    F9    S    
O17   V4    S    
C24   C25   S    
O4    C2    A    
O18   C51   A    
C1    C28   S    
C39   C40   A    
C29   C30   A    
O2    C1    A    
C27   C28   A    
C43   C44   A    
C7    F10   S    
O18   V4    S    
C31   C32   A    
C30   F3    S    
C7    C8    A    
O15   C51   A    
O16   V4    S    
C33   O25   S    
H6    C47   S    
O3    C4    A    
O14   C50   A    
C32   C33   S    
C15   H3    S    
V4    O20   S    
O6    V2    S    
C9    O30   S    
O9    V2    S    
C39   F7    S    
C6    C16   A    
C36   C47   A    
C35   C47   A    
C28   C29   A    
C45   F8    S    
O7    V1    S    
C22   O21   S    
C26   O22   S    
C30   C31   A    
C25   C26   S    
C34   F4    S    
O1    C2    A    
C4    C6    S    
H1    C14   S    
C11   C15   A    
C31   C50   S    
O19   C52   A    
O5    V1    S    
O8    C3    A    
C27   C34   S    
C18   C51   S    
C37   C48   A    
O28   H15   S    
C41   C45   A    
O11   V4    S    
C12   C13   A    
C11   C18   A    
C37   O27   S    
O4    V1    S    
O3    V1    S    
V1    O10   S    
O29   H16   S    
C49   O16   A    
O23   H10   S    
O26   H13   S    
C48   C49   S    
C10   C12   A    
C17   F1    S    
O27   H14   S    
C44   C45   A    
C42   C46   A    
O22   H9    S    
C33   C34   S    
C14   C15   A    
O15   V3    S    
C9    C10   A    
C35   C43   A    
O13   C52   A    
O9    C4    A    
C6    C17   A    
O7    V2    S    
C7    C18   A    
O2    V1    S    
