data_mof_unit_17023.cif
_audit_creation_date              2012-12-10T19:46:22-0500
_audit_creation_method            fapswitch 2.2
_symmetry_space_group_name_H-M    P1
_symmetry_Int_Tables_number       1
_space_group_crystal_system       triclinic
_cell_length_a                    10.856588
_cell_length_b                    10.864122
_cell_length_c                    10.427302
_cell_angle_alpha                 90.442149
_cell_angle_beta                  90.281647
_cell_angle_gamma                 90.142963
_cell_volume                      1229.81665624

loop_
_atom_site_label
_atom_site_type_symbol
_atom_type_description
_atom_site_fract_x
_atom_site_fract_y
_atom_site_fract_z
_atom_type_partial_charge
C1    C     C_R   0.495721 0.261511 0.499175 0.793693
C2    C     C_R   0.504278 0.738490 0.500825 0.793719
C3    C     C_R   0.872006 0.493942 0.501617 -0.084466
C4    C     C_R   0.127992 0.506036 0.498377 -0.084503
C5    C     C_R   0.939778 0.455138 0.610055 -0.004095
C6    C     C_R   0.060218 0.544833 0.389932 -0.004070
C7    C     C_R   0.269122 0.220152 0.138544 -0.118147
C8    C     C_R   0.731012 0.780270 0.861597 -0.118318
C9    C     C_R   0.309736 0.170578 0.254605 -0.112378
C10   C     C_R   0.690384 0.829772 0.745508 -0.112839
C11   C     C_R   0.426394 0.115511 0.262901 0.127462
C12   C     C_R   0.573567 0.884492 0.737093 0.127604
C13   C     C_R   0.501396 0.110142 0.153612 -0.157589
C14   C     C_R   0.498396 0.889557 0.846272 -0.157271
C15   C     C_R   0.460609 0.160530 0.037959 -0.149181
C16   C     C_R   0.539189 0.839224 0.961947 -0.149200
C17   C     C_R   0.344529 0.215361 0.030377 -0.120371
C18   C     C_R   0.655442 0.784758 0.969659 -0.120305
C19   C     C_R   0.476874 0.932419 0.388268 -0.253869
C20   C     C_R   0.523130 0.067582 0.611726 -0.253827
C21   C     C_R   0.506635 0.872109 0.502309 -0.083387
C22   C     C_R   0.493353 0.127892 0.497689 -0.083396
C23   C     C_R   0.261555 0.503919 0.499437 0.793844
C24   C     C_R   0.738443 0.496073 0.500562 0.793982
C25   C     C_R   0.531967 0.940509 0.615342 -0.000548
C26   C     C_R   0.468011 0.059492 0.384654 -0.000467
C27   C     C_1   0.500018 0.500011 0.071944 0.091533
C28   C     C_1   0.499980 0.499991 0.928056 0.091696
C29   C     C_R   0.230828 0.761085 0.168892 -0.135761
C30   C     C_R   0.769199 0.238956 0.831185 -0.135719
C31   C     C_R   0.179068 0.711218 0.279659 -0.106336
C32   C     C_R   0.821094 0.288700 0.720426 -0.106744
C33   C     C_R   0.117834 0.597194 0.273817 0.133854
C34   C     C_R   0.882136 0.402834 0.726177 0.133816
C35   C     C_R   0.108604 0.534405 0.155904 -0.150104
C36   C     C_R   0.891031 0.465865 0.843981 -0.149605
C37   C     C_R   0.162373 0.583536 0.045940 -0.144948
C38   C     C_R   0.837131 0.416853 0.953934 -0.144944
C39   C     C_R   0.223228 0.696925 0.052369 -0.118938
C40   C     C_R   0.776471 0.303351 0.947603 -0.118874
C41   C     C_R   0.932785 0.537061 0.392713 -0.248373
C42   C     C_R   0.067211 0.462907 0.607280 -0.248409
Cu1   Cu    Cu3+1 0.500000 0.500000 0.625300 0.978306
Cu2   Cu    Cu3+1 0.500000 0.500000 0.374700 0.978222
H1    H     H_    0.263965 0.735298 0.966942 0.129095
H2    H     H_    0.735619 0.265080 0.033020 0.129199
H3    H     H_    0.591238 0.067203 0.158147 0.126842
H4    H     H_    0.408427 0.932234 0.841638 0.126691
H5    H     H_    0.518668 0.156571 0.954023 0.130252
H6    H     H_    0.481013 0.842963 0.045806 0.130205
H7    H     H_    0.456974 0.880227 0.301649 0.153473
H8    H     H_    0.543060 0.119770 0.698343 0.153493
H9    H     H_    0.276211 0.849775 0.173087 0.120247
H10   H     H_    0.723945 0.150195 0.827062 0.120276
H11   H     H_    0.185870 0.761560 0.369507 0.104283
H12   H     H_    0.814530 0.238191 0.630654 0.104376
H13   H     H_    0.060254 0.447325 0.149544 0.114918
H14   H     H_    0.939204 0.553048 0.850256 0.114783
H15   H     H_    0.880689 0.568616 0.310256 0.154037
H16   H     H_    0.119300 0.431362 0.689746 0.154034
H17   H     H_    0.312969 0.253974 0.940676 0.126496
H18   H     H_    0.687014 0.746204 0.059382 0.126459
H19   H     H_    0.178870 0.261499 0.132234 0.120766
H20   H     H_    0.821406 0.739232 0.868018 0.120683
H21   H     H_    0.250316 0.174431 0.337688 0.106237
H22   H     H_    0.749932 0.826168 0.662509 0.106336
N1    N     N_1   0.500010 0.499990 0.186410 -0.139431
N2    N     N_1   0.499990 0.500010 0.813590 -0.139389
O1    O     O_R   0.499990 0.319650 0.605810 -0.585750
O2    O     O_R   0.500010 0.680350 0.394190 -0.585785
O3    O     O_R   0.499990 0.319640 0.394190 -0.565800
O4    O     O_R   0.500010 0.680360 0.605810 -0.565778
O5    O     O_R   0.319640 0.500010 0.605810 -0.589581
O6    O     O_R   0.680360 0.499990 0.394190 -0.589607
O7    O     O_R   0.319650 0.500010 0.394190 -0.562612
O8    O     O_R   0.680350 0.499990 0.605810 -0.562535
H23   H     H_    0.156426 0.533981 0.955648 0.126191
H24   H     H_    0.842807 0.466602 0.044137 0.126146

loop_
_geom_bond_atom_site_label_1
_geom_bond_atom_site_label_2
_ccdc_geom_bond_type
Cu1   O5    S    
C30   C32   A    
C5    C42   A    
Cu1   O4    S    
C40   H2    S    
C30   H10   S    
C1    O3    A    
C4    C42   A    
C19   C21   A    
C16   H6    S    
C36   H14   S    
C20   C25   A    
Cu2   O3    S    
C15   C17   A    
C19   C26   A    
C17   H17   S    
Cu1   N2    S    
C7    C17   A    
C6    C41   A    
C31   C33   A    
Cu2   O2    S    
C39   H1    S    
C1    C22   S    
Cu1   O1    S    
C3    C24   S    
C23   O5    A    
C2    O4    A    
C10   H22   S    
C41   H15   S    
C4    C6    A    
C42   H16   S    
C13   H3    S    
C4    C23   S    
C18   H18   S    
C14   H4    S    
C38   H24   S    
C11   C26   S    
C37   H23   S    
C1    O1    A    
C32   C34   A    
Cu2   O7    S    
Cu1   Cu2   S    
C29   C31   A    
C5    C34   S    
C29   C39   A    
C2    C21   S    
C8    C18   A    
C30   C40   A    
Cu2   O6    S    
C9    C11   A    
C7    H19   S    
C10   C12   A    
C8    H20   S    
C8    C10   A    
C20   C22   A    
C13   C15   A    
C14   C16   A    
C35   C37   A    
Cu1   O8    S    
C7    C9    A    
C21   C25   A    
C3    C41   A    
C28   N2    T    
C24   O8    A    
C23   O7    A    
C3    C5    A    
C20   H8    S    
C6    C33   S    
C12   C25   S    
C35   H13   S    
C36   C38   A    
C12   C14   A    
C37   C39   A    
C38   C40   A    
C11   C13   A    
C24   O6    A    
C29   H9    S    
C33   C35   A    
C34   C36   A    
C15   H5    S    
C9    H21   S    
C27   N1    T    
C19   H7    S    
C16   C18   A    
C22   C26   A    
C27   C28   S    
Cu2   N1    S    
C31   H11   S    
C2    O2    A    
C32   H12   S    
