data_mof_unit_46027.cif
_audit_creation_date              2012-12-10T16:52:36-0500
_audit_creation_method            fapswitch 2.2
_symmetry_space_group_name_H-M    P1
_symmetry_Int_Tables_number       1
_space_group_crystal_system       triclinic
_cell_length_a                    7.871279
_cell_length_b                    8.55653
_cell_length_c                    13.709202
_cell_angle_alpha                 93.893714
_cell_angle_beta                  92.759498
_cell_angle_gamma                 94.204705
_cell_volume                      917.405196146

loop_
_atom_site_label
_atom_site_type_symbol
_atom_type_description
_atom_site_fract_x
_atom_site_fract_y
_atom_site_fract_z
_atom_type_partial_charge
C1    C     C_R   0.045061 0.794559 0.497672 0.949981
C2    C     C_R   0.937200 0.487325 0.317826 0.845966
C3    C     C_R   0.091897 0.519792 0.787953 -0.060281
C4    C     C_R   0.902978 0.458878 0.213050 -0.068462
C5    C     C_R   0.039742 0.631547 0.948931 -0.182690
C6    C     C_R   0.923026 0.293976 0.064946 -0.185344
C7    C     C_R   0.988555 0.601823 0.850415 -0.203500
C8    C     C_R   0.988871 0.348952 0.158064 -0.200933
C9    C     C_R   0.237136 0.456654 0.825106 -0.277135
C10   C     C_R   0.758482 0.519397 0.173442 -0.276889
C11   C     C_R   0.291588 0.484733 0.923415 0.086646
C12   C     C_R   0.954921 0.205434 0.502259 0.951171
C13   C     C_R   0.679187 0.453120 0.085589 0.086948
C14   C     C_R   0.193895 0.578988 0.984862 0.182220
C15   C     C_R   0.766531 0.342295 0.029325 0.176279
C16   C     C_R   0.447257 0.431781 0.959783 0.063870
C17   C     C_R   0.514257 0.491310 0.053802 0.068184
C18   C     C_3   0.402610 0.301165 0.337247 0.203039
C19   C     C_3   0.488560 0.184505 0.270972 -0.896388
C20   C     C_3   0.596286 0.694408 0.664436 0.204777
C21   C     C_3   0.509336 0.808299 0.732127 -0.906977
C22   C     C_R   0.411803 0.582578 0.114135 -0.246585
C23   C     C_R   0.537817 0.321407 0.905296 -0.239566
C24   C     C_R   0.253417 0.623326 0.080423 -0.224213
C25   C     C_R   0.694492 0.277628 0.939823 -0.226637
C26   C     C_2   0.068393 0.958350 0.496105 -0.389058
C27   C     C_2   0.931566 0.041633 0.503721 -0.386533
C28   C     C_R   0.062524 0.510998 0.682251 0.847217
H1    H     H_    0.179113 0.693461 0.128747 0.148198
H2    H     H_    0.487912 0.261286 0.837178 0.149093
H3    H     H_    0.197266 0.009768 0.488660 0.195097
H4    H     H_    0.802692 0.990212 0.511157 0.195461
H5    H     H_    0.389506 0.409543 0.297889 0.136010
H6    H     H_    0.275488 0.246397 0.351696 0.166817
H7    H     H_    0.496096 0.071797 0.306082 0.254717
H8    H     H_    0.413903 0.162240 0.199919 0.212157
H9    H     H_    0.619473 0.231887 0.257098 0.275746
H10   H     H_    0.723542 0.750212 0.650916 0.167442
H11   H     H_    0.608879 0.584264 0.702293 0.136309
H12   H     H_    0.758793 0.191463 0.896551 0.145846
H13   H     H_    0.380112 0.757769 0.747162 0.272022
H14   H     H_    0.585795 0.831400 0.802535 0.208953
H15   H     H_    0.497709 0.921125 0.697682 0.256984
H16   H     H_    0.705727 0.612774 0.216078 0.150010
H17   H     H_    0.313000 0.395866 0.773768 0.158564
H18   H     H_    0.101714 0.300984 0.188409 0.140811
H19   H     H_    0.874260 0.650157 0.822327 0.139474
H20   H     H_    0.962618 0.700721 0.996064 0.138934
H21   H     H_    0.989943 0.208451 0.022832 0.136762
H22   H     H_    0.447858 0.621570 0.189061 0.147943
N1    N     N_2   0.440860 0.456490 0.474790 0.163513
N2    N     N_2   0.559140 0.543510 0.525210 0.163986
O1    O     O_R   0.891570 0.738930 0.506190 -0.635380
O2    O     O_3   0.496958 0.664589 0.576409 -0.522352
O3    O     O_R   0.108430 0.261070 0.493810 -0.636481
O4    O     O_R   0.174650 0.711050 0.490030 -0.572928
O5    O     O_R   0.825350 0.288950 0.509970 -0.571860
O6    O     O_R   0.909850 0.521900 0.644940 -0.667593
O7    O     O_R   0.090150 0.478100 0.355060 -0.669173
O8    O     O_R   0.192930 0.494020 0.628780 -0.582554
O9    O     O_R   0.807070 0.505980 0.371220 -0.579062
O10   O     O_3   0.502911 0.334189 0.424697 -0.522580
Zn1   Zn    Zn3+2 0.810990 0.518620 0.510790 1.003287
Zn2   Zn    Zn3+2 0.189010 0.481380 0.489210 1.000719

loop_
_geom_bond_atom_site_label_1
_geom_bond_atom_site_label_2
_ccdc_geom_bond_type
C20   H10   S    
C2    C4    S    
O4    Zn2   S    
C9    H17   S    
C3    C9    A    
C28   O6    A    
C18   H6    S    
C11   C16   A    
C17   C22   A    
C2    O9    A    
C13   C17   A    
O8    Zn2   S    
O3    Zn2   S    
C13   C15   A    
C5    C14   A    
C26   H3    S    
C6    H21   S    
C19   H7    S    
O1    Zn1   S    
C9    C11   A    
C26   C27   D    
N1    O10   S    
C21   H13   S    
C12   O5    A    
C3    C28   S    
C5    H20   S    
C1    O4    A    
N2    O2    S    
O5    Zn1   S    
C16   C23   A    
C3    C7    A    
C19   H8    S    
C23   C25   A    
C25   H12   S    
C1    C26   S    
C11   C14   A    
C22   C24   A    
C15   C25   A    
C12   O3    A    
C18   H5    S    
C27   H4    S    
C12   C27   S    
C10   H16   S    
N1    N2    D    
C23   H2    S    
O7    Zn2   S    
C22   H22   S    
C28   O8    A    
C20   C21   S    
C20   O2    S    
C18   C19   S    
C14   C24   A    
O6    Zn1   S    
C5    C7    A    
C20   H11   S    
C1    O1    A    
C24   H1    S    
C18   O10   S    
C6    C8    A    
C19   H9    S    
C8    H18   S    
C4    C8    A    
C6    C15   A    
C2    O7    A    
C4    C10   A    
N2    Zn1   S    
O9    Zn1   S    
C21   H15   S    
N1    Zn2   S    
C21   H14   S    
C16   C17   A    
C10   C13   A    
C7    H19   S    
