data_mof_unit_54532.cif
_audit_creation_date              2013-03-05T15:49:56-0500
_audit_creation_method            fapswitch 2.2
_symmetry_space_group_name_H-M    P1
_symmetry_Int_Tables_number       1
_space_group_crystal_system       triclinic
_cell_length_a                    6.93971
_cell_length_b                    19.941767
_cell_length_c                    23.78608
_cell_angle_alpha                 93.504408
_cell_angle_beta                  91.033847
_cell_angle_gamma                 88.504395
_cell_volume                      3284.03667424

loop_
_atom_site_label
_atom_site_type_symbol
_atom_site_description
_atom_site_fract_x
_atom_site_fract_y
_atom_site_fract_z
_atom_type_partial_charge
O1    O     O_R   0.620100 0.812200 0.810870 -0.599761
O2    O     O_R   0.379900 0.187800 0.189130 -0.601473
O3    O     O_R   0.296960 0.671650 0.794750 -0.577925
O4    O     O_R   0.703040 0.328350 0.205250 -0.577150
O5    O     O_R   0.120160 0.687800 0.689130 -0.589639
O6    O     O_R   0.879840 0.312200 0.310870 -0.591920
C1    C     C_R   0.468894 0.646966 0.804635 1.042175
C2    C     C_R   0.531104 0.353034 0.195363 1.038750
O7    O     O_R   0.290810 0.810670 0.817290 -0.542801
O8    O     O_R   0.709190 0.189330 0.182710 -0.535169
O9    O     O_R   0.113980 0.827820 0.711840 -0.568115
O10   O     O_R   0.886020 0.172180 0.288160 -0.582205
C3    C     C_R   0.459046 0.831460 0.834521 1.072690
C4    C     C_R   0.540954 0.168327 0.165636 1.074678
O11   O     O_R   0.626290 0.672180 0.788160 -0.606203
O12   O     O_R   0.373710 0.327820 0.211840 -0.606090
O13   O     O_3   0.451520 0.755460 0.715370 -0.253863
O14   O     O_3   0.548480 0.244540 0.284630 -0.256818
V1    V     V_3+5 0.179200 0.748980 0.756420 1.336025
V2    V     V_3+5 0.820800 0.251020 0.243580 1.329633
O15   O     O_R   0.783880 0.828350 0.705250 -0.611641
O16   O     O_R   0.216120 0.171650 0.294750 -0.598101
C5    C     C_R   0.950046 0.853046 0.695187 1.161738
C6    C     C_R   0.049547 0.147031 0.304741 1.165303
O17   O     O_R   0.790030 0.689320 0.682700 -0.574900
O18   O     O_R   0.209970 0.310680 0.317300 -0.582230
C7    C     C_R   0.959954 0.669303 0.664957 0.998046
C8    C     C_R   0.040063 0.329630 0.335538 0.998990
V3    V     V_3+5 0.678400 0.751010 0.743570 1.290895
V4    V     V_3+5 0.321600 0.248990 0.256430 1.289174
O19   O     O_3   0.955950 0.744540 0.784620 -0.256431
O20   O     O_3   0.044050 0.255460 0.215380 -0.253023
C9    C     C_R   0.147763 0.433115 0.388515 -0.145647
C10   C     C_R   0.836987 0.571187 0.607084 -0.129677
C11   C     C_R   0.026819 0.377993 0.385333 -0.284448
C12   C     C_R   0.972405 0.621833 0.614197 -0.291547
C13   C     C_R   0.895122 0.370021 0.429242 0.334605
C14   C     C_R   0.122399 0.624488 0.574578 0.323792
C15   C     C_R   0.870188 0.422196 0.472531 -0.161134
C16   C     C_R   0.127543 0.578517 0.526109 -0.162734
C17   C     C_R   0.999920 0.476443 0.475866 0.028027
C18   C     C_R   0.991792 0.526081 0.521288 0.040482
C19   C     C_R   0.139938 0.480695 0.434183 0.167031
C20   C     C_R   0.848188 0.522796 0.562080 0.149869
C21   C     C_R   0.722043 0.421790 0.513193 0.370616
C22   C     C_R   0.263864 0.582361 0.482338 0.359996
C23   C     C_R   0.714812 0.471439 0.557364 -0.290670
C24   C     C_R   0.269270 0.533256 0.437798 -0.289267
H1    H     H_    0.251006 0.438410 0.355448 0.125548
H2    H     H_    0.726048 0.567853 0.638269 0.147361
H3    H     H_    0.600402 0.470639 0.587768 0.169796
H4    H     H_    0.373778 0.537214 0.404874 0.168501
C25   C     C_R   0.949882 0.915457 0.664269 -0.488412
C26   C     C_R   0.043840 0.084459 0.334954 -0.497864
C27   C     C_R   0.885822 0.035046 0.661087 -0.119931
C28   C     C_R   0.039743 0.963181 0.334778 -0.122288
C29   C     C_R   0.904376 0.977945 0.692225 0.264194
C30   C     C_R   0.047194 0.021280 0.304949 0.257356
C31   C     C_R   0.981551 0.911583 0.605727 0.720950
C32   C     C_R   0.030962 0.088317 0.394222 0.721955
C33   C     C_R   0.956820 0.969275 0.573001 -0.100307
C34   C     C_R   0.006759 0.029349 0.424599 -0.099673
C35   C     C_R   0.911957 0.031567 0.602555 -0.216532
C36   C     C_R   0.018328 0.966416 0.393471 -0.212236
C37   C     C_R   0.975510 0.968152 0.512528 -0.002778
C38   C     C_R   0.972730 0.029942 0.484328 -0.011055
C39   C     C_R   0.921679 0.089503 0.516042 -0.198139
C40   C     C_R   0.984100 0.907572 0.478750 -0.203998
C41   C     C_R   0.891789 0.090359 0.573583 0.803777
C42   C     C_R   0.004726 0.906684 0.420823 0.797027
H5    H     H_    0.852980 0.082989 0.683206 0.234130
H6    H     H_    0.045122 0.914804 0.311419 0.234672
H7    H     H_    0.891436 0.136192 0.497038 0.263722
H8    H     H_    0.962757 0.859351 0.495023 0.253484
C43   C     C_R   0.492416 0.585583 0.836059 -0.328398
C44   C     C_R   0.507576 0.414426 0.163949 -0.325936
C45   C     C_R   0.659257 0.478199 0.842139 -0.047791
C46   C     C_R   0.340722 0.521811 0.157879 -0.048530
C47   C     C_R   0.592551 0.530537 0.810422 -0.245821
C48   C     C_R   0.407404 0.469464 0.189589 -0.247737
C49   C     C_R   0.446744 0.585445 0.893563 0.790396
C50   C     C_R   0.553288 0.414581 0.106449 0.790764
C51   C     C_R   0.497919 0.528985 0.925504 -0.063844
C52   C     C_R   0.502118 0.471048 0.074516 -0.064362
C53   C     C_R   0.621359 0.478828 0.899846 0.059118
C54   C     C_R   0.378663 0.521199 0.100176 0.059860
C55   C     C_R   0.446465 0.523164 0.983215 -0.082438
C56   C     C_R   0.553590 0.476878 0.016808 -0.082441
C57   C     C_R   0.709131 0.438975 0.991446 0.439362
C58   C     C_R   0.290934 0.561072 0.008578 0.439465
C59   C     C_R   0.724024 0.434349 0.932873 -0.214734
C60   C     C_R   0.276025 0.565688 0.067152 -0.215305
H9    H     H_    0.834710 0.401668 0.913558 0.181817
H10   H     H_    0.165338 0.598368 0.086468 0.181746
H11   H     H_    0.368419 0.469517 0.233516 0.143080
H12   H     H_    0.631493 0.530471 0.766491 0.145262
H13   H     H_    0.749906 0.438954 0.822099 0.146720
H14   H     H_    0.250055 0.561049 0.177921 0.145826
C61   C     C_R   0.392289 0.069155 0.114385 -0.157905
C62   C     C_R   0.607797 0.930239 0.886160 -0.148555
C63   C     C_R   0.531972 0.118759 0.116423 -0.379021
C64   C     C_R   0.467863 0.880794 0.883924 -0.386240
C65   C     C_R   0.661274 0.120867 0.071632 0.820326
C66   C     C_R   0.338228 0.878704 0.928651 0.817466
C67   C     C_R   0.654084 0.072570 0.025216 -0.240570
C68   C     C_R   0.345545 0.926927 0.975155 -0.240110
C69   C     C_R   0.508684 0.023415 0.023576 0.020289
C70   C     C_R   0.491012 0.976062 0.976850 0.018699
C71   C     C_R   0.379579 0.021807 0.068523 0.161737
C72   C     C_R   0.620240 0.977644 0.931944 0.160720
C73   C     C_R   0.783461 0.072678 0.979568 0.358124
C74   C     C_R   0.216190 0.926815 0.020810 0.359341
C75   C     C_R   0.763389 0.025857 0.933587 -0.222623
C76   C     C_R   0.236320 0.973619 0.066820 -0.227239
H15   H     H_    0.292751 0.067464 0.148813 0.202792
H16   H     H_    0.707781 0.931723 0.851921 0.210703
H17   H     H_    0.864198 0.026228 0.899305 0.205537
H18   H     H_    0.135335 0.973285 0.101045 0.209027
F1    F     F_    0.619173 0.355980 0.080729 -0.649535
F2    F     F_    0.380898 0.644055 0.919278 -0.649780
N1    N     N_R   0.868278 0.413344 0.024112 0.268455
O21   O     O_R   0.933986 0.448716 0.067776 -0.414118
O22   O     O_R   0.966335 0.360244 0.005601 -0.283960
N2    N     N_R   0.131804 0.586717 0.975915 0.268459
O23   O     O_R   0.033803 0.639831 0.994424 -0.284051
O24   O     O_R   0.066045 0.551346 0.932257 -0.414144
F3    F     F_    0.784627 0.172654 0.072352 -0.608058
F4    F     F_    0.214437 0.827039 0.927771 -0.608414
N3    N     N_R   0.939182 0.118555 0.979186 0.281537
O25   O     O_R   0.072819 0.117449 0.018179 -0.337426
O26   O     O_R   0.970020 0.150269 0.934122 -0.303263
N4    N     N_R   0.060534 0.880915 0.021201 0.281688
O27   O     O_R   0.926746 0.882055 0.982255 -0.338775
O28   O     O_R   0.029870 0.849163 0.066256 -0.301488
N5    N     N_R   0.816209 0.305033 0.435471 0.254051
O29   O     O_R   0.862838 0.272272 0.479575 -0.285080
O30   O     O_R   0.691386 0.279786 0.399220 -0.322560
N6    N     N_R   0.274343 0.670993 0.585607 0.251055
O31   O     O_R   0.445695 0.648965 0.599319 -0.397261
O32   O     O_R   0.237935 0.735329 0.587516 -0.269674
N7    N     N_R   0.568101 0.375047 0.508314 0.261958
O33   O     O_R   0.508654 0.347571 0.552891 -0.304375
O34   O     O_R   0.462128 0.371020 0.462666 -0.368211
N8    N     N_R   0.388948 0.638005 0.479408 0.264959
O35   O     O_R   0.572798 0.626943 0.472280 -0.355276
O36   O     O_R   0.315203 0.697166 0.470545 -0.275504
F5    F     F_    0.841517 0.149801 0.601132 -0.634505
F6    F     F_    0.009576 0.846203 0.391167 -0.642027
F7    F     F_    0.056070 0.149601 0.420891 -0.677437
F8    F     F_    0.045471 0.851565 0.582912 -0.674429
N9    N     N_R   0.061156 0.014831 0.244462 0.229170
O37   O     O_R   0.970134 0.056953 0.213100 -0.435712
O38   O     O_R   0.147026 0.962258 0.220165 -0.378078
N10   N     N_R   0.882065 0.984703 0.752364 0.229626
O39   O     O_R   0.994272 0.950652 0.785232 -0.437090
O40   O     O_R   0.768073 0.031402 0.774811 -0.380495

loop_
_geom_bond_atom_site_label_1
_geom_bond_atom_site_label_2
_geom_bond_distance
_ccdc_geom_bond_type
C51   C55   1.436895 A    
C55   C56   1.440844 A    
C62   C72   1.400744 A    
C26   C32   1.411457 A    
C69   C71   1.409621 A    
C17   C18   1.420856 A    
C62   H16   1.081664 S    
O4    C2    1.301788 A    
V1    O19   1.705868 S    
C74   C76   1.401699 A    
C25   C31   1.410783 A    
N5    O29   1.300976 A    
C15   C17   1.422970 A    
C68   C74   1.421507 A    
C16   C22   1.426144 A    
C67   C69   1.423396 A    
C49   F2    1.357869 S    
O9    V1    1.987576 S    
C43   C47   1.397640 A    
C68   C70   1.423425 A    
C11   C13   1.419049 A    
C52   C54   1.416416 A    
N3    O25   1.300464 A    
O3    C1    1.301767 A    
N7    O34   1.299949 A    
C61   H15   1.083473 S    
C46   C48   1.389683 A    
C40   H8    1.073051 S    
C61   C71   1.401520 A    
C2    C44   1.476769 S    
O13   V3    1.702547 S    
C32   C34   1.432356 A    
C33   C35   1.419564 A    
O7    C3    1.300067 A    
C34   C36   1.418796 A    
C9    C11   1.397912 A    
O5    C7    1.294273 A    
O7    V1    2.000284 S    
O6    C8    1.293495 A    
C35   C41   1.398501 A    
C8    C11   1.483615 S    
O8    V2    2.000285 S    
N4    O27   1.300439 A    
C28   H6    1.083574 S    
C27   C35   1.404536 A    
C46   H14   1.083956 S    
C69   C70   1.419451 A    
C13   N5    1.436979 S    
O3    V1    1.989060 S    
C39   H7    1.073820 S    
C36   C42   1.397802 A    
C28   C30   1.397625 A    
C57   C59   1.396166 A    
C65   F3    1.357597 S    
C19   C24   1.395308 A    
N10   O40   1.301593 A    
C20   C23   1.396374 A    
C15   C21   1.424689 A    
C46   C54   1.401485 A    
C16   C18   1.423701 A    
C38   C39   1.408338 A    
C67   C73   1.421484 A    
C45   C53   1.401482 A    
C2    O12   1.291382 A    
C22   N8    1.432340 S    
O17   V3    1.995700 S    
C17   C19   1.408454 A    
C18   C20   1.408894 A    
C50   F1    1.357868 S    
O1    V3    1.993501 S    
C49   C51   1.430022 A    
C73   N3    1.434522 S    
O11   V3    1.993554 S    
C21   C23   1.399574 A    
C53   C59   1.394089 A    
C22   C24   1.398361 A    
C10   H2    1.084744 S    
C31   C33   1.432957 A    
C34   C38   1.443702 A    
C9    C19   1.398798 A    
C44   C48   1.397663 A    
C10   C20   1.398565 A    
N8    O36   1.301221 A    
O8    C4    1.300402 A    
C44   C50   1.409782 A    
C25   C29   1.407295 A    
C43   C49   1.409786 A    
C4    C63   1.486739 S    
C23   H3    1.084650 S    
C1    O11   1.291382 A    
O15   V3    2.000043 S    
C39   C41   1.387004 A    
V4    O20   2.148144 S    
C59   H9    1.084360 S    
C58   C60   1.396170 A    
C66   F4    1.357535 S    
N9    O37   1.301144 A    
C37   C40   1.409911 A    
O10   V2    1.987577 S    
C60   H10   1.084362 S    
C14   N6    1.432501 S    
C45   C47   1.389682 A    
C73   C75   1.401372 A    
C74   N4    1.434500 S    
C48   H11   1.083942 S    
C64   C66   1.408835 A    
C72   C75   1.398813 A    
N10   O39   1.301526 A    
N1    O21   1.301665 A    
C76   H18   1.084158 S    
N6    O32   1.299348 A    
C71   C76   1.398970 A    
C21   N7    1.434551 S    
C75   H17   1.084442 S    
N4    O28   1.301115 A    
C51   C53   1.416419 A    
O18   V4    1.995699 S    
C50   C52   1.430025 A    
C27   C29   1.397769 A    
O14   V4    1.702547 S    
C41   F5    1.359392 S    
C65   C67   1.421102 A    
O16   C6    1.299060 A    
C55   C58   1.423224 A    
O1    C3    1.298859 A    
O12   V4    1.993554 S    
C12   C14   1.420842 A    
C30   N9    1.441420 S    
N2    O24   1.301665 A    
C62   C64   1.399939 A    
V2    O20   1.705868 S    
C31   F8    1.351045 S    
N5    O30   1.300044 A    
O16   V4    2.000041 S    
C61   C63   1.401063 A    
V3    O19   2.148146 S    
C58   N2    1.439723 S    
C52   C56   1.436885 A    
N8    O35   1.301451 A    
C1    C43   1.476741 S    
C66   C68   1.421756 A    
O5    V1    1.995467 S    
C7    C12   1.490325 S    
O17   C7    1.304159 A    
O6    V2    1.995466 S    
C29   N10   1.439339 S    
O10   C6    1.293528 A    
O18   C8    1.302474 A    
O2    V4    1.993500 S    
O15   C5    1.297530 A    
C47   H12   1.083942 S    
C13   C15   1.427873 A    
C54   C60   1.394094 A    
N7    O33   1.301257 A    
C14   C16   1.428789 A    
C28   C36   1.404025 A    
C57   N1    1.439731 S    
C5    C25   1.483777 S    
O9    C5    1.297092 A    
O13   V1    2.153202 S    
C10   C12   1.398109 A    
C70   C72   1.409359 A    
O14   V2    2.153203 S    
C32   F7    1.355983 S    
N9    O38   1.301554 A    
O2    C4    1.298308 A    
N1    O22   1.301701 A    
N6    O31   1.299863 A    
O4    V2    1.989059 S    
C33   C37   1.445321 A    
C24   H4    1.084688 S    
C42   F6    1.359455 S    
C56   C57   1.423214 A    
C63   C65   1.408541 A    
C37   C38   1.438046 A    
C9    H1    1.085167 S    
C26   C30   1.409402 A    
C40   C42   1.386840 A    
C45   H13   1.083955 S    
C3    C64   1.487188 S    
C6    C26   1.479285 S    
C27   H5    1.083637 S    
N2    O23   1.301703 A    
N3    O26   1.301129 A    
