data_mof_unit_36598.cif
_audit_creation_date              2012-12-11T14:03:26-0500
_audit_creation_method            fapswitch 2.2
_symmetry_space_group_name_H-M    P1
_symmetry_Int_Tables_number       1
_space_group_crystal_system       triclinic
_cell_length_a                    6.93458
_cell_length_b                    11.424218
_cell_length_c                    18.684753
_cell_angle_alpha                 90.000079
_cell_angle_beta                  92.806298
_cell_angle_gamma                 90.000179
_cell_volume                      1478.47120508

loop_
_atom_site_label
_atom_site_type_symbol
_atom_type_description
_atom_site_fract_x
_atom_site_fract_y
_atom_site_fract_z
_atom_type_partial_charge
O1    O     O_R   0.330540 0.606360 0.598870 -0.493100
O2    O     O_R   0.669460 0.106360 0.401130 -0.493100
O3    O     O_R   0.026770 0.620470 0.750430 -0.546608
O4    O     O_R   0.973230 0.120470 0.249570 -0.546611
O5    O     O_R   0.856460 0.393640 0.750930 -0.545675
O6    O     O_R   0.143540 0.893640 0.249070 -0.545676
C1    C     C_R   0.198547 0.648200 0.774633 0.668783
C2    C     C_R   0.801452 0.148202 0.225368 0.668780
O7    O     O_R   0.000920 0.620350 0.599420 -0.537893
O8    O     O_R   0.999080 0.120350 0.400580 -0.537892
O9    O     O_R   0.830430 0.393520 0.598850 -0.564738
O10   O     O_R   0.169570 0.893520 0.401150 -0.564737
C3    C     C_R   0.166972 0.647789 0.574492 0.826696
C4    C     C_R   0.833028 0.147789 0.425509 0.826695
O11   O     O_R   0.356570 0.606480 0.750960 -0.545251
O12   O     O_R   0.643430 0.106480 0.249040 -0.545248
O13   O     O_3   0.176990 0.425580 0.674890 -0.382959
O14   O     O_3   0.823010 0.925580 0.325110 -0.382959
V1    V     V_3+5 0.902170 0.513810 0.674910 1.474639
V2    V     V_3+5 0.097830 0.013810 0.325090 1.474639
O15   O     O_R   0.500800 0.379530 0.599380 -0.515071
O16   O     O_R   0.499200 0.879530 0.400620 -0.515070
C5    C     C_R   0.666477 0.352047 0.574604 0.681203
C6    C     C_R   0.333522 0.852047 0.425396 0.681204
O17   O     O_R   0.526650 0.379650 0.750390 -0.549421
O18   O     O_R   0.473350 0.879650 0.249610 -0.549422
C7    C     C_R   0.698425 0.351557 0.774385 0.679468
C8    C     C_R   0.301575 0.851559 0.225615 0.679471
V3    V     V_3+5 0.402160 0.486190 0.674900 1.514000
V4    V     V_3+5 0.597840 0.986190 0.325100 1.514002
O19   O     O_3   0.677210 0.574420 0.674910 -0.355061
O20   O     O_3   0.322790 0.074420 0.325090 -0.355061
C9    C     C_R   0.699718 0.071698 0.879632 -0.159014
C10   C     C_R   0.300254 0.571698 0.120369 -0.159011
H1    H     H_    0.673636 0.115746 0.767990 0.111218
H2    H     H_    0.326319 0.615749 0.232011 0.111216
H3    H     H_    0.712861 0.940675 0.996706 0.138411
H4    H     H_    0.287176 0.440676 0.003295 0.138410
H5    H     H_    0.685101 0.978746 0.869003 0.132226
H6    H     H_    0.314863 0.478746 0.130999 0.132227
C11   C     C_R   0.713267 0.269258 0.834308 -0.032113
C12   C     C_R   0.286727 0.769261 0.165692 -0.032110
C13   C     C_R   0.803424 0.350484 0.180654 -0.177071
C14   C     C_R   0.196478 0.850479 0.819348 -0.177067
C15   C     C_R   0.797205 0.432272 0.125590 -0.119413
C16   C     C_R   0.202619 0.932266 0.874412 -0.119417
C17   C     C_R   0.775925 0.396279 0.054409 -0.167744
C18   C     C_R   0.223925 0.896273 0.945593 -0.167738
C19   C     C_R   0.759825 0.275999 0.036360 0.068450
C20   C     C_R   0.240134 0.775998 0.963641 0.068449
C21   C     C_R   0.763843 0.192577 0.093275 0.065365
C22   C     C_R   0.236166 0.692577 0.906725 0.065361
C23   C     C_R   0.740197 0.235711 0.963897 0.068160
C24   C     C_R   0.259787 0.735712 0.036104 0.068161
C25   C     C_R   0.722314 0.113541 0.950197 0.136641
C26   C     C_R   0.277678 0.613542 0.049803 0.136644
C27   C     C_R   0.726198 0.033850 0.006859 -0.210677
C28   C     C_R   0.273826 0.533852 0.993142 -0.210676
C29   C     C_R   0.747210 0.072460 0.077217 -0.212056
C30   C     C_R   0.252841 0.572462 0.922782 -0.212056
C31   C     C_R   0.736969 0.312257 0.904287 -0.224593
C32   C     C_R   0.263037 0.812261 0.095713 -0.224593
C33   C     C_R   0.693779 0.149242 0.822084 -0.186605
C34   C     C_R   0.306189 0.649243 0.177916 -0.186607
C35   C     C_R   0.786348 0.231106 0.165341 -0.072947
C36   C     C_R   0.213644 0.731105 0.834659 -0.072951
H7    H     H_    0.749856 0.405803 0.910097 0.103199
H8    H     H_    0.250187 0.905810 0.089903 0.103194
H9    H     H_    0.822022 0.380369 0.235603 0.109260
H10   H     H_    0.177846 0.880361 0.764399 0.109261
H11   H     H_    0.772695 0.465077 0.015002 0.123096
H12   H     H_    0.227058 0.965070 0.985000 0.123099
H13   H     H_    0.809935 0.524590 0.138115 0.136433
H14   H     H_    0.189793 0.024580 0.861889 0.136435
H15   H     H_    0.749846 0.006879 0.119077 0.126664
H16   H     H_    0.250241 0.506882 0.880923 0.126667
C37   C     C_2   0.830306 0.233607 0.484716 -0.457385
C38   C     C_2   0.169694 0.733607 0.515284 -0.457384
H17   H     H_    0.967857 0.270813 0.503490 0.137349
H18   H     H_    0.032143 0.770813 0.496511 0.137348
C39   C     C_2   0.666129 0.266050 0.515717 0.424291
C40   C     C_2   0.333871 0.766050 0.484283 0.424291
F1    F     F_    0.492363 0.220243 0.493076 -0.670162
F2    F     F_    0.507636 0.720243 0.506923 -0.670162

loop_
_geom_bond_atom_site_label_1
_geom_bond_atom_site_label_2
_ccdc_geom_bond_type
C9    C25   A    
C10   C26   A    
C29   H15   S    
O13   V3    S    
C23   C25   A    
C14   C36   A    
C11   C31   A    
O4    C2    A    
V1    O19   S    
C17   C19   A    
O9    V1    S    
C9    H5    S    
C10   H6    S    
O3    C1    A    
C38   H18   S    
C27   C29   A    
O12   V4    S    
C15   H13   S    
C21   C35   A    
C15   C17   A    
C8    C12   S    
C31   H7    S    
O7    C3    A    
C22   C30   A    
H4    C28   S    
C23   C31   A    
O7    V1    S    
O6    C8    A    
O8    V2    S    
C7    C11   S    
C19   C21   A    
C20   C22   A    
O3    V1    S    
O14   V4    S    
C6    C40   S    
C5    C39   S    
C12   C32   A    
C9    C33   A    
C18   C20   A    
C2    C35   S    
C2    O12   A    
O5    C7    A    
C18   H12   S    
C10   C34   A    
C39   F1    S    
C14   C16   A    
O11   V3    S    
C16   C18   A    
C37   H17   S    
O17   V3    S    
C24   C26   A    
O8    C4    A    
C4    C37   S    
C1    O11   A    
C24   C32   A    
O15   V3    S    
C30   H16   S    
C38   C40   D    
C37   C39   D    
C13   C35   A    
O10   V2    S    
O1    V3    S    
C20   C24   A    
C14   H10   S    
C13   C15   A    
C17   H11   S    
O18   V4    S    
C40   F2    S    
C25   C27   A    
O16   C6    A    
C21   C29   A    
C11   C33   A    
C12   C34   A    
C16   H14   S    
C22   C36   A    
V2    O20   S    
C3    C38   S    
O16   V4    S    
O5    V1    S    
O17   C7    A    
O6    V2    S    
O10   C6    A    
O18   C8    A    
C32   H8    S    
O2    V4    S    
O15   C5    A    
V3    O19   S    
C1    C36   S    
V4    O20   S    
C19   C23   A    
O9    C5    A    
O13   V1    S    
C26   C28   A    
O14   V2    S    
O2    C4    A    
O4    V2    S    
O1    C3    A    
C13   H9    S    
H1    C33   S    
H2    C34   S    
C28   C30   A    
H3    C27   S    
