data_mof_unit_8230.cif
_audit_creation_date              2013-03-05T16:06:36-0500
_audit_creation_method            fapswitch 2.2
_symmetry_space_group_name_H-M    P1
_symmetry_Int_Tables_number       1
_space_group_crystal_system       triclinic
_cell_length_a                    8.340921
_cell_length_b                    15.217319
_cell_length_c                    22.87148
_cell_angle_alpha                 99.187143
_cell_angle_beta                  88.307789
_cell_angle_gamma                 99.429308
_cell_volume                      2827.01893462

loop_
_atom_site_label
_atom_site_type_symbol
_atom_site_description
_atom_site_fract_x
_atom_site_fract_y
_atom_site_fract_z
_atom_type_partial_charge
P1    P     P_3+3 0.056010 0.422560 0.367570 0.467742
O1    O     O_2   0.889550 0.449620 0.359410 -0.354505
O2    O     O_3   0.130120 0.450560 0.430480 -0.443905
O3    O     O_3   0.674100 0.616440 0.398760 -0.415904
O4    O     O_2   0.803219 0.553231 0.294521 -0.368697
O5    O     O_3   0.016079 0.304818 0.349936 -0.542743
O6    O     O_3   0.713345 0.708777 0.298145 -0.525500
H1    H     H_    0.815035 0.770167 0.378445 0.186535
C1    C     C_3   0.752459 0.868436 0.329558 -0.960770
H2    H     H_    0.754746 0.921365 0.369220 0.228421
H3    H     H_    0.872288 0.877394 0.306886 0.287579
P2    P     P_3+3 0.670430 0.710550 0.550450 0.469069
P3    P     P_3+3 0.136520 0.782282 0.436148 0.428078
O7    O     O_2   0.848070 0.724010 0.533650 -0.373124
O8    O     O_3   0.092910 0.663610 0.428710 -0.384550
O9    O     O_2   0.990335 0.821705 0.466565 -0.404187
O10   O     O_3   0.682079 0.735485 0.628269 -0.571107
O11   O     O_3   0.132979 0.808344 0.364509 -0.514545
C2    C     C_3   0.275419 0.788087 0.335118 0.339193
H4    H     H_    0.289014 0.716537 0.335260 0.083931
H5    H     H_    0.382283 0.834390 0.355950 0.059653
C3    C     C_3   0.267709 0.802757 0.271233 -0.817308
H6    H     H_    0.162016 0.757239 0.248780 0.283605
H7    H     H_    0.255001 0.873846 0.269576 0.245530
C4    C     C_3   0.076877 0.743844 0.648852 0.316667
H8    H     H_    0.117871 0.806361 0.629605 0.100234
H9    H     H_    0.971189 0.707802 0.622922 0.137418
C5    C     C_3   0.034278 0.770999 0.713777 -0.935631
H10   H     H_    0.143902 0.808498 0.738322 0.269918
H11   H     H_    0.939906 0.815253 0.717217 0.238952
H12   H     H_    0.987046 0.710577 0.734324 0.250756
Ba1   Ba    Ba6+2 0.856840 0.543240 0.473380 1.516350
C6    C     C_3   0.962861 0.266638 0.400050 0.449503
H13   H     H_    0.852838 0.292959 0.417920 0.086240
H14   H     H_    0.058586 0.281736 0.434448 0.130311
C7    C     C_3   0.923082 0.164757 0.381787 -0.943543
H15   H     H_    0.821778 0.147766 0.349405 0.271737
H16   H     H_    0.887146 0.131090 0.420654 0.214502
H17   H     H_    0.031400 0.138289 0.361346 0.293168
C8    C     C_3   0.651656 0.658461 0.656126 0.436997
H18   H     H_    0.767010 0.636093 0.663622 0.005091
H19   H     H_    0.574236 0.600531 0.630794 0.160113
C9    C     C_3   0.573541 0.683284 0.716267 -0.912147
H20   H     H_    0.658506 0.735266 0.744847 0.243218
H21   H     H_    0.542934 0.623012 0.738565 0.221735
H22   H     H_    0.460405 0.710603 0.710810 0.290016
P4    P     P_3+3 0.133710 0.577520 0.632440 0.455125
O12   O     O_2   0.300150 0.550410 0.640630 -0.360723
O13   O     O_3   0.059590 0.549510 0.569530 -0.406777
O14   O     O_3   0.515610 0.383640 0.601250 -0.390719
O15   O     O_3   0.204909 0.694241 0.643746 -0.567176
P5    P     P_3+3 0.052353 0.220142 0.571083 0.449131
O16   O     O_3   0.613300 0.389650 0.468010 -0.395516
O17   O     O_3   0.096810 0.336470 0.571300 -0.362377
O18   O     O_2   0.183094 0.177036 0.532710 -0.388703
O19   O     O_3   0.089853 0.201397 0.642471 -0.501540
Ba2   Ba    Ba6+2 0.332990 0.456840 0.526630 1.540725
P6    P     P_3+3 0.662873 0.602560 0.320441 0.446882
C10   C     C_3   0.717429 0.775680 0.348297 0.522741
H23   H     H_    0.599898 0.769547 0.372388 -0.031538
H24   H     H_    0.656558 0.876101 0.298967 0.251779
O20   O     O_3   0.576410 0.610420 0.531990 -0.433376
C11   C     C_3   0.486707 0.311924 0.345149 0.445979
H25   H     H_    0.361152 0.323093 0.358003 0.091475
H26   H     H_    0.573601 0.375383 0.357658 0.089471
C12   C     C_3   0.496017 0.286271 0.277749 -0.736092
H27   H     H_    0.474194 0.344141 0.256734 0.150416
H28   H     H_    0.620327 0.272681 0.265113 0.201826
P7    P     P_3+3 0.526036 0.275334 0.449339 0.430679
O21   O     O_2   0.341630 0.276020 0.466390 -0.374234
O22   O     O_3   0.529794 0.242915 0.372390 -0.566591
H29   H     H_    0.381183 0.788227 0.247814 0.247572
C13   C     C_3   0.953335 0.215927 0.677736 0.360490
H30   H     H_    0.922426 0.284154 0.676673 0.086122
H31   H     H_    0.848279 0.163054 0.662571 0.056397
C14   C     C_3   0.989689 0.209017 0.741381 -0.834623
H32   H     H_    0.088239 0.264340 0.759224 0.276787
H33   H     H_    0.878688 0.214158 0.768829 0.252086
H34   H     H_    0.028053 0.143083 0.743573 0.238693
P8    P     P_3+3 0.533931 0.402892 0.678959 0.460877
C15   C     C_3   0.513584 0.229840 0.655531 0.512494
H35   H     H_    0.632824 0.238556 0.632653 -0.003838
O23   O     O_2   0.377949 0.438862 0.703300 -0.369385
O24   O     O_3   0.511921 0.298665 0.704286 -0.509932
H36   H     H_    0.414547 0.229476 0.624002 0.168425
H37   H     H_    0.494296 0.084438 0.638838 0.227145
C16   C     C_3   0.486405 0.138917 0.676912 -0.987160
H38   H     H_    0.364136 0.127033 0.697546 0.283579
H39   H     H_    0.579873 0.137133 0.710084 0.256002
H40   H     H_    0.972470 0.288383 0.041801 0.169049
H41   H     H_    0.891363 0.286177 0.940420 0.168507
C17   C     C_R   0.356503 0.499026 0.325157 -0.555885
C18   C     C_R   0.096465 0.586687 0.945268 -0.052032
C19   C     C_R   0.049742 0.584097 0.885648 0.518722
O25   O     O_2   0.077637 0.652866 0.863346 -0.593890
N1    N     N_R   0.970896 0.504874 0.852763 -0.165901
C20   C     C_R   0.937423 0.427205 0.878710 0.525754
O26   O     O_2   0.868570 0.357316 0.850014 -0.600551
C21   C     C_R   0.983506 0.427548 0.938068 -0.051517
C22   C     C_R   0.063218 0.507845 0.971509 -0.015231
C23   C     C_R   0.175319 0.666529 0.979458 -0.119144
C24   C     C_R   0.220053 0.668060 0.038254 -0.116133
C25   C     C_R   0.188356 0.589700 0.065037 -0.050062
C26   C     C_R   0.109848 0.509292 0.031428 -0.016363
C27   C     C_R   0.952128 0.349168 0.964795 -0.118324
C28   C     C_R   0.998947 0.350446 0.023311 -0.120010
C29   C     C_R   0.078126 0.430273 0.057459 -0.049272
C30   C     C_R   0.127072 0.432472 0.116765 0.516089
N2    N     N_R   0.203025 0.512123 0.150263 -0.163769
C31   C     C_R   0.233192 0.590239 0.124590 0.530547
C32   C     C_2   0.766619 0.476195 0.772922 -0.161385
C33   C     C_3   0.720120 0.482503 0.709846 0.109280
C34   C     C_1   0.006642 0.524956 0.688893 0.284880
C35   C     C_2   0.048601 0.532073 0.745555 -0.212908
C36   C     C_2   0.923880 0.503411 0.791104 0.141245
C37   C     C_R   0.414433 0.549215 0.230806 -0.229570
C38   C     C_R   0.464528 0.543677 0.288317 0.246905
C39   C     C_R   0.193053 0.472041 0.310995 0.300595
C40   C     C_R   0.141717 0.476715 0.253369 -0.157084
C41   C     C_R   0.253038 0.512923 0.211563 0.133971
O27   O     O_2   0.103959 0.362836 0.138176 -0.597180
O28   O     O_2   0.298029 0.660784 0.153634 -0.609464
C42   C     C_2   0.865459 0.478610 0.669262 -0.414480
H42   H     H_    0.280199 0.731141 0.062710 0.170133
H43   H     H_    0.500909 0.580757 0.201197 0.178107
H44   H     H_    0.202677 0.728459 0.960848 0.169861
H45   H     H_    0.174260 0.555340 0.758724 0.175223
H46   H     H_    0.672119 0.457505 0.804380 0.161579
H47   H     H_    0.016700 0.451209 0.240791 0.172874
H48   H     H_    0.400836 0.485676 0.365894 0.133822
H49   H     H_    0.859434 0.429067 0.629218 0.156686
C43   C     C_R   0.328360 0.830932 0.478466 0.121898
H50   H     H_    0.212496 0.961031 0.432804 0.187190
C44   C     C_R   0.567889 0.795840 0.522524 0.317129
C45   C     C_R   0.757731 0.230599 0.519874 -0.504019
C46   C     C_R   0.847692 0.172946 0.541054 0.211265
C47   C     C_R   0.786376 0.080757 0.536289 -0.320974
C48   C     C_R   0.634572 0.044164 0.508588 0.071300
C49   C     C_R   0.549722 0.103792 0.483700 -0.007793
C50   C     C_R   0.564094 0.950623 0.504475 0.055676
C51   C     C_R   0.406471 0.920791 0.478779 -0.018075
C52   C     C_R   0.330515 0.980895 0.453328 -0.186619
C53   C     C_R   0.402758 0.069338 0.454124 -0.093016
C54   C     C_R   0.644964 0.885290 0.524124 -0.338837
C55   C     C_R   0.404145 0.772838 0.506299 -0.248950
C56   C     C_R   0.613354 0.196944 0.489049 0.231295
H51   H     H_    0.767322 0.901625 0.540843 0.174359
H52   H     H_    0.806191 0.301760 0.523903 0.164833
H53   H     H_    0.859681 0.039907 0.554663 0.155127
H54   H     H_    0.337322 0.110821 0.432705 0.187775
C57   C     C_2   0.374736 0.205170 0.253133 0.728880
H55   H     H_    0.371319 0.182435 0.205688 -0.000527
O29   O     O_2   0.280257 0.164431 0.285118 -0.573231
C58   C     C_3   0.320773 0.678778 0.507503 -0.160490
C59   C     C_3   0.369225 0.621806 0.449149 -0.527824
H56   H     H_    0.421289 0.664559 0.416181 0.142271
H57   H     H_    0.440589 0.568981 0.452313 0.254561
H58   H     H_    0.269808 0.580230 0.426429 0.235378
H59   H     H_    0.344260 0.654461 0.548314 0.213531
H60   H     H_    0.190293 0.677077 0.516953 0.207523

loop_
_geom_bond_atom_site_label_1
_geom_bond_atom_site_label_2
_geom_bond_distance
_ccdc_geom_bond_type
C12   H28   1.111228 S    
C16   H38   1.110802 S    
C11   H26   1.111023 S    
C49   C56   1.417027 A    
C23   C24   1.401759 A    
C59   H57   1.087946 S    
C13   H30   1.114057 S    
H41   C27   1.083213 S    
C2    H4    1.113539 S    
C14   H34   1.110769 S    
C30   O27   1.221893 D    
P8    O24   1.754003 S    
O16   P7    1.761976 S    
C32   H46   1.085470 S    
C35   C36   1.513323 S    
O12   Ba2   2.793004 S    
P4    O13   1.550649 S    
C37   C38   1.411120 A    
C4    C5    1.524164 S    
H50   C52   1.079452 S    
C18   C19   1.421976 A    
O4    P6    1.545995 D    
C25   C31   1.421503 A    
C1    H24   1.110251 S    
C43   C55   1.404594 A    
C5    H10   1.110811 S    
C2    H5    1.109085 S    
C14   H33   1.109577 S    
O11   C2    1.401811 S    
P7    O21   1.576874 D    
P8    O23   1.547727 D    
H1    C10   1.104225 S    
C28   C29   1.409388 A    
C20   O26   1.221015 D    
C22   C26   1.431390 A    
C6    C7    1.523481 S    
O13   Ba2   2.937915 S    
C30   N2    1.392123 Am   
O1    Ba1   2.792540 S    
P1    O1    1.536004 D    
C3    H29   1.110145 S    
P7    O22   1.751076 S    
C17   C39   1.390095 A    
C39   C40   1.413771 A    
C6    H14   1.108372 S    
C49   C53   1.400080 A    
C8    C9    1.523497 S    
C32   C33   1.526533 S    
C5    H11   1.110138 S    
P2    O10   1.761730 S    
C57   H55   1.084777 S    
N1    C36   1.470654 S    
Ba2   O21   2.885010 S    
C1    H2    1.111138 S    
O6    P6    1.754237 S    
P5    O18   1.543958 D    
C45   C46   1.392948 A    
C12   H27   1.110174 S    
C11   C12   1.531514 S    
C10   H23   1.108087 S    
P2    C44   1.866723 S    
P2    Ba1   3.421833 S    
C59   H58   1.051886 S    
P7    C56   1.856886 S    
C13   H31   1.110553 S    
C47   H53   1.077039 S    
C24   C25   1.409742 A    
Ba1   Ba2   4.636045 S    
C54   H51   1.076642 S    
C24   H42   1.083193 S    
O6    C10   1.404077 S    
C20   C21   1.420854 A    
P5    O17   1.747388 S    
C15   H35   1.108492 S    
C53   H54   1.078799 S    
C21   C27   1.409211 A    
P1    O5    1.750856 S    
Ba2   O20   2.822711 S    
C2    C3    1.517689 S    
C50   C51   1.429988 A    
H40   C28   1.083166 S    
C33   C42   1.508038 S    
C18   C23   1.409050 A    
O16   Ba2   2.910296 S    
H37   C16   1.110809 S    
P4    O15   1.758163 S    
C4    H8    1.110850 S    
C7    H17   1.109602 S    
P6    C38   1.858908 S    
C37   C41   1.422911 A    
O14   P8    1.761567 S    
P1    O2    1.550610 S    
O10   C8    1.405563 S    
C17   H48   1.073082 S    
C17   C38   1.385947 A    
C4    O15   1.397301 S    
C58   H60   1.100226 S    
P4    Ba2   3.366797 S    
P2    O20   1.592967 S    
P4    O12   1.536308 D    
C34   C42   1.320488 D    
C29   C30   1.421769 A    
C45   C56   1.393653 A    
N1    C20   1.390355 Am   
P8    C33   1.885081 S    
C23   H44   1.083166 S    
C19   O25   1.221921 D    
O3    Ba1   2.791731 S    
C14   H32   1.111014 S    
C19   N1    1.389765 Am   
C9    H21   1.109709 S    
C18   C22   1.409842 A    
C58   C59   1.552318 S    
C15   C16   1.520388 S    
C48   C50   1.437687 A    
C55   C58   1.489435 S    
P3    O11   1.748425 S    
C8    H18   1.098489 S    
C11   O22   1.402120 S    
C37   H43   1.082013 S    
C1    H3    1.110743 S    
C9    H20   1.110766 S    
P5    C46   1.847049 S    
C13   C14   1.518980 S    
C3    H7    1.110779 S    
P1    Ba1   3.366283 S    
C7    H16   1.105399 S    
O2    Ba2   2.794298 S    
Ba1   O16   2.823388 S    
C59   H56   1.106853 S    
C15   O24   1.404105 S    
C34   C35   1.335377 D    
C47   C48   1.420708 A    
C43   C51   1.414069 A    
P4    C34   1.844299 S    
C44   C55   1.399074 A    
C7    H15   1.110668 S    
O19   C13   1.402621 S    
C42   H49   1.086069 S    
C3    H6    1.110733 S    
O14   Ba2   2.791100 S    
C5    H12   1.108955 S    
C50   C54   1.423268 A    
O7    Ba1   2.884744 S    
C46   C47   1.400304 A    
O8    Ba1   2.751922 S    
C40   C41   1.424134 A    
O5    C6    1.395151 S    
C4    H9    1.094620 S    
C27   C28   1.401473 A    
C21   C22   1.409072 A    
P3    O8    1.764298 S    
P2    O7    1.508987 D    
Ba1   O20   2.910994 S    
C12   C57   1.505351 S    
N2    C31   1.391856 Am   
C31   O28   1.220430 D    
C35   H45   1.085184 S    
C8    H19   1.096477 S    
C40   H47   1.081753 S    
P3    C43   1.876108 S    
C6    H13   1.102559 S    
P1    C39   1.868048 S    
C57   O29   1.221147 D    
O2    Ba1   2.937152 S    
C9    H22   1.109484 S    
Ba1   O13   2.793704 S    
C48   C49   1.430853 A    
C44   C54   1.402216 A    
C11   H25   1.111852 S    
C58   H59   1.091510 S    
C45   H52   1.082308 S    
P3    O9    1.544965 D    
O3    P6    1.773318 S    
C25   C26   1.408443 A    
C16   H39   1.110228 S    
C52   C53   1.379078 A    
C32   C36   1.365373 D    
C1    C10   1.520542 S    
C51   C52   1.399420 A    
C26   C29   1.409049 A    
C15   H36   1.111213 S    
P5    O19   1.747314 S    
N2    C41   1.472173 S    
O17   Ba2   2.752468 S    
