data_mof_unit_20374.cif
_audit_creation_date              2012-10-26T18:52:12-0400
_audit_creation_method            fapswitch 2.2
_symmetry_space_group_name_H-M    P1
_symmetry_Int_Tables_number       1
_space_group_crystal_system       triclinic
_cell_length_a                    13.837497
_cell_length_b                    14.749754
_cell_length_c                    14.501459
_cell_angle_alpha                 114.849344
_cell_angle_beta                  106.68615
_cell_angle_gamma                 72.169302
_cell_volume                      2513.33098169

loop_
_atom_site_label
_atom_site_type_symbol
_atom_type_description
_atom_site_fract_x
_atom_site_fract_y
_atom_site_fract_z
_atom_type_partial_charge
C1    C     C_R   0.522849 0.117619 0.688953 0.545179
C2    C     C_R   0.458188 0.503822 0.867834 -0.145792
C3    C     C_R   0.625436 0.388998 0.102109 -0.139813
C4    C     C_R   0.436789 0.608024 0.889066 -0.137422
C5    C     C_R   0.291293 0.327281 0.381302 -0.046082
C6    C     C_R   0.708835 0.669995 0.614194 -0.045050
C7    C     C_R   0.334878 0.231583 0.389734 0.055737
C8    C     C_R   0.665907 0.766257 0.607123 0.035078
C9    C     C_R   0.495909 0.277888 0.474847 0.022127
C10   C     C_R   0.502590 0.723529 0.527431 0.020414
C11   C     C_R   0.458689 0.375600 0.465125 -0.012746
C12   C     C_R   0.483367 0.881752 0.310241 0.542149
C13   C     C_R   0.539427 0.624964 0.535488 -0.006262
C14   C     C_R   0.353137 0.400936 0.420756 0.026175
C15   C     C_R   0.645600 0.598073 0.577256 0.031642
C16   C     C_R   0.687235 0.986841 0.504429 0.544634
C17   C     C_R   0.312766 0.013188 0.495633 0.549636
C18   C     C_R   0.521249 0.450068 0.501812 0.025263
C19   C     C_R   0.476415 0.550633 0.498823 0.027906
C20   C     C_R   0.369999 0.573589 0.459764 -0.145695
C21   C     C_R   0.627789 0.426286 0.539366 -0.148003
C22   C     C_R   0.310438 0.500420 0.420797 -0.135719
C23   C     C_R   0.534208 0.356807 0.925145 0.015119
C24   C     C_R   0.687916 0.498377 0.576547 -0.133126
C25   C     C_1   0.206791 0.019878 0.490936 -0.034678
C26   C     C_1   0.793220 0.980335 0.509491 -0.036134
C27   C     C_2   0.011710 0.028958 0.481726 -0.124588
C28   C     C_2   0.988331 0.971624 0.519348 -0.126521
C29   C     C_1   0.882473 0.975560 0.514263 -0.068179
C30   C     C_1   0.117560 0.024832 0.486518 -0.063922
C31   C     C_R   0.549640 0.182401 0.798549 -0.029005
C32   C     C_R   0.474304 0.815706 0.198570 -0.034191
C33   C     C_R   0.652408 0.214972 0.972974 -0.018967
C34   C     C_R   0.490664 0.640133 0.072694 0.013793
C35   C     C_R   0.433731 0.784224 0.012784 -0.021671
C36   C     C_R   0.629356 0.147007 0.869819 -0.030923
C37   C     C_R   0.446833 0.853489 0.116768 -0.035703
C38   C     C_R   0.501689 0.285845 0.828208 -0.155072
C39   C     C_R   0.494450 0.710287 0.174512 -0.158042
C40   C     C_R   0.180094 0.348763 0.335482 0.002495
C41   C     C_R   0.148193 0.368787 0.243519 -0.112863
C42   C     C_R   0.043093 0.389789 0.201454 -0.122539
C43   C     C_R   0.969270 0.390976 0.250796 -0.105908
C44   C     C_R   0.000455 0.370125 0.341748 -0.110755
C45   C     C_R   0.603193 0.319720 0.001002 0.027970
C46   C     C_R   0.105475 0.348674 0.383835 -0.106583
C47   C     C_R   0.821503 0.644261 0.652296 0.007404
C48   C     C_R   0.891594 0.640108 0.596397 -0.104132
C49   C     C_R   0.997939 0.613528 0.630524 -0.121238
C50   C     C_R   0.034979 0.591548 0.720870 -0.113534
C51   C     C_R   0.965717 0.596211 0.777289 -0.123641
C52   C     C_R   0.859287 0.622564 0.743318 -0.114856
C53   C     C_R   0.431494 0.964006 0.137328 0.063049
C54   C     C_R   0.332671 0.020945 0.112435 -0.082841
C55   C     C_R   0.319043 0.123701 0.127336 -0.119492
C56   C     C_R   0.452792 0.677846 0.991062 0.029320
C57   C     C_R   0.403307 0.171130 0.170007 -0.101466
C58   C     C_R   0.501265 0.115778 0.197789 -0.103060
C59   C     C_R   0.516085 0.011866 0.179016 -0.058409
C60   C     C_R   0.701300 0.046589 0.835274 0.060836
C61   C     C_R   0.706540 0.970058 0.871086 -0.083823
C62   C     C_R   0.789981 0.886275 0.859242 -0.117705
C63   C     C_R   0.867547 0.877612 0.810073 -0.114744
C64   C     C_R   0.860178 0.950940 0.769816 -0.125373
C65   C     C_R   0.777487 0.035446 0.782615 -0.079710
C66   C     C_R   0.736753 0.178571 0.047789 0.031394
C67   C     C_R   0.502394 0.463925 0.947252 0.037334
C68   C     C_R   0.715594 0.133801 0.105936 -0.107096
C69   C     C_R   0.794786 0.098779 0.175994 -0.119276
C70   C     C_R   0.895671 0.107982 0.187853 -0.102715
C71   C     C_R   0.917395 0.151936 0.129437 -0.107147
C72   C     C_R   0.838123 0.187605 0.059797 -0.091684
C73   C     C_R   0.406324 0.822391 0.926591 0.030453
C74   C     C_R   0.303668 0.838385 0.874534 -0.107934
C75   C     C_R   0.278911 0.869827 0.790467 -0.119255
C76   C     C_R   0.356452 0.884758 0.757540 -0.097336
C77   C     C_R   0.458799 0.868720 0.808910 -0.106668
C78   C     C_R   0.524022 0.532930 0.050404 0.037568
C79   C     C_R   0.483829 0.837929 0.893466 -0.095302
C80   C     C_R   0.584996 0.492933 0.126861 -0.144720
Cu1   Cu    Cu3+1 0.526370 0.916390 0.524860 0.917918
Cu2   Cu    Cu3+1 0.473630 0.083610 0.475140 0.926779
H1    H     H_    0.048334 0.921758 0.554106 0.123301
H2    H     H_    0.446437 0.455666 0.787089 0.111741
H3    H     H_    0.229162 0.523944 0.392445 0.126301
H4    H     H_    0.769419 0.473524 0.602778 0.127224
H5    H     H_    0.425743 0.746043 0.488533 0.122069
H6    H     H_    0.571647 0.257024 0.516759 0.122416
H7    H     H_    0.714698 0.820155 0.632837 0.158849
H8    H     H_    0.287618 0.175494 0.360414 0.138291
H9    H     H_    0.204642 0.368519 0.204835 0.101822
H10   H     H_    0.018850 0.405333 0.130684 0.104893
H11   H     H_    0.887952 0.407351 0.218183 0.111564
H12   H     H_    0.951693 0.078784 0.446926 0.126267
H13   H     H_    0.943245 0.370562 0.379614 0.114727
H14   H     H_    0.128641 0.333066 0.454605 0.109644
H15   H     H_    0.863813 0.656486 0.525999 0.111192
H16   H     H_    0.051620 0.609855 0.586874 0.112729
H17   H     H_    0.117320 0.571109 0.747255 0.110914
H18   H     H_    0.994501 0.579438 0.847371 0.107771
H19   H     H_    0.806299 0.625868 0.787546 0.104775
H20   H     H_    0.266514 0.985484 0.080725 0.099023
H21   H     H_    0.242943 0.166735 0.106763 0.107766
H22   H     H_    0.392401 0.251223 0.183339 0.112027
H23   H     H_    0.329643 0.648422 0.458927 0.094422
H24   H     H_    0.565629 0.153578 0.234252 0.098799
H25   H     H_    0.592794 0.969199 0.198856 0.095476
H26   H     H_    0.649123 0.978145 0.912939 0.098043
H27   H     H_    0.795513 0.829256 0.890084 0.107843
H28   H     H_    0.933361 0.814122 0.803019 0.136412
H29   H     H_    0.919945 0.943693 0.731153 0.108647
H30   H     H_    0.775388 0.094597 0.755938 0.096347
H31   H     H_    0.638054 0.124922 0.095306 0.103897
H32   H     H_    0.778049 0.064106 0.220659 0.101241
H33   H     H_    0.957020 0.080781 0.242010 0.108333
H34   H     H_    0.668208 0.351122 0.539132 0.094052
H35   H     H_    0.995604 0.158619 0.138350 0.117624
H36   H     H_    0.855565 0.221755 0.015018 0.103841
H37   H     H_    0.243289 0.825748 0.898652 0.099806
H38   H     H_    0.199729 0.881941 0.750401 0.100080
H39   H     H_    0.337307 0.908381 0.692010 0.129426
H40   H     H_    0.518702 0.879473 0.782631 0.128074
H41   H     H_    0.563480 0.825000 0.932289 0.098111
H42   H     H_    0.675892 0.363782 0.163165 0.122567
H43   H     H_    0.407546 0.632952 0.823981 0.130503
H44   H     H_    0.510389 0.683394 0.236973 0.134559
H45   H     H_    0.439238 0.310292 0.773304 0.125361
H46   H     H_    0.610094 0.540738 0.205406 0.107289
N1    N     N_R   0.433980 0.209250 0.437830 -0.237434
N2    N     N_R   0.566020 0.790750 0.562170 -0.249520
O1    O     O_R   0.534760 0.019630 0.662610 -0.489085
O2    O     O_R   0.465240 0.980370 0.337390 -0.483082
O3    O     O_R   0.490220 0.160840 0.620610 -0.500010
O4    O     O_R   0.509780 0.839160 0.379390 -0.498880
O5    O     O_R   0.663260 0.919400 0.523940 -0.504170
O6    O     O_R   0.336740 0.080600 0.476060 -0.505762
O7    O     O_R   0.618720 0.060610 0.481950 -0.503843
O8    O     O_R   0.381280 0.939390 0.518050 -0.506537

loop_
_geom_bond_atom_site_label_1
_geom_bond_atom_site_label_2
_ccdc_geom_bond_type
C66   C68   A    
C11   C18   A    
C34   C56   A    
C23   C45   A    
C18   C21   A    
C33   C45   A    
C41   C42   A    
C2    H2    S    
C16   O7    A    
C43   C44   A    
Cu1   Cu2   S    
C53   C59   A    
Cu1   O4    S    
C53   C54   A    
C40   C46   A    
C48   H15   S    
C50   H17   S    
C4    H43   S    
C76   H39   S    
C28   C29   S    
C35   C37   A    
Cu2   O7    S    
C9    H6    S    
C11   C14   A    
C78   C80   A    
Cu1   O1    S    
C55   H21   S    
C1    C31   S    
C33   C36   A    
C18   C19   A    
C73   C74   A    
C22   H3    S    
C23   C67   A    
C61   H26   S    
C77   H40   S    
C49   H16   S    
C66   C72   A    
C19   C20   A    
C68   C69   A    
Cu1   O5    S    
C17   O8    A    
C35   C73   S    
C68   H31   S    
C37   C53   S    
C6    C15   A    
C39   H44   S    
C12   O4    A    
C12   C32   S    
C28   H1    S    
C61   C62   A    
C67   C78   A    
C21   H34   S    
C1    O3    A    
C3    C80   A    
C44   C46   A    
C33   C66   S    
C38   H45   S    
C77   C79   A    
C16   C26   S    
Cu1   O8    S    
C69   H32   S    
C10   H5    S    
C6    C47   S    
C71   H35   S    
C34   C39   A    
C76   C77   A    
C2    C67   A    
C74   C75   A    
C5    C7    A    
C13   C19   A    
C64   H29   S    
C6    C8    A    
C80   H46   S    
C1    O1    A    
C58   C59   A    
C7    H8    S    
C79   H41   S    
C3    C45   A    
C59   H25   S    
C51   C52   A    
C60   C61   A    
C58   H24   S    
C2    C4    A    
C75   C76   A    
C10   N2    A    
C65   H30   S    
C62   C63   A    
C74   H37   S    
C47   C48   A    
C17   O6    A    
C50   C51   A    
C73   C79   A    
C32   C37   A    
Cu2   N1    S    
C9    C11   A    
C5    C14   A    
C70   C71   A    
C52   H19   S    
C15   C24   A    
C41   H9    S    
C20   C22   A    
C60   C65   A    
C55   C57   A    
C8    N2    A    
C21   C24   A    
C42   C43   A    
Cu2   O2    S    
C3    H42   S    
C20   H23   S    
C25   C30   T    
C57   H22   S    
C54   C55   A    
C48   C49   A    
C12   O2    A    
C35   C56   A    
C54   H20   S    
C75   H38   S    
C36   C60   S    
C10   C13   A    
C47   C52   A    
C9    N1    A    
C70   H33   S    
C23   C38   A    
C31   C38   A    
C51   H18   S    
C17   C25   S    
C64   C65   A    
C14   C22   A    
C63   H28   S    
C13   C15   A    
C71   C72   A    
C44   H13   S    
C34   C78   A    
C57   C58   A    
C62   H27   S    
Cu2   O3    S    
C43   H11   S    
C42   H10   S    
Cu2   O6    S    
C69   C70   A    
C7    N1    A    
Cu1   N2    S    
C63   C64   A    
C46   H14   S    
C26   C29   T    
C49   C50   A    
C5    C40   S    
C72   H36   S    
C27   C28   D    
C32   C39   A    
C31   C36   A    
C27   H12   S    
C40   C41   A    
C8    H7    S    
C16   O5    A    
C24   H4    S    
C4    C56   A    
C27   C30   S    
