data_mof_unit_39262.cif
_audit_creation_date              2012-12-11T15:50:38-0500
_audit_creation_method            fapswitch 2.2
_symmetry_space_group_name_H-M    P1
_symmetry_Int_Tables_number       1
_space_group_crystal_system       triclinic
_cell_length_a                    19.221123
_cell_length_b                    11.430887
_cell_length_c                    18.906359
_cell_angle_alpha                 90.243422
_cell_angle_beta                  91.386753
_cell_angle_gamma                 89.590832
_cell_volume                      4152.64386878

loop_
_atom_site_label
_atom_site_type_symbol
_atom_type_description
_atom_site_fract_x
_atom_site_fract_y
_atom_site_fract_z
_atom_type_partial_charge
C1    C     C_R   0.274776 0.034684 0.855369 0.546641
C2    C     C_R   0.759318 0.560653 0.928478 0.011680
C3    C     C_R   0.227155 0.541356 0.355206 0.570495
C4    C     C_R   0.466757 0.825096 0.646711 0.569146
C5    C     C_R   0.533034 0.825219 0.353148 0.565374
C6    C     C_R   0.966774 0.325099 0.646722 0.567805
C7    C     C_R   0.033044 0.325220 0.353156 0.566300
C8    C     C_R   0.259448 0.637161 0.644738 0.543900
C9    C     C_R   0.740361 0.638522 0.355632 0.546273
C10   C     C_R   0.759453 0.137177 0.644729 0.549039
C11   C     C_R   0.240360 0.138527 0.355637 0.545534
C12   C     C_3   0.469496 0.943088 0.031818 -0.149272
C13   C     C_R   0.731049 0.033983 0.064500 -0.000207
C14   C     C_3   0.523090 0.942505 0.970901 -0.149930
C15   C     C_3   0.976903 0.444997 0.030122 -0.151174
C16   C     C_3   0.030786 0.439834 0.969604 -0.152780
C17   C     C_3   0.427177 0.847909 0.991270 -0.095292
C18   C     C_3   0.565962 0.847463 0.010752 -0.094123
C19   C     C_3   0.932619 0.352649 0.989940 -0.087346
C20   C     C_3   0.070943 0.342423 0.010532 -0.105975
C21   C     C_3   0.482327 0.843821 0.932831 0.054562
C22   C     C_3   0.511050 0.844043 0.069433 0.052581
C23   C     C_3   0.987854 0.343858 0.931555 0.053129
C24   C     C_R   0.259040 0.060748 0.928543 0.005277
C25   C     C_3   0.015530 0.343390 0.068379 0.050291
C26   C     C_2   0.502589 0.070329 0.574571 0.602476
C27   C     C_2   0.493705 0.064203 0.422036 0.621350
C28   C     C_2   0.002632 0.570351 0.574606 0.601598
C29   C     C_2   0.993735 0.564219 0.422071 0.621632
C30   C     C_2   0.460595 0.563964 0.406893 0.567866
C31   C     C_2   0.539902 0.565189 0.591983 0.568641
C32   C     C_2   0.960608 0.063992 0.406971 0.568097
C33   C     C_2   0.039967 0.065191 0.592038 0.568304
C34   C     C_2   0.417321 0.515790 0.921055 0.628399
C35   C     C_R   0.286862 0.485868 0.025939 -0.047381
C36   C     C_2   0.583566 0.523211 0.071931 0.628562
C37   C     C_2   0.913161 0.037463 0.928215 0.623474
C38   C     C_2   0.083339 0.001980 0.070687 0.636222
C39   C     C_3   0.369640 0.336015 0.823634 -0.231046
C40   C     C_3   0.629474 0.333956 0.159802 -0.236542
C41   C     C_3   0.907794 0.824995 0.846200 -0.257543
C42   C     C_3   0.147598 0.821243 0.154832 -0.231804
C43   C     C_R   0.715474 0.489809 0.969243 -0.044793
C44   C     C_R   0.777388 0.966007 0.021903 -0.037438
C45   C     C_R   0.219710 0.984107 0.970127 -0.036056
C46   C     C_R   0.292956 0.513598 0.955960 0.022847
C47   C     C_R   0.710279 0.510280 0.041164 -0.000285
C48   C     C_R   0.785235 0.999712 0.951482 0.000312
C49   C     C_R   0.715389 0.009686 0.137939 0.546327
C50   C     C_R   0.215115 0.000548 0.042790 -0.010480
C51   C     C_R   0.187011 0.620156 0.956275 -0.164049
C52   C     C_R   0.795467 0.661215 0.035289 -0.159582
C53   C     C_R   0.704885 0.156900 0.965939 -0.157763
C54   C     C_R   0.280536 0.174583 0.032581 -0.162463
C55   C     C_R   0.175873 0.585303 0.024816 -0.178271
C56   C     C_R   0.807191 0.632280 0.966330 -0.164656
C57   C     C_R   0.685671 0.111077 0.029124 -0.176444
C58   C     C_R   0.300273 0.140365 0.966128 -0.176006
C59   C     C_3   0.358423 0.426350 0.021876 -0.226152
C60   C     C_R   0.774386 0.535018 0.855041 0.547097
C61   C     C_3   0.640774 0.448445 0.966376 -0.207691
C62   C     C_3   0.856872 0.941071 0.024402 -0.202616
C63   C     C_3   0.144940 0.946248 0.963428 -0.191753
C64   C     C_3   0.357140 0.446286 0.941280 0.184327
C65   C     C_3   0.642270 0.452104 0.048213 0.187676
C66   C     C_3   0.857642 0.955520 0.944133 0.188594
C67   C     C_3   0.145790 0.940023 0.045288 0.182735
C68   C     C_R   0.246563 0.584763 0.919229 0.016529
C69   C     C_R   0.746975 0.600343 0.075597 0.027130
C70   C     C_R   0.751558 0.099219 0.923508 0.029030
C71   C     C_R   0.214049 0.506141 0.138459 0.546389
C72   C     C_R   0.244604 0.100833 0.075666 0.026862
C73   C     C_R   0.510908 0.841292 0.425681 -0.015708
C74   C     C_R   0.488306 0.842319 0.573831 -0.014165
C75   C     C_R   0.010962 0.341297 0.425708 -0.016040
C76   C     C_R   0.988372 0.342333 0.573862 -0.014203
C77   C     C_R   0.465124 0.823389 0.857189 0.565190
C78   C     C_R   0.531990 0.823754 0.144544 0.563107
C79   C     C_R   0.967686 0.323614 0.856187 0.563410
C80   C     C_R   0.033765 0.323439 0.143793 0.558963
C81   C     C_R   0.507426 0.742490 0.465637 -0.023378
C82   C     C_3   0.524061 0.751820 0.971671 -0.020419
C83   C     C_R   0.491336 0.743027 0.533630 -0.025833
C84   C     C_R   0.007533 0.242498 0.465678 -0.023832
C85   C     C_R   0.991457 0.243041 0.533673 -0.025607
C86   C     C_R   0.495210 0.953149 0.537715 0.001588
C87   C     C_R   0.503133 0.951623 0.461407 0.006914
C88   C     C_R   0.995267 0.453163 0.537747 0.001755
C89   C     C_R   0.003184 0.451634 0.461435 0.006869
C90   C     C_3   0.511485 0.612606 0.460714 -0.049764
C91   C     C_3   0.488738 0.613010 0.538202 -0.050105
C92   C     C_3   0.011539 0.112604 0.460759 -0.049841
C93   C     C_3   0.469280 0.751965 0.030657 -0.027005
C94   C     C_3   0.988812 0.113035 0.538254 -0.049410
C95   C     C_R   0.240344 0.571248 0.428344 0.020638
C96   C     C_R   0.758750 0.571257 0.572122 0.024487
C97   C     C_R   0.740348 0.071264 0.428336 0.020775
C98   C     C_R   0.258737 0.071281 0.572134 0.024773
C99   C     C_R   0.185450 0.621663 0.464295 0.086774
C100  C     C_R   0.812554 0.623566 0.536893 0.074554
C101  C     C_R   0.685456 0.121686 0.464287 0.087041
C102  C     C_R   0.312533 0.123615 0.536912 0.075123
C103  C     C_R   0.190386 0.634181 0.536579 0.084659
C104  C     C_3   0.027262 0.249571 0.971391 -0.025099
C105  C     C_R   0.807484 0.637748 0.465041 0.102734
C106  C     C_R   0.690390 0.134197 0.536571 0.084655
C107  C     C_R   0.307474 0.137784 0.465059 0.102908
C108  C     C_R   0.298371 0.528188 0.540326 -0.190246
C109  C     C_R   0.702147 0.527855 0.459274 -0.190833
C110  C     C_R   0.798384 0.028216 0.540311 -0.190292
C111  C     C_R   0.202159 0.027839 0.459277 -0.191070
C112  C     C_R   0.297204 0.525771 0.466631 -0.156580
C113  C     C_R   0.703091 0.523797 0.533033 -0.153963
C114  C     C_R   0.797207 0.025778 0.466618 -0.156990
C115  C     C_3   0.972191 0.253739 0.029777 -0.017776
C116  C     C_R   0.203094 0.023786 0.533037 -0.153773
C117  C     C_3   0.162152 0.744951 0.453759 -0.248471
C118  C     C_3   0.835464 0.746091 0.549154 -0.257773
C119  C     C_3   0.662157 0.244975 0.453755 -0.248781
C120  C     C_3   0.335419 0.246147 0.549181 -0.259068
C121  C     C_3   0.174187 0.761169 0.531290 -0.239771
C122  C     C_3   0.823609 0.764117 0.471556 -0.239095
C123  C     C_3   0.674178 0.261181 0.531289 -0.240078
C124  C     C_3   0.323591 0.264153 0.471575 -0.238349
C125  C     C_R   0.261337 0.640243 0.852076 0.558526
C126  C     C_R   0.228116 0.526618 0.063973 -0.001447
C127  C     C_R   0.737536 0.642157 0.147281 0.552415
C128  C     C_R   0.765737 0.153704 0.857107 0.567974
C129  C     C_R   0.237306 0.141271 0.147802 0.542043
C130  C     C_R   0.245965 0.587331 0.575675 0.008618
C131  C     C_R   0.753295 0.590042 0.424974 0.015887
C132  C     C_R   0.745975 0.087356 0.575663 0.008746
C133  C     C_R   0.253297 0.090056 0.424983 0.015505
C134  C     C_R   0.272570 0.041196 0.645028 0.562021
C135  C     C_R   0.727156 0.041360 0.355203 0.570870
C136  C     C_R   0.772577 0.541179 0.645019 0.565485
Cr1   Cr    Cr6+3 0.229640 0.835880 0.747370 1.014891
Cr2   Cr    Cr6+3 0.614230 0.677220 0.250660 1.040337
Cr3   Cr    Cr6+3 0.885770 0.177220 0.749340 1.040544
Cr4   Cr    Cr6+3 0.114230 0.177220 0.250660 1.044339
Cr5   Cr    Cr6+3 0.770360 0.835880 0.252630 1.027724
Cr6   Cr    Cr6+3 0.729640 0.335880 0.747370 1.025396
Cr7   Cr    Cr6+3 0.270360 0.335880 0.252630 1.026221
Cr8   Cr    Cr6+3 0.387390 0.989720 0.750850 1.039948
Cr9   Cr    Cr6+3 0.612610 0.989720 0.249150 1.033496
Cr10  Cr    Cr6+3 0.887390 0.489720 0.750850 1.032082
Cr11  Cr    Cr6+3 0.112610 0.489720 0.249150 1.032086
Cr12  Cr    Cr6+3 0.385770 0.677220 0.749340 1.043302
H1    H     H_    0.369726 0.849030 0.984941 0.130472
H2    H     H_    0.659567 0.489219 0.429478 0.137387
H3    H     H_    0.841806 0.990473 0.569451 0.139739
H4    H     H_    0.159593 0.989177 0.429475 0.137703
H5    H     H_    0.338730 0.483167 0.439695 0.172601
H6    H     H_    0.662085 0.480265 0.559331 0.171684
H7    H     H_    0.838728 0.983162 0.439681 0.172526
H8    H     H_    0.162093 0.980235 0.559330 0.172002
H9    H     H_    0.106311 0.755295 0.439472 0.216185
H10   H     H_    0.891232 0.753395 0.564406 0.206281
H11   H     H_    0.606319 0.255327 0.439460 0.215952
H12   H     H_    0.623380 0.848049 0.016924 0.132936
H13   H     H_    0.391179 0.253486 0.564454 0.205859
H14   H     H_    0.197782 0.795081 0.420381 0.126777
H15   H     H_    0.799512 0.796355 0.582992 0.131673
H16   H     H_    0.697792 0.295113 0.420386 0.126725
H17   H     H_    0.299447 0.296386 0.583012 0.128499
H18   H     H_    0.222328 0.810365 0.543543 0.139898
H19   H     H_    0.775448 0.814186 0.459317 0.137088
H20   H     H_    0.722312 0.310387 0.543554 0.139095
H21   H     H_    0.275430 0.314206 0.459310 0.137089
H22   H     H_    0.127725 0.789801 0.560776 0.216032
H23   H     H_    0.875328 0.359370 0.983303 0.134969
H24   H     H_    0.870625 0.791875 0.443230 0.215651
H25   H     H_    0.627707 0.289791 0.560768 0.216120
H26   H     H_    0.370621 0.291900 0.443266 0.215602
H27   H     H_    0.449308 0.023086 0.058266 0.134649
H28   H     H_    0.542939 0.021747 0.944336 0.137366
H29   H     H_    0.958536 0.526720 0.055997 0.133853
H30   H     H_    0.052432 0.517097 0.942538 0.129720
H31   H     H_    0.545867 0.675706 0.943369 0.138982
H32   H     H_    0.445608 0.676786 0.057189 0.138027
H33   H     H_    0.052227 0.175765 0.944953 0.139911
H34   H     H_    0.128246 0.337668 0.017621 0.123851
H35   H     H_    0.948535 0.179134 0.057168 0.143730
H36   H     H_    0.156557 0.700958 0.937170 0.146760
H37   H     H_    0.820081 0.736506 0.058731 0.155449
H38   H     H_    0.692412 0.245887 0.952767 0.145121
H39   H     H_    0.282438 0.263548 0.049386 0.145296
H40   H     H_    0.129314 0.618358 0.049870 0.185405
H41   H     H_    0.854316 0.662836 0.943679 0.190014
H42   H     H_    0.640401 0.146668 0.054222 0.191696
H43   H     H_    0.347633 0.172706 0.945331 0.194823
H44   H     H_    0.888178 0.859832 0.037910 0.144384
H45   H     H_    0.065402 0.083388 0.452900 0.118831
H46   H     H_    0.126065 0.872400 0.930252 0.132548
H47   H     H_    0.373198 0.335946 0.036048 0.134830
H48   H     H_    0.619750 0.367091 0.941688 0.144882
H49   H     H_    0.396639 0.482745 0.051188 0.142695
H50   H     H_    0.609271 0.519536 0.941482 0.114063
H51   H     H_    0.882212 0.014520 0.055283 0.109737
H52   H     H_    0.113898 0.021733 0.941660 0.121466
H53   H     H_    0.474928 0.186285 0.650000 0.323352
H54   H     H_    0.527736 0.182986 0.352354 0.326315
H55   H     H_    0.974990 0.686288 0.650057 0.321525
H56   H     H_    0.935165 0.083314 0.545932 0.118338
H57   H     H_    0.027709 0.683000 0.352359 0.327169
H58   H     H_    0.438293 0.432998 0.338915 0.333743
H59   H     H_    0.562042 0.437482 0.662076 0.332421
H60   H     H_    0.938182 0.932952 0.339087 0.333892
H61   H     H_    0.062087 0.937469 0.662125 0.329137
H62   H     H_    0.510265 0.525256 0.873545 0.323239
H63   H     H_    0.491356 0.529531 0.120631 0.323720
H64   H     H_    0.005963 0.043410 0.880569 0.317035
H65   H     H_    0.988577 0.991744 0.114196 0.318202
H66   H     H_    0.284978 0.327550 0.892262 0.242542
H67   H     H_    0.565365 0.583454 0.452871 0.118813
H68   H     H_    0.334937 0.283588 0.787669 0.149530
H69   H     H_    0.420713 0.288187 0.829638 0.189899
H70   H     H_    0.376594 0.421872 0.797433 0.169205
H71   H     H_    0.704198 0.311008 0.083469 0.245467
H72   H     H_    0.667631 0.284230 0.193256 0.156703
H73   H     H_    0.578515 0.287266 0.159678 0.187204
H74   H     H_    0.624382 0.420552 0.185840 0.166882
H75   H     H_    0.804369 0.830106 0.878168 0.250517
H76   H     H_    0.889477 0.756857 0.808168 0.160680
H77   H     H_    0.956548 0.790940 0.873211 0.181015
H78   H     H_    0.435104 0.583229 0.545862 0.118421
H79   H     H_    0.917575 0.903639 0.813167 0.156841
H80   H     H_    0.204386 0.787548 0.064450 0.250109
H81   H     H_    0.193931 0.781570 0.181817 0.155578
H82   H     H_    0.100306 0.769484 0.165797 0.195829
H83   H     H_    0.141600 0.909203 0.179117 0.153513
H84   H     H_    0.341784 0.490431 0.569474 0.138886
N1    N     N_2   0.337646 0.349649 0.893320 -0.546458
N2    N     N_2   0.653628 0.342790 0.086711 -0.539769
N3    N     N_2   0.854208 0.849480 0.898835 -0.540253
N4    N     N_2   0.157209 0.825413 0.077755 -0.526529
O1    O     O_R   0.214300 0.709080 0.827500 -0.539010
O2    O     O_R   0.543340 0.717710 0.330180 -0.495163
O3    O     O_R   0.956660 0.217710 0.669820 -0.497759
O4    O     O_R   0.043340 0.217710 0.330180 -0.493702
O5    O     O_R   0.320590 0.625770 0.672930 -0.520673
O6    O     O_R   0.679410 0.625770 0.327070 -0.520653
O7    O     O_R   0.820590 0.125770 0.672930 -0.515429
O8    O     O_R   0.179410 0.125770 0.327070 -0.519403
O9    O     O_3   0.334270 0.834280 0.749190 -0.288455
O10   O     O_3   0.665730 0.834280 0.250810 -0.297469
O11   O     O_3   0.834270 0.334280 0.749190 -0.290654
O12   O     O_R   0.785700 0.709080 0.172500 -0.537286
O13   O     O_3   0.165730 0.334280 0.250810 -0.302252
O14   O     O_R   0.236190 0.958390 0.823150 -0.505554
O15   O     O_R   0.763810 0.958390 0.176850 -0.496170
O16   O     O_R   0.736190 0.458390 0.823150 -0.505582
O17   O     O_R   0.263810 0.458390 0.176850 -0.497321
O18   O     O_R   0.332090 0.075280 0.831290 -0.535222
O19   O     O_R   0.667910 0.075280 0.168710 -0.539592
O20   O     O_R   0.832090 0.575280 0.831290 -0.543312
O21   O     O_R   0.167910 0.575280 0.168710 -0.541871
O22   O     O_R   0.446280 0.918040 0.826620 -0.512575
O23   O     O_R   0.714300 0.209080 0.827500 -0.530399
O24   O     O_R   0.553720 0.918040 0.173380 -0.523155
O25   O     O_R   0.946280 0.418040 0.826620 -0.513806
O26   O     O_R   0.053720 0.418040 0.173380 -0.526226
O27   O     O_R   0.457080 0.716270 0.831760 -0.484335
O28   O     O_R   0.542920 0.716270 0.168240 -0.480328
O29   O     O_R   0.957080 0.216270 0.831760 -0.496742
O30   O     O_R   0.042920 0.216270 0.168240 -0.469837
O31   O     O_R   0.320980 0.624440 0.823040 -0.484850
O32   O     O_R   0.679020 0.624440 0.176960 -0.487167
O33   O     O_R   0.820980 0.124440 0.823040 -0.477286
O34   O     O_R   0.285700 0.209080 0.172500 -0.530732
O35   O     O_R   0.179020 0.124440 0.176960 -0.491759
O36   O     O_R   0.213880 0.710510 0.665560 -0.521285
O37   O     O_R   0.786120 0.710510 0.334440 -0.512062
O38   O     O_R   0.713880 0.210510 0.665560 -0.519267
O39   O     O_R   0.286120 0.210510 0.334440 -0.512144
O40   O     O_R   0.235800 0.959720 0.673040 -0.512702
O41   O     O_R   0.764200 0.959720 0.326960 -0.509071
O42   O     O_R   0.735800 0.459720 0.673040 -0.512804
O43   O     O_R   0.264200 0.459720 0.326960 -0.508777
O44   O     O_R   0.331670 0.076720 0.669350 -0.485078
O45   O     O_R   0.445900 0.919370 0.676500 -0.457106
O46   O     O_R   0.668330 0.076720 0.330650 -0.479299
O47   O     O_R   0.831670 0.576720 0.669350 -0.481361
O48   O     O_R   0.168330 0.576720 0.330650 -0.478688
O49   O     O_2   0.544624 0.139090 0.552350 -0.542179
O50   O     O_R   0.460724 0.107471 0.629187 -0.645644
O51   O     O_2   0.442296 0.123070 0.432314 -0.542711
O52   O     O_R   0.543562 0.108528 0.377188 -0.645158
O53   O     O_2   0.044638 0.639143 0.552365 -0.542654
O54   O     O_R   0.960790 0.607469 0.629247 -0.646702
O55   O     O_2   0.942362 0.623133 0.432430 -0.542430
O56   O     O_R   0.554100 0.919370 0.323500 -0.465599
O57   O     O_R   0.043545 0.608520 0.377161 -0.644836
O58   O     O_2   0.412790 0.624661 0.382904 -0.523530
O59   O     O_R   0.472002 0.452355 0.379242 -0.718823
O60   O     O_2   0.588192 0.625453 0.614815 -0.526133
O61   O     O_R   0.528218 0.455718 0.621630 -0.717655
O62   O     O_2   0.912830 0.124740 0.382975 -0.522981
O63   O     O_R   0.971928 0.952319 0.379379 -0.717793
O64   O     O_2   0.088251 0.125447 0.614891 -0.528217
O65   O     O_R   0.028278 0.955709 0.621667 -0.719525
O66   O     O_2   0.412924 0.620264 0.931548 -0.552210
O67   O     O_R   0.945900 0.419370 0.676500 -0.458269
O68   O     O_R   0.478083 0.464417 0.893957 -0.719861
O69   O     O_2   0.590292 0.627439 0.067781 -0.550449
O70   O     O_R   0.522655 0.472207 0.095474 -0.718201
O71   O     O_2   0.899546 0.140764 0.932102 -0.552134
O72   O     O_R   0.981055 0.995930 0.917506 -0.723764
O73   O     O_2   0.083844 0.107449 0.069525 -0.545710
O74   O     O_R   0.025009 0.939785 0.091782 -0.696276
O75   O     O_R   0.054100 0.419370 0.323500 -0.464782
O76   O     O_R   0.456660 0.717710 0.669820 -0.495956

loop_
_geom_bond_atom_site_label_1
_geom_bond_atom_site_label_2
_ccdc_geom_bond_type
C99   C103  A    
Cr7   O34   S    
C39   H70   S    
C74   C83   A    
Cr3   O11   S    
C29   C89   S    
C102  C120  S    
C105  C131  A    
C1    O18   A    
C106  C132  A    
C121  H18   S    
Cr3   O33   S    
C14   C21   S    
C49   O19   A    
C95   C99   A    
C9    O6    A    
Cr4   O4    S    
Cr5   O12   S    
C50   C72   A    
C31   O61   S    
H63   O70   S    
C27   O52   S    
Cr7   O13   S    
Cr12  O76   S    
C42   H83   S    
C104  H33   S    
C135  O41   A    
C40   H72   S    
H71   N2    S    
C107  C124  S    
C73   C81   A    
C93   H32   S    
C30   O59   S    
C9    C131  S    
C5    O2    A    
C65   N2    S    
C22   C78   S    
C39   N1    S    
C59   H47   S    
C98   C102  A    
C117  H9    S    
Cr10  O11   S    
C17   C21   S    
C36   O69   D    
Cr4   O8    S    
C19   C23   S    
Cr2   O10   S    
C3    O43   A    
C55   C126  A    
C16   C20   S    
C92   C94   S    
C61   H48   S    
C81   C90   S    
C54   H39   S    
Cr5   O15   S    
C118  H10   S    
H66   N1    S    
C103  C121  S    
C31   O60   D    
C43   C61   S    
C122  H19   S    
C77   O27   A    
C78   O28   A    
C10   O7    A    
C48   C70   A    
C7    C75   S    
C119  C123  S    
C83   C91   S    
C40   H73   S    
Cr11  O48   S    
C32   C92   S    
C45   C50   A    
Cr12  O9    S    
C18   C82   S    
C51   C55   A    
Cr1   O1    S    
C103  C130  A    
C116  H8    S    
C42   H81   S    
C61   C65   S    
C38   C67   S    
C119  H11   S    
Cr8   O45   S    
C3    C95   S    
C127  O12   A    
C43   C47   A    
C76   C85   A    
C13   C44   A    
C44   C48   A    
C38   O74   S    
Cr5   O37   S    
C33   C94   S    
Cr1   O14   S    
H55   O54   S    
C80   O30   A    
Cr12  O31   S    
C9    O37   A    
C62   H51   S    
C75   C84   A    
C15   C25   S    
C13   C57   A    
C12   C22   S    
C60   O20   A    
C33   O65   S    
Cr10  O25   S    
C118  C122  S    
H64   O72   S    
C47   C69   A    
C73   C87   A    
C29   O55   D    
C71   C126  S    
C52   C69   A    
Cr3   O7    S    
C50   C67   S    
C110  C114  A    
C108  C130  A    
H54   O52   S    
C121  H22   S    
Cr3   O29   S    
Cr8   O9    S    
C125  O31   A    
C135  O46   A    
C81   C83   A    
C16   H30   S    
C4    O45   A    
C67   N4    S    
C62   C66   S    
C80   O26   A    
C26   O49   D    
C29   O57   S    
C32   O62   D    
C41   N3    S    
Cr8   O18   S    
C74   C86   A    
H61   O65   S    
C82   H31   S    
C136  O42   A    
C53   H38   S    
C46   C68   A    
Cr9   O56   S    
C99   C117  S    
Cr1   O9    S    
C34   C64   S    
C63   H46   S    
C102  C107  A    
C55   H40   S    
C88   C89   A    
C27   C87   S    
C92   H45   S    
C123  H20   S    
C3    O48   A    
Cr2   O28   S    
C16   C23   S    
C31   C91   S    
C15   H29   S    
C91   H78   S    
C37   O71   D    
Cr4   O30   S    
C17   C93   S    
C97   C135  S    
C108  H84   S    
C101  C106  A    
C18   C22   S    
C39   H69   S    
C119  H16   S    
C6    C76   S    
C117  H14   S    
C71   O21   A    
C6    O3    A    
Cr4   O35   S    
C66   N3    S    
C77   O22   A    
C134  O44   A    
C109  H2    S    
C8    O36   A    
C2    C56   A    
Cr10  O67   S    
C8    O5    A    
C96   C100  A    
C105  C122  S    
Cr6   O23   S    
C5    C73   S    
C10   C132  S    
C41   H76   S    
C18   H12   S    
C75   C89   A    
C27   O51   D    
C94   H56   S    
C7    O4    A    
C1    C24   S    
Cr6   O11   S    
Cr7   O17   S    
Cr11  O75   S    
C78   O24   A    
C84   C92   S    
C48   C66   S    
C97   C114  A    
C68   C125  S    
C25   C80   S    
C113  H6    S    
C30   C90   S    
C111  H4    S    
Cr6   O42   S    
C72   C129  S    
C96   C136  S    
C15   C19   S    
C28   O53   D    
C95   C112  A    
C2    C60   S    
C34   O68   S    
C20   C25   S    
C36   O70   S    
C63   H52   S    
C35   C59   S    
C71   O17   A    
C14   H28   S    
C129  O34   A    
C32   O63   S    
C124  H21   S    
C12   C17   S    
C109  C131  A    
C110  C132  A    
C111  C116  A    
C82   C93   S    
Cr7   O39   S    
C10   O38   A    
C53   C70   A    
C90   H67   S    
C123  H25   S    
C120  H17   S    
C41   H77   S    
C118  H15   S    
Cr6   O16   S    
C127  O32   A    
C128  O23   A    
C84   C85   A    
C40   N2    S    
C51   H36   S    
C53   C57   A    
C36   C65   S    
C108  C112  A    
C40   H74   S    
Cr11  O21   S    
H65   O74   S    
C104  C115  S    
C23   C104  S    
C7    O75   A    
C100  C105  A    
H58   O59   S    
C42   H82   S    
C110  H3    S    
C8    C130  S    
C79   O25   A    
C96   C113  A    
C100  C118  S    
C5    O56   A    
C114  H7    S    
C125  O1    A    
C30   O58   D    
Cr11  O13   S    
C86   C87   A    
C19   H23   S    
C61   H50   S    
C115  H35   S    
C34   O66   D    
Cr1   O40   S    
H59   O61   S    
C11   C133  S    
C107  C133  A    
C4    O76   A    
C90   C91   S    
Cr2   O32   S    
Cr5   O41   S    
C49   O15   A    
C64   N1    S    
C124  H26   S    
C69   C127  S    
C24   C58   A    
C58   H43   S    
Cr9   O19   S    
H60   O63   S    
C35   C46   A    
H53   O50   S    
C41   H79   S    
C134  O40   A    
C128  O33   A    
C14   C18   S    
C59   C64   S    
Cr9   O10   S    
C129  O35   A    
C24   C45   A    
H62   O68   S    
C26   O50   S    
C25   C115  S    
C15   C16   S    
C136  O47   A    
C117  C121  S    
C33   O64   D    
C42   N4    S    
C106  C123  S    
C28   C88   S    
Cr8   O22   S    
Cr6   O38   S    
C4    C74   S    
Cr2   O6    S    
C109  C113  A    
Cr9   O24   S    
C11   O8    A    
C38   O73   D    
Cr9   O46   S    
Cr1   O36   S    
C63   C67   S    
Cr3   O3    S    
C101  C119  S    
C1    O14   A    
C111  C133  A    
C62   H44   S    
C44   C62   S    
C45   C63   S    
C46   C64   S    
C35   C126  A    
C39   H68   S    
C85   C94   S    
C98   C116  A    
C19   C115  S    
C2    C43   A    
C26   C86   S    
C37   C66   S    
Cr7   O43   S    
Cr5   O10   S    
Cr8   O44   S    
C21   C82   S    
Cr11  O26   S    
C11   O39   A    
H75   N3    S    
C120  H13   S    
C12   H27   S    
C13   C49   S    
C12   C14   S    
C122  H24   S    
C112  H5    S    
Cr12  O5    S    
C22   C93   S    
C52   H37   S    
H57   O57   S    
C20   H34   S    
C54   C58   A    
C70   C128  S    
C76   C88   A    
C56   H41   S    
Cr10  O20   S    
C17   H1    S    
Cr4   O13   S    
C20   C104  S    
C98   C134  S    
C28   O54   S    
C57   H42   S    
C59   H49   S    
C79   O29   A    
Cr2   O2    S    
C51   C68   A    
Cr12  O27   S    
H80   N4    S    
C6    O67   A    
C120  C124  S    
C54   C72   A    
C21   C77   S    
C60   O16   A    
C37   O72   S    
C23   C79   S    
C47   C65   S    
C97   C101  A    
Cr10  O47   S    
C52   C56   A    
