data_mof_unit_32254.cif
_audit_creation_date              2013-03-05T16:04:38-0500
_audit_creation_method            fapswitch 2.2
_symmetry_space_group_name_H-M    P1
_symmetry_Int_Tables_number       1
_space_group_crystal_system       triclinic
_cell_length_a                    9.582794
_cell_length_b                    10.810419
_cell_length_c                    15.546535
_cell_angle_alpha                 88.743179
_cell_angle_beta                  73.386045
_cell_angle_gamma                 90.882195
_cell_volume                      1542.52728945

loop_
_atom_site_label
_atom_site_type_symbol
_atom_site_description
_atom_site_fract_x
_atom_site_fract_y
_atom_site_fract_z
_atom_type_partial_charge
O1    O     O_R   0.118740 0.319660 0.500000 -0.601158
O2    O     O_R   0.881260 0.680340 0.500000 -0.596034
O3    O     O_R   0.881170 0.319630 0.500010 -0.544735
O4    O     O_R   0.118830 0.680370 0.499990 -0.543705
C1    C     C_R   0.999227 0.262281 0.500209 0.799761
C2    C     C_R   0.000815 0.737708 0.499718 0.814607
O5    O     O_R   0.055570 0.500030 0.629830 -0.592758
O6    O     O_R   0.944430 0.499970 0.370170 -0.584477
O7    O     O_R   0.818000 0.500000 0.629840 -0.531125
O8    O     O_R   0.182000 0.500000 0.370160 -0.533095
C3    C     C_R   0.917238 0.498790 0.672117 0.822263
C4    C     C_R   0.083336 0.504755 0.327735 0.804146
Cu1   Cu    Cu3+1 0.140660 0.500020 0.500000 1.030471
Cu2   Cu    Cu3+1 0.859340 0.499980 0.500000 1.041013
C5    C     C_R   0.871613 0.501967 0.770518 -0.070248
C6    C     C_R   0.133224 0.530274 0.230046 -0.072246
C7    C     C_R   0.927662 0.488906 0.912386 -0.165223
C8    C     C_R   0.093038 0.617161 0.094439 -0.178756
C9    C     C_R   0.972406 0.484311 0.819249 -0.160262
C10   C     C_R   0.039023 0.578670 0.184279 -0.170416
C11   C     C_R   0.726453 0.526151 0.815968 -0.108885
C12   C     C_R   0.281816 0.521241 0.184677 -0.124790
C13   C     C_R   0.682487 0.544531 0.908963 0.096267
C14   C     C_R   0.340055 0.567244 0.095966 0.102605
C15   C     C_R   0.783427 0.517448 0.957532 0.094575
C16   C     C_R   0.242073 0.609525 0.049568 0.090849
C17   C     C_R   0.538900 0.581399 0.955673 -0.081988
C18   C     C_R   0.491945 0.565730 0.050822 -0.081131
C19   C     C_R   0.599102 0.551296 0.097234 0.332872
C20   C     C_R   0.440999 0.635688 0.912238 0.330816
C21   C     C_R   0.741078 0.522740 0.050504 -0.266334
C22   C     C_R   0.294042 0.646737 0.959531 -0.261659
H1    H     H_    0.820187 0.509036 0.087279 0.168761
H2    H     H_    0.220044 0.686989 0.925939 0.187141
H3    H     H_    0.350684 0.475988 0.219239 0.183427
H4    H     H_    0.648249 0.528501 0.778042 0.200452
H5    H     H_    0.924502 0.589339 0.218350 0.198033
H6    H     H_    0.085063 0.464634 0.785618 0.175522
H7    H     H_    0.006261 0.471262 0.949092 0.146302
H8    H     H_    0.018736 0.654913 0.060196 0.152049
C23   C     C_R   0.893417 0.063232 0.472123 -0.094590
C24   C     C_R   0.107163 0.936728 0.527260 -0.088521
H9    H     H_    0.811919 0.111133 0.449015 0.192660
H10   H     H_    0.188972 0.888822 0.550080 0.197284
C25   C     C_R   0.894279 0.935212 0.471877 -0.132486
C26   C     C_R   0.106158 0.064741 0.527636 -0.145578
H11   H     H_    0.812250 0.886185 0.449371 0.173408
H12   H     H_    0.188218 0.113754 0.550120 0.171567
C27   C     C_R   0.001324 0.871639 0.499338 -0.042338
C28   C     C_R   0.998973 0.128327 0.500308 -0.046679
C29   C     C_R   0.552040 0.404310 0.540035 0.436708
C30   C     C_R   0.447517 0.597409 0.461930 0.463680
C31   C     C_R   0.404745 0.404580 0.538706 -0.131877
C32   C     C_R   0.595470 0.595472 0.461552 -0.063286
H13   H     H_    0.331915 0.328980 0.570869 0.174348
H14   H     H_    0.668483 0.671203 0.429889 0.176876
N1    N     N_R   0.352080 0.500030 0.499980 -0.247279
N2    N     N_R   0.647920 0.499970 0.500020 -0.249269
N3    N     N_R   0.575103 0.593178 0.186765 0.110457
O9    O     O_R   0.543483 0.708615 0.202247 -0.285141
O10   O     O_R   0.621207 0.528751 0.244458 -0.402335
N4    N     N_R   0.491073 0.696570 0.825432 0.111363
O11   O     O_R   0.604793 0.770610 0.806847 -0.328287
O12   O     O_R   0.411806 0.692618 0.770035 -0.356851
N5    N     N_R   0.596971 0.302554 0.585210 0.133022
O13   O     O_R   0.570153 0.190409 0.564629 -0.373022
O14   O     O_R   0.621995 0.319739 0.661976 -0.344915
N6    N     N_R   0.400798 0.705414 0.423890 0.140493
O15   O     O_R   0.445431 0.814222 0.440473 -0.377287
O16   O     O_R   0.342549 0.695688 0.358504 -0.275032

loop_
_geom_bond_atom_site_label_1
_geom_bond_atom_site_label_2
_geom_bond_distance
_ccdc_geom_bond_type
C15   C21   1.387820 A    
O5    Cu1   1.948771 S    
O5    C3    1.300128 A    
O7    Cu2   1.942749 S    
C21   H1    1.082168 S    
C16   C22   1.392724 A    
N4    O11   1.301781 A    
C12   H3    1.079241 S    
C9    H6    1.083176 S    
C13   C17   1.427470 A    
C23   H9    1.082526 S    
C20   N4    1.437235 S    
C26   C28   1.402315 A    
C8    C10   1.395090 A    
C30   N6    1.432010 S    
C23   C25   1.384182 A    
C25   C27   1.402170 A    
O6    C4    1.305360 A    
C17   C18   1.423141 A    
C7    C15   1.402178 A    
C31   H13   1.081653 S    
O2    Cu2   1.957831 S    
N3    O9    1.300066 A    
C19   C21   1.389853 A    
C11   H4    1.078201 S    
C6    C10   1.400134 A    
Cu1   Cu2   2.695826 S    
C17   C20   1.429140 A    
C20   C22   1.398207 A    
C10   H5    1.082773 S    
O7    C3    1.301511 A    
O2    C2    1.293190 A    
O3    Cu2   1.964051 S    
C24   H10   1.082657 S    
O1    C1    1.293184 A    
O8    C4    1.299307 A    
C12   C14   1.407846 A    
O4    C2    1.298997 A    
C18   C19   1.422366 A    
C7    C9    1.389850 A    
C14   C16   1.413127 A    
C19   N3    1.429346 S    
C26   H12   1.083402 S    
C13   C15   1.417107 A    
C11   C13   1.405013 A    
C24   C26   1.384185 A    
Cu2   N2    2.025903 S    
C32   H14   1.081588 S    
C1    C28   1.448031 S    
N3    O10   1.301316 A    
O1    Cu1   1.957831 S    
C30   N1    1.388591 A    
C6    C12   1.402695 A    
C24   C27   1.398365 A    
C14   C18   1.424241 A    
C23   C28   1.398374 A    
C5    C11   1.399946 A    
Cu1   N1    2.025902 S    
C31   N1    1.358100 A    
N6    O16   1.297410 A    
N5    O13   1.301005 A    
C29   N5    1.429083 S    
C25   H11   1.083426 S    
C32   N2    1.355339 A    
O4    Cu1   1.964051 S    
C29   N2    1.384297 A    
C8    H8    1.083110 S    
C7    H7    1.083871 S    
N4    O12   1.302023 A    
N5    O14   1.299363 A    
O6    Cu2   1.948771 S    
C29   C31   1.417591 A    
C22   H2    1.084525 S    
C5    C9    1.400378 A    
C3    C5    1.467285 S    
C2    C27   1.447650 S    
C4    C6    1.474298 S    
C30   C32   1.416611 A    
N6    O15   1.301483 A    
O3    C1    1.299135 A    
O8    Cu1   1.942750 S    
C8    C16   1.403413 A    
