data_mof_unit_47143.cif
_audit_creation_date              2012-12-11T15:04:15-0500
_audit_creation_method            fapswitch 2.2
_symmetry_space_group_name_H-M    P1
_symmetry_Int_Tables_number       1
_space_group_crystal_system       triclinic
_cell_length_a                    8.430472
_cell_length_b                    15.518832
_cell_length_c                    18.691711
_cell_angle_alpha                 100.626165
_cell_angle_beta                  90.244009
_cell_angle_gamma                 101.03735
_cell_volume                      2357.07659713

loop_
_atom_site_label
_atom_site_type_symbol
_atom_type_description
_atom_site_fract_x
_atom_site_fract_y
_atom_site_fract_z
_atom_type_partial_charge
Ba1   Ba    Ba6+2 0.854120 0.540280 0.465540 1.778797
Ba2   Ba    Ba6+2 0.335710 0.459790 0.534460 1.811255
C1    C     C_3   0.731293 0.857899 0.269594 -0.180968
C2    C     C_R   0.897296 0.421905 0.096436 0.045520
C3    C     C_R   0.738759 0.374878 0.072237 -0.000011
C4    C     C_3   0.193293 0.773534 0.271430 0.268151
C5    C     C_R   0.679850 0.378207 0.002960 0.055001
C6    C     C_R   0.769108 0.430537 0.957730 0.038999
C7    C     C_R   0.930094 0.472133 0.979316 0.059248
C8    C     C_R   0.697710 0.447641 0.894084 -0.061005
C9    C     C_R   0.798102 0.480913 0.840288 -0.074649
C10   C     C_R   0.963155 0.517984 0.860200 0.056918
C11   C     C_R   0.024528 0.519057 0.931839 0.036577
C12   C     C_3   0.645068 0.766699 0.283315 0.302180
C13   C     C_R   0.738415 0.482627 0.768640 -0.056688
C14   C     C_R   0.843529 0.519733 0.719685 -0.291381
C15   C     C_R   0.012382 0.545958 0.735291 0.014384
C16   C     C_3   0.124968 0.784970 0.198648 -0.230416
C17   C     C_R   0.067573 0.554798 0.809184 0.022890
C18   C     C_R   0.151436 0.517834 0.073858 0.004236
C19   C     C_R   0.215254 0.515740 0.144612 0.022779
C20   C     C_R   0.114998 0.468869 0.192532 -0.005965
C21   C     C_R   0.959706 0.422927 0.166384 -0.012759
C22   C     C_R   0.221324 0.604193 0.835062 0.019381
C23   C     C_3   0.449628 0.156762 0.316908 0.179535
C24   C     C_R   0.274718 0.612746 0.907643 0.056267
C25   C     C_R   0.180856 0.566492 0.955633 0.065910
C26   C     C_R   0.243722 0.567918 0.026984 0.059993
C27   C     C_R   0.422273 0.667647 0.932463 -0.073002
C28   C     C_3   0.301791 0.756869 0.664310 0.130412
C29   C     C_R   0.482705 0.674194 0.003247 -0.056519
C30   C     C_R   0.400025 0.617937 0.050112 0.002688
C31   C     C_R   0.379393 0.557226 0.165692 -0.068965
C32   C     C_R   0.472360 0.605104 0.115640 -0.079694
C33   C     C_R   0.443601 0.544772 0.234154 -0.019560
C34   C     C_3   0.429073 0.132863 0.233926 -0.289681
C35   C     C_R   0.344193 0.489799 0.276749 -0.247508
C36   C     C_R   0.175234 0.461730 0.262785 -0.120733
C37   C     C_R   0.763350 0.231114 0.510510 -0.283741
C38   C     C_R   0.864196 0.175682 0.525912 0.066957
C39   C     C_R   0.815547 0.082933 0.503021 0.036362
C40   C     C_3   0.392868 0.819033 0.733756 -0.259022
C41   C     C_R   0.650318 0.043312 0.484700 0.058201
C42   C     C_R   0.550726 0.103371 0.468667 -0.074691
C43   C     C_R   0.612456 0.196279 0.475961 -0.071572
C44   C     C_R   0.429938 0.903605 0.446023 -0.087833
C45   C     C_3   0.945152 0.254523 0.716333 0.232982
C46   C     C_R   0.361234 0.813019 0.439792 -0.075600
C47   C     C_R   0.591416 0.789937 0.508793 -0.068516
C48   C     C_R   0.660737 0.883591 0.516486 -0.082603
C49   C     C_R   0.582771 0.942353 0.481990 0.054379
C50   C     C_R   0.447014 0.756050 0.466684 -0.283742
C51   C     C_3   0.979504 0.234315 0.272452 0.216218
C52   C     C_3   0.132411 0.251301 0.228361 -0.407813
C53   C     C_3   0.823887 0.764894 0.696046 0.157523
C54   C     C_3   0.860944 0.867590 0.723578 -0.311858
C55   C     C_2   0.486427 0.906609 0.719848 0.490233
C56   C     C_3   0.850550 0.202180 0.771754 -0.267485
C57   C     C_2   0.281133 0.837302 0.795369 0.755056
C58   C     C_2   0.828886 0.228754 0.227339 0.356943
C59   C     C_2   0.968885 0.143520 0.292937 0.479419
C60   C     C_2   0.813007 0.718747 0.760834 0.394331
C61   C     C_2   0.833969 0.899425 0.803364 0.574831
C62   C     C_2   0.617762 0.921516 0.272109 0.446533
C63   C     C_2   0.052323 0.341290 0.751931 0.441107
C64   C     C_2   0.943699 0.196927 0.839279 0.569163
C65   C     C_2   0.780452 0.108933 0.734697 0.594432
C66   C     C_2   0.471076 0.198986 0.649258 0.656826
C67   C     C_3   0.415251 0.239902 0.721845 0.134582
C68   C     C_2   0.245287 0.093580 0.747391 0.494971
C69   C     C_2   0.357447 0.214333 0.849667 0.606585
C70   C     C_2   0.623653 0.329284 0.119854 0.542238
C71   C     C_2   0.763503 0.543323 0.658173 0.499067
C72   C     C_2   0.529433 0.463217 0.895970 0.544590
C73   C     C_2   0.624784 0.746930 0.025602 0.506787
C74   C     C_2   0.650038 0.623092 0.120237 0.468581
C75   C     C_2   0.423846 0.449651 0.329202 0.485690
C76   C     C_2   0.810228 0.917016 0.563006 0.409903
C77   C     C_2   0.378044 0.660460 0.453161 0.626863
C78   C     C_3   0.383421 0.170531 0.773105 -0.260424
C79   C     C_2   0.814940 0.326549 0.534642 0.614469
C80   C     C_2   0.247559 0.783218 0.141225 0.494311
C81   C     C_2   0.233571 0.804161 0.611253 0.384198
C82   C     C_R   0.993879 0.469840 0.049605 0.068698
H1    H     H_    0.240547 0.276201 0.265608 0.116503
H2    H     H_    0.124882 0.299085 0.192276 0.108463
H3    H     H_    0.147272 0.189156 0.190935 0.138473
H4    H     H_    0.922973 0.745245 0.662858 0.096457
H5    H     H_    0.696504 0.685388 0.776327 -0.030488
H6    H     H_    0.830922 0.886926 0.311236 0.078046
H7    H     H_    0.780383 0.896651 0.693908 0.093411
H8    H     H_    0.985959 0.895851 0.710528 0.160095
H9    H     H_    0.717143 0.879100 0.825616 0.035076
H10   H     H_    0.531441 0.744294 0.249053 -0.113172
H11   H     H_    0.570029 0.948149 0.323294 -0.052488
H12   H     H_    0.360212 0.942274 0.421174 0.057999
H13   H     H_    0.549365 0.125610 0.332651 0.009254
H14   H     H_    0.334938 0.128544 0.340805 0.058039
H15   H     H_    0.529796 0.101783 0.210506 0.192266
H16   H     H_    0.314315 0.084171 0.217420 0.101202
H17   H     H_    0.429660 0.193061 0.209926 0.168530
H18   H     H_    0.785485 0.849267 0.215253 0.157179
H19   H     H_    0.085004 0.850145 0.205782 0.116856
H20   H     H_    0.091821 0.391354 0.719716 0.029708
H21   H     H_    0.850004 0.272367 0.683500 -0.081250
H22   H     H_    0.032696 0.155040 0.836070 -0.001551
H23   H     H_    0.426076 0.080608 0.450354 0.069839
H24   H     H_    0.749803 0.236034 0.790503 0.121461
H25   H     H_    0.821736 0.052779 0.750076 0.040305
H26   H     H_    0.569473 0.236485 0.624348 -0.070120
H27   H     H_    0.304704 0.265486 0.714077 0.062393
H28   H     H_    0.491865 0.141058 0.775776 0.177863
H29   H     H_    0.175830 0.088165 0.697510 0.112989
H30   H     H_    0.215391 0.704134 0.266204 -0.043077
H31   H     H_    0.278698 0.262207 0.859758 0.086798
H32   H     H_    0.631303 0.351396 0.178291 0.020444
H33   H     H_    0.560932 0.340403 0.985440 0.188840
H34   H     H_    0.617233 0.772691 0.341787 -0.023595
H35   H     H_    0.667580 0.580595 0.668284 0.010696
H36   H     H_    0.503782 0.516850 0.871414 -0.015752
H37   H     H_    0.888150 0.384162 0.199957 0.029825
H38   H     H_    0.299685 0.639801 0.800187 0.074254
H39   H     H_    0.490404 0.707197 0.896485 0.076972
H40   H     H_    0.724553 0.755750 0.989402 0.034672
H41   H     H_    0.719298 0.689956 0.136602 0.064618
H42   H     H_    0.308064 0.822764 0.286303 -0.048771
H43   H     H_    0.387485 0.452376 0.384447 0.045760
H44   H     H_    0.907790 0.043442 0.501920 0.092569
H45   H     H_    0.481347 0.782920 0.753043 0.051233
H46   H     H_    0.903768 0.878986 0.562752 0.107975
H47   H     H_    0.384448 0.620372 0.400012 -0.168013
H48   H     H_    0.790937 0.355811 0.589446 -0.064747
H49   H     H_    0.369862 0.777429 0.154111 0.060970
H50   H     H_    0.018849 0.730446 0.180283 0.125595
H51   H     H_    0.383952 0.716871 0.634358 0.063705
H52   H     H_    0.179414 0.764189 0.560618 0.076046
H53   H     H_    0.526671 0.913058 0.665728 0.075303
H54   H     H_    0.176485 0.865217 0.786714 0.097377
H55   H     H_    0.732914 0.260676 0.251052 0.058081
H56   H     H_    0.954884 0.083999 0.250613 0.019325
O1    O     O_2   0.871030 0.438240 0.324420 -0.407339
O2    O     O_2   0.195542 0.187880 0.550533 -0.446370
O3    O     O_3   0.037088 0.200585 0.670945 -0.657833
O4    O     O_3   0.120590 0.445310 0.413740 -0.405706
O5    O     O_3   0.582100 0.611510 0.537680 -0.415995
O6    O     O_2   0.334040 0.276520 0.462890 -0.438418
O7    O     O_3   0.488249 0.250211 0.340169 -0.594022
O8    O     O_2   0.389773 0.444895 0.754983 -0.495811
O9    O     O_3   0.538990 0.309594 0.755516 -0.658107
O10   O     O_3   0.663040 0.605930 0.370050 -0.468120
O11   O     O_2   0.776288 0.541361 0.248043 -0.423003
O12   O     O_3   0.674147 0.737517 0.655628 -0.702632
O13   O     O_3   0.982193 0.297181 0.338391 -0.581849
O14   O     O_3   0.748959 0.706306 0.264541 -0.580142
O15   O     O_2   0.855660 0.723510 0.537160 -0.488887
O16   O     O_3   0.086340 0.654970 0.406630 -0.443071
O17   O     O_2   0.037232 0.815732 0.460950 -0.478221
O18   O     O_2   0.522400 0.970579 0.769807 -0.551212
O19   O     O_2   0.308336 0.821398 0.855286 -0.539362
O20   O     O_2   0.810890 0.186405 0.164923 -0.544482
O21   O     O_2   0.976451 0.135421 0.356564 -0.601296
O22   O     O_2   0.932619 0.723711 0.799489 -0.593652
O23   O     O_3   0.079891 0.790225 0.324043 -0.553364
O24   O     O_2   0.942603 0.947588 0.843572 -0.486502
O25   O     O_2   0.579619 0.944493 0.216526 -0.531001
O26   O     O_2   0.099331 0.356666 0.815600 -0.580660
O27   O     O_2   0.914327 0.236827 0.898868 -0.501900
O28   O     O_2   0.680661 0.095293 0.684704 -0.538303
O29   O     O_2   0.408665 0.123840 0.617939 -0.554399
O30   O     O_2   0.212761 0.033828 0.782188 -0.512807
O31   O     O_2   0.424385 0.195643 0.901162 -0.483470
O32   O     O_2   0.514267 0.267585 0.093685 -0.521841
O33   O     O_2   0.777069 0.506785 0.596497 -0.504963
O34   O     O_2   0.318670 0.561790 0.675630 -0.494542
O35   O     O_2   0.421015 0.420620 0.925505 -0.577869
O36   O     O_2   0.626205 0.801549 0.081744 -0.542173
O37   O     O_2   0.721906 0.562489 0.102159 -0.625223
O38   O     O_2   0.536135 0.412920 0.310030 -0.546150
O39   O     O_2   0.829185 0.986902 0.606468 -0.583406
O40   O     O_2   0.298379 0.628008 0.499247 -0.563347
O41   O     O_2   0.898831 0.370374 0.496197 -0.466758
O42   O     O_2   0.210557 0.789393 0.079444 -0.502639
O43   O     O_2   0.227886 0.883503 0.624932 -0.594165
O44   O     O_3   0.069120 0.554770 0.586270 -0.373772
O45   O     O_3   0.526680 0.394150 0.629950 -0.486750
O46   O     O_3   0.168169 0.703322 0.687598 -0.672221
O47   O     O_3   0.607620 0.388570 0.462320 -0.387097
O48   O     O_3   0.103380 0.345110 0.593380 -0.497289
P1    P     P_3+3 0.038110 0.412300 0.335300 1.055299
P2    P     P_3+3 0.679950 0.711710 0.558590 0.975252
P3    P     P_3+3 0.145990 0.769727 0.406720 0.991511
P4    P     P_3+3 0.151600 0.587780 0.664700 1.045295
P5    P     P_3+3 0.051174 0.227190 0.583071 1.009050
P6    P     P_3+3 0.652921 0.599982 0.276349 1.024176
P7    P     P_3+3 0.510074 0.274199 0.435460 1.037866
P8    P     P_3+3 0.542811 0.411122 0.726155 0.919500

loop_
_geom_bond_atom_site_label_1
_geom_bond_atom_site_label_2
_ccdc_geom_bond_type
C65   O28   D    
C43   P7    S    
C53   C54   S    
C60   H5    S    
C58   H55   S    
C51   O13   S    
C71   H35   S    
O5    P2    S    
Ba2   O4    S    
C5    H33   S    
Ba1   O5    S    
C79   O41   D    
C55   O18   D    
C41   C49   S    
C4    O23   S    
C5    C6    A    
C21   H37   S    
O13   P1    S    
C51   C52   S    
Ba2   O5    S    
C56   C64   S    
C24   C25   A    
C35   C36   A    
Ba1   P1    S    
C64   O27   D    
C1    H6    S    
C59   O21   D    
C70   O32   D    
O11   P6    D    
C33   C35   A    
Ba2   P4    S    
C3    C70   S    
O9    P8    S    
C52   H3    S    
C19   C31   A    
O4    P1    S    
C13   C14   A    
C20   C36   A    
C53   C60   S    
C45   O3    S    
C53   H4    S    
Ba1   Ba2   S    
C28   C81   S    
Ba1   O15   S    
C7    C11   A    
Ba2   O47   S    
C4    H30   S    
C46   P3    S    
O12   P2    S    
C33   P6    S    
C31   C33   A    
C51   C59   S    
C65   H25   S    
C54   H7    S    
O10   P6    S    
C14   C15   A    
C12   H34   S    
O44   P4    S    
O7    P7    S    
C34   H15   S    
C50   C77   S    
C75   H43   S    
C37   C43   A    
Ba1   P2    S    
C36   P1    S    
C68   H29   S    
C19   C20   A    
C12   O14   S    
C71   O33   D    
C74   H41   S    
C39   C41   A    
C39   H44   S    
C57   O19   D    
C64   H22   S    
C48   C76   S    
C40   C55   S    
C69   C78   S    
C51   C58   S    
O8    P8    D    
C48   C49   A    
C38   P5    S    
Ba1   O47   S    
C15   P4    S    
C61   O24   D    
C4    C16   S    
C44   C46   A    
C55   H53   S    
C68   C78   S    
C73   H40   S    
C53   O12   S    
O1    P1    D    
C4    H42   S    
C34   H16   S    
C74   O37   D    
C37   C38   A    
C3    C5    A    
C2    C21   A    
C66   C67   S    
C79   H48   S    
Ba2   O44   S    
C47   P2    S    
C18   C26   A    
C57   H54   S    
C45   H21   S    
C1    C62   S    
C35   C75   S    
C44   C49   A    
C14   C71   S    
C34   H17   S    
C30   C32   A    
Ba1   O16   S    
C41   C42   A    
O17   P3    D    
C62   O25   D    
O15   P2    D    
C76   H46   S    
C66   O29   D    
C23   H14   S    
C29   C73   S    
C29   C30   A    
C2    C82   A    
C26   C30   A    
C47   C50   A    
C77   H47   S    
C78   H28   S    
C22   H38   S    
C31   C32   A    
C6    C7    A    
C54   C61   S    
C69   H31   S    
Ba1   O10   S    
C23   O7    S    
C66   H26   S    
C18   C19   A    
C63   O26   D    
C37   C79   S    
C81   H52   S    
C1    C12   S    
C13   P8    S    
C1    H18   S    
C23   H13   S    
C38   C39   A    
O48   P5    S    
C28   H51   S    
C16   C80   S    
C9    C13   A    
C18   C82   A    
C69   O31   D    
O6    P7    D    
O45   P8    S    
C28   O46   S    
C42   C43   A    
C52   H2    S    
C42   H23   S    
C80   O42   D    
C81   O43   D    
O47   P7    S    
C73   O36   D    
C77   O40   D    
C28   C40   S    
C58   O20   D    
C62   H11   S    
C22   C24   A    
C2    C3    A    
C40   C57   S    
C52   H1    S    
C9    C10   A    
C59   H56   S    
Ba2   O6    S    
C72   H36   S    
C70   H32   S    
C75   O38   D    
C67   O9    S    
C80   H49   S    
C17   C22   A    
C68   O30   D    
Ba2   O45   S    
C72   O35   D    
C27   C29   A    
Ba1   O4    S    
C23   C34   S    
Ba2   O34   S    
C45   C56   S    
C12   H10   S    
C8    C72   S    
C76   O39   D    
C60   O22   D    
C27   H39   S    
C10   C17   A    
C15   C17   A    
O2    P5    D    
Ba1   O44   S    
C16   H50   S    
C40   H45   S    
C56   H24   S    
C16   H19   S    
O46   P4    S    
C67   H27   S    
Ba2   O48   S    
Ba1   O1    S    
C8    C9    A    
C7    C82   A    
O14   P6    S    
O16   P3    S    
C56   C65   S    
C46   C50   A    
C44   H12   S    
C10   C11   A    
C24   C27   A    
C6    C8    A    
C47   C48   A    
O34   P4    D    
C25   C26   A    
C20   C21   A    
C11   C25   A    
C67   C78   S    
O23   P3    S    
C63   H20   S    
C61   H9    S    
C54   H8    S    
C45   C63   S    
C32   C74   S    
O3    P5    S    
