data_mof_unit_22898.cif
_audit_creation_date              2012-12-11T15:54:06-0500
_audit_creation_method            fapswitch 2.2
_symmetry_space_group_name_H-M    P1
_symmetry_Int_Tables_number       1
_space_group_crystal_system       triclinic
_cell_length_a                    10.69696
_cell_length_b                    10.966964
_cell_length_c                    17.024402
_cell_angle_alpha                 79.968488
_cell_angle_beta                  100.195801
_cell_angle_gamma                 118.562354
_cell_volume                      1717.1331919

loop_
_atom_site_label
_atom_site_type_symbol
_atom_type_description
_atom_site_fract_x
_atom_site_fract_y
_atom_site_fract_z
_atom_type_partial_charge
C1    C     C_R   0.384829 0.283460 0.632119 0.549502
C2    C     C_1   0.333189 0.186635 0.781800 -0.050568
C3    C     C_1   0.311116 0.691704 0.281739 -0.098504
C4    C     C_R   0.411390 0.625161 0.601999 0.560995
C5    C     C_1   0.289423 0.715475 0.210123 -0.095027
C6    C     C_R   0.932624 0.708528 0.177770 -0.022658
C7    C     C_R   0.878637 0.577942 0.219077 0.018539
C8    C     C_R   0.839719 0.553996 0.294365 -0.041972
C9    C     C_R   0.916471 0.799001 0.295355 0.095519
C10   C     C_R   0.952894 0.821007 0.216409 -0.143551
C11   C     C_3   0.752819 0.447536 0.193508 0.032741
C12   C     C_R   0.506532 0.748843 0.727692 0.111380
C13   C     C_3   0.710928 0.418583 0.277194 -0.198567
C14   C     C_R   0.848313 0.661589 0.331389 0.022025
C15   C     C_R   0.316783 0.128350 0.170511 0.008294
C16   C     C_R   0.775538 0.617009 0.626876 0.524585
C17   C     C_R   0.207572 0.138973 0.196002 -0.050959
C18   C     C_R   0.208787 0.160044 0.271249 0.098514
C19   C     C_R   0.406221 0.107751 0.313097 -0.042046
C20   C     C_R   0.419312 0.104662 0.231050 -0.002409
C21   C     C_3   0.117947 0.206768 0.156925 -0.223328
C22   C     C_3   0.124443 0.241194 0.240845 0.169964
C23   C     C_R   0.488715 0.754881 0.806172 -0.127759
C24   C     C_R   0.318792 0.161211 0.329143 -0.010946
C25   C     C_R   0.893015 0.702899 0.855928 0.550088
C26   C     C_R   0.318161 0.706392 0.900489 0.557328
C27   C     C_R   0.286201 0.118226 0.858507 0.558287
C28   C     C_R   0.350019 0.227093 0.400496 0.546599
C29   C     C_R   0.956103 0.718360 0.094916 0.546393
C30   C     C_R   0.282402 0.740278 0.124231 0.545089
C31   C     C_R   0.285628 0.101215 0.087426 0.543563
C32   C     C_R   0.359990 0.658828 0.362845 0.537926
C33   C     C_R   0.771579 0.620739 0.400709 0.537325
C34   C     C_3   0.121406 0.437515 0.797410 -0.252132
C35   C     C_R   0.362582 0.658729 0.840539 -0.014860
C36   C     C_R   0.277523 0.534767 0.805637 -0.014391
C37   C     C_R   0.295371 0.522740 0.729642 -0.022280
C38   C     C_3   0.747678 0.956485 0.731694 -0.305207
C39   C     C_3   0.616087 0.581205 0.123571 -0.281693
C40   C     C_3   0.437945 0.013453 0.381341 -0.246077
C41   C     C_3   0.589009 0.072821 0.425604 -0.390609
C42   C     C_3   0.534891 0.066947 0.217239 -0.233345
C43   C     C_3   0.616451 0.132358 0.142868 -0.385506
C44   C     C_3   0.205114 0.399207 0.240100 -0.233596
C45   C     C_3   0.139051 0.422351 0.712582 -0.113577
C46   C     C_3   0.368003 0.461702 0.240346 -0.430198
C47   C     C_3   0.948109 0.233275 0.326148 -0.313348
C48   C     C_3   0.053490 0.475809 0.645582 -0.247523
C49   C     C_3   0.965624 0.368231 0.585645 -0.409197
C50   C     C_3   0.023192 0.931649 0.410935 -0.253492
C51   C     C_R   0.400709 0.633466 0.685601 0.008708
C52   C     C_1   0.823232 0.654805 0.706116 -0.041920
C53   C     C_1   0.851731 0.684770 0.773514 -0.047816
C54   C     C_1   0.365402 0.233296 0.714743 -0.049283
Cr1   Cr    Cr6+3 0.608440 0.389080 0.519680 0.968246
Cr2   Cr    Cr6+3 0.288640 0.400090 0.490760 0.954656
Cr3   Cr    Cr6+3 0.602940 0.710800 0.489510 0.981583
Cr4   Cr    Cr6+3 0.052530 0.947560 0.964210 0.984149
Cr5   Cr    Cr6+3 0.059970 0.626800 0.992920 0.986260
Cr6   Cr    Cr6+3 0.373320 0.938440 0.995370 0.975019
H1    H     H_    0.608729 0.417969 0.281610 0.155066
H2    H     H_    0.792867 0.379047 0.179718 0.133204
H3    H     H_    0.573226 0.927566 0.647735 0.266797
H4    H     H_    0.736080 0.035466 0.758522 0.124158
H5    H     H_    0.832294 0.011875 0.690434 0.149096
H6    H     H_    0.781143 0.892925 0.779582 0.179348
H7    H     H_    0.648209 0.438820 0.075427 0.268090
H8    H     H_    0.503591 0.548386 0.097213 0.144907
H9    H     H_    0.682529 0.667306 0.081153 0.179023
H10   H     H_    0.634386 0.620492 0.182399 0.151441
H11   H     H_    0.583263 0.039225 0.490874 0.147441
H12   H     H_    0.723148 0.328943 0.311079 0.106481
H13   H     H_    0.645973 0.187953 0.418240 0.161493
H14   H     H_    0.650640 0.029102 0.405478 0.127799
H15   H     H_    0.361791 0.978384 0.426966 0.131553
H16   H     H_    0.411693 0.917907 0.356560 0.167390
H17   H     H_    0.587740 0.054819 0.100716 0.194303
H18   H     H_    0.732513 0.169630 0.159448 0.080758
H19   H     H_    0.597204 0.218571 0.110440 0.170479
H20   H     H_    0.619365 0.098242 0.268372 0.132818
H21   H     H_    0.491920 0.953648 0.221704 0.163708
H22   H     H_    0.396023 0.402645 0.206625 0.150742
H23   H     H_    0.010734 0.132009 0.130807 0.124798
H24   H     H_    0.413469 0.569268 0.211030 0.147146
H25   H     H_    0.421276 0.464200 0.302425 0.168949
H26   H     H_    0.159792 0.444087 0.186898 0.161242
H27   H     H_    0.179474 0.427770 0.290063 0.194205
H28   H     H_    0.896236 0.114671 0.230305 0.242683
H29   H     H_    0.029251 0.259180 0.379007 0.190834
H30   H     H_    0.845175 0.156042 0.347788 0.105974
H31   H     H_    0.938543 0.327544 0.297382 0.122274
H32   H     H_    0.035229 0.340148 0.559512 0.168873
H33   H     H_    0.883069 0.272335 0.615829 0.128390
H34   H     H_    0.175748 0.296418 0.112656 0.134552
H35   H     H_    0.911280 0.411830 0.536142 0.171528
H36   H     H_    0.978544 0.496407 0.671532 0.169508
H37   H     H_    0.124370 0.576266 0.613168 0.170661
H38   H     H_    0.841674 0.916065 0.334895 0.272672
H39   H     H_    0.043384 0.030555 0.431229 0.176580
H40   H     H_    0.125592 0.933337 0.405896 0.134148
H41   H     H_    0.970166 0.847959 0.458299 0.143195
H42   H     H_    0.563366 0.847278 0.835125 0.151521
H43   H     H_    0.056095 0.490060 0.800883 0.158465
H44   H     H_    0.095151 0.340064 0.838655 0.140231
H45   H     H_    0.123444 0.316029 0.707391 0.161688
H46   H     H_    0.984276 0.920719 0.182938 0.150677
N1    N     N_2   0.614194 0.869223 0.687059 -0.483270
N2    N     N_2   0.647058 0.464323 0.130655 -0.515813
N3    N     N_2   0.982331 0.174015 0.268606 -0.497198
N4    N     N_2   0.935830 0.912224 0.334038 -0.493264
O1    O     O_R   0.754020 0.497590 0.609930 -0.534862
O2    O     O_R   0.406180 0.826930 0.920660 -0.526190
O3    O     O_R   0.358620 0.062870 0.901950 -0.491349
O4    O     O_R   0.481420 0.271390 0.600630 -0.485942
O5    O     O_R   0.163910 0.085460 0.050210 -0.534087
O6    O     O_R   0.935200 0.815170 0.045770 -0.517763
O7    O     O_R   0.916120 0.596690 0.069430 -0.521227
O8    O     O_R   0.192310 0.631200 0.086170 -0.522145
O9    O     O_R   0.406770 0.819480 0.096420 -0.536473
O10   O     O_R   0.359170 0.055960 0.064880 -0.528487
O11   O     O_3   0.161940 0.837600 0.984160 -0.285337
O12   O     O_R   0.295080 0.533620 0.397890 -0.515319
O13   O     O_R   0.263810 0.254550 0.589590 -0.532291
O14   O     O_R   0.300820 0.531200 0.560890 -0.525096
O15   O     O_R   0.491480 0.744020 0.564270 -0.502653
O16   O     O_R   0.726290 0.693800 0.583010 -0.496140
O17   O     O_R   0.747830 0.500190 0.434090 -0.541134
O18   O     O_R   0.475680 0.273800 0.437630 -0.497626
O19   O     O_R   0.257620 0.257160 0.413750 -0.535010
O20   O     O_R   0.485280 0.746620 0.388440 -0.523870
O21   O     O_R   0.720550 0.696220 0.420010 -0.505897
O22   O     O_3   0.500010 0.499990 0.499980 -0.277145
O23   O     O_R   0.163320 0.092900 0.874450 -0.517931
O24   O     O_R   0.934650 0.822080 0.882840 -0.504007
O25   O     O_R   0.915520 0.604140 0.893670 -0.513140
O26   O     O_R   0.191760 0.638110 0.923230 -0.495155

loop_
_geom_bond_atom_site_label_1
_geom_bond_atom_site_label_2
_ccdc_geom_bond_type
Cr5   O11   S    
C42   H20   S    
C8    C13   S    
H38   N4    S    
C39   H8    S    
Cr3   O22   S    
C19   C20   A    
C50   N4    S    
C1    C54   S    
C11   H2    S    
C14   C33   S    
C32   O20   A    
C7    C8    A    
Cr4   O24   S    
C43   H18   S    
C7    C11   S    
C48   H37   S    
C12   C23   A    
C50   H39   S    
C4    O15   A    
C18   C24   A    
Cr2   O14   S    
C36   C37   A    
C25   C53   S    
Cr3   O15   S    
C37   C51   A    
H7    N2    S    
C23   H42   S    
C21   H34   S    
C43   H19   S    
Cr5   O26   S    
C33   O17   A    
C4    O14   A    
Cr6   O9    S    
C28   O19   A    
C38   N1    S    
C41   H14   S    
C46   H22   S    
C22   C44   S    
C21   H23   S    
C45   H45   S    
C2    C27   S    
C44   H27   S    
C24   C28   S    
C9    C10   A    
Cr2   O19   S    
C41   H11   S    
C46   H25   S    
C33   O21   A    
Cr5   O7    S    
C21   C22   S    
Cr4   O6    S    
C47   H29   S    
Cr6   O3    S    
C15   C20   A    
C42   H21   S    
C44   H26   S    
C31   O5    A    
C44   C46   S    
C38   H4    S    
Cr6   O11   S    
Cr4   O23   S    
C39   N2    S    
C4    C51   S    
C27   O23   A    
Cr2   O13   S    
C32   O12   A    
Cr3   O20   S    
C2    C54   T    
Cr3   O16   S    
C30   O8    A    
C47   N3    S    
C29   O7    A    
C34   H44   S    
C40   H16   S    
C35   C36   A    
Cr2   O12   S    
C9    C14   A    
C1    O13   A    
Cr6   O2    S    
C38   H5    S    
C22   N3    S    
C17   C18   A    
C39   H9    S    
C34   C45   S    
C49   H35   S    
C25   O24   A    
Cr2   O22   S    
C46   H24   S    
H28   N3    S    
C27   O3    A    
C48   C49   S    
Cr1   O4    S    
C29   O6    A    
Cr1   O17   S    
Cr5   O8    S    
C23   C35   A    
Cr4   O5    S    
C47   H30   S    
C10   H46   S    
C1    O4    A    
C49   H32   S    
C37   C45   S    
C26   O2    A    
C30   O9    A    
C12   C51   A    
C52   C53   T    
C5    C30   S    
C45   C48   S    
C9    N4    S    
C15   C17   A    
C38   H6    S    
C40   C41   S    
Cr4   O11   S    
C8    C14   A    
C48   H36   S    
Cr1   O1    S    
C18   C22   S    
C47   H31   S    
Cr3   O21   S    
C16   C52   S    
C3    C5    T    
C6    C10   A    
C12   N1    S    
C20   C42   S    
C15   C31   S    
C6    C7    A    
C13   H12   S    
C43   H17   S    
C50   H40   S    
C34   H43   S    
C40   H15   S    
C19   C24   A    
C11   C13   S    
C16   O16   A    
Cr5   O25   S    
C39   H10   S    
Cr6   O10   S    
C34   C36   S    
C3    C32   S    
C25   O25   A    
C17   C21   S    
C31   O10   A    
C26   O26   A    
C19   C40   S    
C41   H13   S    
C26   C35   S    
C6    C29   S    
C13   H1    S    
Cr1   O18   S    
C50   H41   S    
Cr1   O22   S    
C42   C43   S    
C11   N2    S    
C49   H33   S    
H3    N1    S    
C28   O18   A    
C16   O1    A    
