data_mof_unit_29791.cif
_audit_creation_date              2012-12-10T19:10:03-0500
_audit_creation_method            fapswitch 2.2
_symmetry_space_group_name_H-M    P1
_symmetry_Int_Tables_number       1
_space_group_crystal_system       triclinic
_cell_length_a                    10.913028
_cell_length_b                    10.818769
_cell_length_c                    9.626641
_cell_angle_alpha                 87.150498
_cell_angle_beta                  90.649529
_cell_angle_gamma                 93.39281
_cell_volume                      1133.13933925

loop_
_atom_site_label
_atom_site_type_symbol
_atom_type_description
_atom_site_fract_x
_atom_site_fract_y
_atom_site_fract_z
_atom_type_partial_charge
C1    C     C_R   0.500656 0.262208 0.503139 0.809798
C2    C     C_R   0.269747 0.759392 0.062525 -0.134432
C3    C     C_R   0.936760 0.550331 0.384457 -0.204480
C4    C     C_R   0.872481 0.500351 0.501691 -0.088432
C5    C     C_R   0.939139 0.455418 0.618210 0.020068
C6    C     C_R   0.065080 0.448677 0.609059 -0.221768
C7    C     C_R   0.129030 0.499277 0.494065 -0.098362
C8    C     C_R   0.064737 0.553451 0.381069 -0.013211
C9    C     C_R   0.928945 0.560703 0.835203 -0.271365
C10   C     C_R   0.892348 0.570032 0.973705 0.456489
C11   C     C_R   0.825359 0.467809 0.037492 -0.195008
C12   C     C_R   0.262747 0.500466 0.498532 0.800565
C13   C     C_R   0.791745 0.362502 0.963723 -0.181561
C14   C     C_R   0.825578 0.356667 0.824877 -0.084494
C15   C     C_R   0.893420 0.456764 0.760626 0.084314
C16   C     C_R   0.407431 0.052150 0.562739 0.054313
C17   C     C_R   0.505295 0.128150 0.508461 -0.076985
C18   C     C_R   0.598941 0.074067 0.438305 -0.193906
C19   C     C_R   0.599578 0.944997 0.433781 0.125351
C20   C     C_R   0.499684 0.870251 0.488013 -0.088733
C21   C     C_R   0.401189 0.925481 0.545085 0.017785
C22   C     C_3   0.345378 0.893738 0.683149 -0.523149
C23   C     C_R   0.501609 0.737160 0.496750 0.839428
C24   C     C_3   0.365745 0.029256 0.710780 0.048041
C25   C     C_R   0.519874 0.607758 0.067065 0.240061
C26   C     C_R   0.452999 0.401106 0.080305 -0.086958
C27   C     C_R   0.445000 0.404570 0.932494 0.251410
C28   C     C_R   0.521271 0.607303 0.921493 0.188197
C29   C     C_3   0.623948 0.702814 0.910465 -0.463108
C30   C     C_3   0.622131 0.704444 0.069648 -0.435088
C31   C     C_R   0.737921 0.501043 0.500857 0.803339
C32   C     C_R   0.248106 0.812901 0.188332 -0.105838
C33   C     C_R   0.178265 0.746589 0.290853 -0.145036
C34   C     C_R   0.129950 0.626082 0.267861 0.167793
C35   C     C_R   0.153525 0.571954 0.142149 -0.024831
C36   C     C_R   0.222388 0.639113 0.039238 -0.169758
Cu1   Cu    Cu3+1 0.499990 0.499980 0.640670 0.982525
Cu2   Cu    Cu3+1 0.500010 0.500020 0.359330 0.961906
H1    H     H_    0.323812 0.810959 0.983572 0.151422
H2    H     H_    0.795781 0.470299 0.143703 0.164275
H3    H     H_    0.738800 0.285631 0.014307 0.178175
H4    H     H_    0.799746 0.275002 0.768181 0.151466
H5    H     H_    0.675106 0.131640 0.394898 0.162224
H6    H     H_    0.246803 0.862617 0.673486 0.171244
H7    H     H_    0.399381 0.832093 0.752014 0.227673
H8    H     H_    0.277300 0.069973 0.730515 0.167522
H9    H     H_    0.410555 0.323094 0.139959 0.177128
H10   H     H_    0.285751 0.905562 0.206575 0.148725
H11   H     H_    0.705096 0.665841 0.864212 0.217889
H12   H     H_    0.595577 0.790355 0.858572 0.223230
H13   H     H_    0.703802 0.670374 0.124440 0.252424
H14   H     H_    0.591004 0.792861 0.107029 0.224469
H15   H     H_    0.163069 0.788310 0.388725 0.122294
H16   H     H_    0.119146 0.478045 0.124352 0.126388
H17   H     H_    0.239401 0.597889 0.941657 0.144252
H18   H     H_    0.887770 0.595978 0.300501 0.205163
H19   H     H_    0.114373 0.415576 0.699558 0.191563
H20   H     H_    0.985201 0.633933 0.782564 0.124697
N1    N     N_R   0.500790 0.500930 0.147930 -0.205303
N2    N     N_R   0.500790 0.500890 0.852020 -0.197908
O1    O     O_R   0.500000 0.319640 0.618810 -0.531557
O2    O     O_R   0.500010 0.319680 0.381230 -0.594562
O3    O     O_R   0.319640 0.499990 0.618790 -0.570024
O4    O     O_R   0.319650 0.500030 0.381210 -0.577881
O5    O     O_R   0.499990 0.680320 0.618770 -0.588192
O6    O     O_R   0.500000 0.680360 0.381190 -0.565844
O7    O     O_R   0.680350 0.499970 0.618790 -0.568461
O8    O     O_R   0.680360 0.500010 0.381210 -0.589742
I1    I     I_    0.763541 0.868174 0.373528 -0.479413
I2    I     I_    0.513982 0.055482 0.860323 -0.452061
I3    I     I_    0.294273 0.297148 0.860433 -0.446853
O9    O     O_3   0.917179 0.675457 0.050181 -0.607645
C37   C     C_3   0.946618 0.784747 0.966598 0.057106
H21   H     H_    0.882833 0.795050 0.876307 0.148435
H22   H     H_    0.042250 0.784697 0.928738 0.160097
C38   C     C_3   0.937041 0.898241 0.051556 -0.705913
H23   H     H_    0.989372 0.887814 0.150503 0.270432
H24   H     H_    0.974937 0.981937 0.991574 0.201818
H25   H     H_    0.839227 0.911074 0.073756 0.266369

loop_
_geom_bond_atom_site_label_1
_geom_bond_atom_site_label_2
_ccdc_geom_bond_type
C30   H13   S    
C16   C21   A    
C37   H22   S    
C37   H21   S    
C19   C20   A    
C38   H25   S    
C1    O2    A    
C13   H3    S    
C24   I2    S    
C7    C8    A    
C29   H11   S    
C25   C28   A    
C31   O7    A    
C26   C27   A    
Cu1   Cu2   S    
C23   O6    A    
C28   C29   S    
C38   H24   S    
C18   C19   A    
C27   N2    A    
C5    C6    A    
C12   O4    A    
C2    C32   A    
C34   C35   A    
C2    H1    S    
C22   H6    S    
C35   C36   A    
C16   C17   A    
Cu1   O5    S    
C9    C10   A    
C14   H4    S    
C16   C24   S    
C13   C14   A    
C35   H16   S    
C32   H10   S    
C6    H19   S    
C31   O8    A    
Cu1   O3    S    
C17   C18   A    
Cu2   O4    S    
C29   H12   S    
C28   N2    A    
C33   H15   S    
C7    C12   S    
Cu1   N2    S    
Cu2   O6    S    
C38   H23   S    
C3    C8    A    
C12   O3    A    
O9    C37   S    
C29   C30   S    
C3    H18   S    
C20   C23   S    
C33   C34   A    
C8    C34   S    
C26   H9    S    
Cu2   O8    S    
C37   C38   S    
C22   C24   S    
C19   I1    S    
C3    C4    A    
C27   I3    S    
C26   N1    A    
C2    C36   A    
C25   C30   S    
C30   H14   S    
C9    H20   S    
C4    C5    A    
C1    O1    A    
Cu1   O1    S    
C6    C7    A    
C1    C17   S    
C24   H8    S    
C32   C33   A    
C23   O5    A    
C9    C15   A    
C36   H17   S    
C18   H5    S    
C11   C13   A    
Cu1   O7    S    
C11   H2    S    
C5    C15   S    
C4    C31   S    
C10   C11   A    
Cu2   N1    S    
C22   H7    S    
C20   C21   A    
C14   C15   A    
C25   N1    A    
C21   C22   S    
Cu2   O2    S    
C10   O9    S    
