data_mof_unit_46423.cif
_audit_creation_date              2012-12-11T16:08:54-0500
_audit_creation_method            fapswitch 2.2
_symmetry_space_group_name_H-M    P1
_symmetry_Int_Tables_number       1
_space_group_crystal_system       triclinic
_cell_length_a                    12.958298
_cell_length_b                    13.295416
_cell_length_c                    27.636051
_cell_angle_alpha                 95.088814
_cell_angle_beta                  90.376553
_cell_angle_gamma                 119.0372
_cell_volume                      4139.68467235

loop_
_atom_site_label
_atom_site_type_symbol
_atom_type_description
_atom_site_fract_x
_atom_site_fract_y
_atom_site_fract_z
_atom_type_partial_charge
C1    C     C_R   0.629280 0.894030 0.428127 0.545829
C2    C     C_R   0.147661 0.732882 0.299891 0.003174
C3    C     C_R   0.154918 0.734298 0.198174 0.011888
C4    C     C_R   0.600925 0.222010 0.440633 0.547275
C5    C     C_R   0.135854 0.632757 0.219331 0.032169
C6    C     C_R   0.123809 0.629796 0.270597 0.028529
C7    C     C_R   0.173466 0.747693 0.148142 0.020738
C8    C     C_R   0.133519 0.815870 0.126518 -0.002647
C9    C     C_R   0.194326 0.938998 0.357278 -0.125525
C10   C     C_R   0.169275 0.927482 0.307211 0.020826
C11   C     C_R   0.155087 0.827891 0.278124 0.041016
C12   C     C_R   0.654997 0.419648 0.237374 -0.102626
C13   C     C_R   0.165267 0.016794 0.285369 -0.122792
C14   C     C_R   0.150307 0.009118 0.234938 -0.121692
C15   C     C_R   0.145755 0.915156 0.205771 0.014245
C16   C     C_R   0.268191 0.875764 0.425545 0.547523
C17   C     C_R   0.150539 0.824915 0.227383 0.024477
C18   C     C_R   0.128913 0.905615 0.155374 -0.150226
C19   C     C_R   0.203007 0.851220 0.378317 -0.009399
C20   C     C_R   0.766124 0.921489 0.360972 -0.020421
C21   C     C_R   0.770380 0.916301 0.310190 -0.000611
C22   C     C_R   0.769284 0.910996 0.208743 0.009915
C23   C     C_R   0.648257 0.404815 0.286925 -0.106309
C24   C     C_R   0.864571 0.999738 0.237429 -0.139861
C25   C     C_R   0.866754 0.000864 0.287654 -0.129687
C26   C     C_R   0.771729 0.905300 0.158625 -0.130656
C27   C     C_R   0.687678 0.806293 0.129573 -0.005866
C28   C     C_R   0.627495 0.899092 0.564941 0.545328
C29   C     C_R   0.565420 0.758557 0.352911 -0.149531
C30   C     C_R   0.573879 0.744298 0.302801 0.006684
C31   C     C_R   0.672814 0.827879 0.281138 0.047711
C32   C     C_R   0.481641 0.652404 0.273668 -0.131724
C33   C     C_R   0.485506 0.644607 0.223077 -0.141349
C34   C     C_R   0.671219 0.321612 0.304459 0.033006
C35   C     C_R   0.581047 0.730101 0.201040 0.008781
C36   C     C_R   0.674075 0.823149 0.230304 0.064451
C37   C     C_R   0.589187 0.721224 0.150525 -0.145026
C38   C     C_R   0.657067 0.852720 0.381511 -0.020496
C39   C     C_R   0.743165 0.301230 0.651112 -0.112824
C40   C     C_R   0.603963 0.228600 0.578078 0.543579
C41   C     C_R   0.756858 0.324439 0.701724 0.017675
C42   C     C_R   0.769906 0.350062 0.803892 0.005462
C43   C     C_R   0.859177 0.341575 0.778474 -0.137356
C44   C     C_R   0.851875 0.327282 0.727626 -0.131305
C45   C     C_R   0.683916 0.350869 0.205026 0.028880
C46   C     C_R   0.777277 0.367525 0.854711 -0.138589
C47   C     C_R   0.687983 0.378354 0.879173 -0.007173
C48   C     C_R   0.566084 0.320910 0.651316 -0.121508
C49   C     C_R   0.574993 0.338140 0.701623 0.007447
C50   C     C_R   0.669246 0.337426 0.727097 0.059330
C51   C     C_R   0.486093 0.347360 0.726778 -0.139864
C52   C     C_R   0.271585 0.879601 0.563281 0.549130
C53   C     C_R   0.488346 0.352102 0.777169 -0.141262
C54   C     C_R   0.581486 0.351329 0.802780 0.002082
C55   C     C_R   0.673644 0.346223 0.777935 0.055101
C56   C     C_1   0.693325 0.369788 0.154360 -0.070712
C57   C     C_R   0.586625 0.361536 0.853065 -0.132896
C58   C     C_R   0.643515 0.292185 0.626354 0.005414
C59   C     C_1   0.221305 0.863053 0.609844 -0.000298
C60   C     C_R   0.063558 0.757411 0.718030 0.008391
C61   C     C_R   0.049873 0.748405 0.767984 -0.107413
C62   C     C_R   0.244506 0.914987 0.786148 -0.110661
C63   C     C_R   0.258756 0.924502 0.736400 -0.119687
C64   C     C_1   0.633610 0.270250 0.395159 -0.011061
C65   C     C_R   0.169138 0.845797 0.702113 0.022870
C66   C     C_R   0.140468 0.826426 0.801975 0.022995
C67   C     C_1   0.654001 0.298503 0.354536 -0.058667
C68   C     C_1   0.124480 0.814230 0.852965 -0.055248
C69   C     C_1   0.192081 0.853585 0.651208 -0.043023
C70   C     C_1   0.101114 0.797060 0.894577 -0.012044
C71   C     C_1   0.642952 0.867220 0.611458 -0.006575
C72   C     C_R   0.649314 0.915933 0.738058 -0.104971
C73   C     C_R   0.649688 0.902690 0.787619 -0.105091
C74   C     C_R   0.652292 0.722262 0.768482 -0.105060
C75   C     C_R   0.651939 0.735535 0.718833 -0.101324
C76   C     C_R   0.701611 0.253753 0.272219 -0.110340
C77   C     C_R   0.651291 0.832914 0.703606 0.035999
C78   C     C_1   0.703331 0.395409 0.113218 -0.022690
C79   C     C_R   0.651434 0.805996 0.802941 0.035289
C80   C     C_1   0.663350 0.797408 0.853915 -0.058865
C81   C     C_1   0.649138 0.847977 0.652828 -0.052390
C82   C     C_1   0.681645 0.789239 0.895764 -0.013842
C83   C     C_R   0.066902 0.773703 0.079002 0.546031
C84   C     C_R   0.717018 0.441144 0.067183 0.546444
C85   C     C_R   0.720934 0.783023 0.081133 0.545136
C86   C     C_R   0.056785 0.766149 0.941410 0.542296
C87   C     C_R   0.709939 0.433663 0.929014 0.545997
C88   C     C_R   0.708131 0.268446 0.222600 -0.120987
C89   C     C_R   0.168862 0.745260 0.350507 -0.133059
C90   C     C_R   0.715828 0.776029 0.943098 0.544845
C91   C     C_1   0.871793 0.998875 0.391563 0.215975
C92   C     C_1   0.969259 0.674632 0.683972 0.191744
C93   C     C_3   0.281045 0.745214 0.127407 -0.273329
C94   C     C_3   0.254677 0.662823 0.081084 -0.418074
C95   C     C_3   0.115788 0.524767 0.187034 -0.278437
C96   C     C_3   0.996312 0.467418 0.158730 -0.432627
C97   C     C_3   0.070872 0.515686 0.293462 -0.270817
C98   C     C_3   0.163910 0.484484 0.309614 -0.449572
Cr1   Cr    Cr6+3 0.416430 0.829200 0.492370 1.026916
Cr2   Cr    Cr6+3 0.674630 0.087020 0.504170 1.047567
Cr3   Cr    Cr6+3 0.408920 0.083740 0.503490 1.034628
Cr4   Cr    Cr6+3 0.914010 0.832750 0.013970 1.017991
Cr5   Cr    Cr6+3 0.922310 0.578600 0.003000 1.004209
Cr6   Cr    Cr6+3 0.656280 0.574630 0.003870 1.016694
H1    H     H_    0.718582 0.188409 0.285330 0.119709
H2    H     H_    0.407216 0.586353 0.290155 0.106106
H3    H     H_    0.731858 0.215725 0.198046 0.109379
H4    H     H_    0.483777 0.701648 0.368928 0.129141
H5    H     H_    0.855216 0.379572 0.874860 0.126483
H6    H     H_    0.804523 0.281363 0.631652 0.130293
H7    H     H_    0.933831 0.344844 0.797892 0.113963
H8    H     H_    0.919911 0.317666 0.708591 0.116576
H9    H     H_    0.516267 0.367974 0.871649 0.136852
H10   H     H_    0.418086 0.357725 0.796139 0.113158
H11   H     H_    0.413079 0.347375 0.707426 0.114711
H12   H     H_    0.145611 0.078095 0.218663 0.097965
H13   H     H_    0.490753 0.317118 0.632150 0.135265
H14   H     H_    0.637204 0.484477 0.224241 0.121812
H15   H     H_    0.969001 0.680051 0.780428 0.119226
H16   H     H_    0.314812 0.975894 0.812146 0.115227
H17   H     H_    0.340696 0.992409 0.724591 0.118980
H18   H     H_    0.648188 0.991302 0.726593 0.114521
H19   H     H_    0.650496 0.968561 0.813938 0.111775
H20   H     H_    0.655089 0.647770 0.780039 0.122138
H21   H     H_    0.652848 0.670572 0.692504 0.128369
H22   H     H_    0.623624 0.456992 0.311370 0.114861
H23   H     H_    0.173983 0.092567 0.307267 0.109143
H24   H     H_    0.171012 0.676857 0.368023 0.139872
H25   H     H_    0.106767 0.964340 0.138975 0.124621
H26   H     H_    0.329312 0.644907 0.075694 0.119560
H27   H     H_    0.172639 0.579453 0.083074 0.168589
H28   H     H_    0.246603 0.703508 0.048939 0.172531
H29   H     H_    0.346089 0.833896 0.119212 0.140969
H30   H     H_    0.328060 0.724268 0.155215 0.142206
H31   H     H_    0.925307 0.442863 0.184652 0.160715
H32   H     H_    0.990077 0.526309 0.134326 0.191553
H33   H     H_    0.983256 0.388150 0.136319 0.128386
H34   H     H_    0.215983 0.019497 0.378959 0.137870
H35   H     H_    0.187284 0.544089 0.162027 0.139573
H36   H     H_    0.118987 0.459170 0.207804 0.136723
H37   H     H_    0.234461 0.556208 0.333948 0.148533
H38   H     H_    0.121218 0.406837 0.329748 0.145072
H39   H     H_    0.204706 0.463908 0.277934 0.133578
H40   H     H_    0.020588 0.519421 0.325340 0.144958
H41   H     H_    0.002555 0.443701 0.268400 0.148502
H42   H     H_    0.847106 0.972870 0.142773 0.130213
H43   H     H_    0.938803 0.066955 0.220950 0.097510
H44   H     H_    0.942401 0.070713 0.308600 0.121207
H45   H     H_    0.523404 0.645335 0.128113 0.119079
H46   H     H_    0.413854 0.572181 0.201264 0.100676
N1    N     N_1   0.956191 0.060387 0.415842 -0.307735
N2    N     N_1   0.893563 0.608267 0.656740 -0.304940
O1    O     O_R   0.296680 0.802170 0.437540 -0.521142
O2    O     O_R   0.637200 0.461990 0.052510 -0.507959
O3    O     O_R   0.664790 0.681920 0.057970 -0.500728
O4    O     O_R   0.525380 0.838530 0.443500 -0.505571
O5    O     O_R   0.815840 0.852920 0.961840 -0.506492
O6    O     O_R   0.012100 0.822630 0.963670 -0.493231
O7    O     O_R   0.037010 0.668460 0.953040 -0.514727
O8    O     O_R   0.813390 0.478970 0.949660 -0.499992
O9    O     O_R   0.632250 0.456930 0.945520 -0.521134
O10   O     O_R   0.660200 0.677230 0.958780 -0.496861
O11   O     O_3   0.830870 0.661990 0.006950 -0.238770
O12   O     O_R   0.662610 0.183990 0.557860 -0.503020
O13   O     O_R   0.702130 0.995190 0.446810 -0.493086
O14   O     O_R   0.661770 0.181390 0.458760 -0.490789
O15   O     O_R   0.499820 0.198480 0.455280 -0.508807
O16   O     O_R   0.311660 0.976250 0.449080 -0.496648
O17   O     O_R   0.297580 0.804960 0.544440 -0.503516
O18   O     O_R   0.526220 0.841130 0.542590 -0.495318
O19   O     O_R   0.703030 0.997990 0.553710 -0.505903
O20   O     O_R   0.500730 0.201280 0.562180 -0.519124
O21   O     O_R   0.312500 0.978850 0.548170 -0.494195
O22   O     O_3   0.499990 0.999990 0.500010 -0.249910
O23   O     O_R   0.820790 0.857990 0.068830 -0.524642
O24   O     O_R   0.016700 0.827330 0.062850 -0.502941
O25   O     O_R   0.041970 0.673520 0.060040 -0.522936
O26   O     O_R   0.817980 0.483660 0.048840 -0.501630

loop_
_geom_bond_atom_site_label_1
_geom_bond_atom_site_label_2
_ccdc_geom_bond_type
C15   C18   A    
C66   C68   S    
C63   C65   A    
C97   H41   S    
C76   H1    S    
C98   H39   S    
C61   H15   S    
C8    C83   S    
C74   H20   S    
C95   C96   S    
Cr3   O16   S    
Cr4   O6    S    
Cr6   O11   S    
C97   C98   S    
C7    C8    A    
C39   C41   A    
Cr1   O18   S    
C53   C54   A    
C21   C31   A    
C12   C23   A    
C95   H36   S    
C72   C77   A    
C90   O10   A    
C35   C37   A    
C27   C37   A    
C40   O12   A    
C3    C7    A    
C33   H46   S    
Cr6   O10   S    
C30   C31   A    
C14   H12   S    
Cr5   O8    S    
Cr4   O24   S    
C56   C78   T    
C87   O8    A    
Cr3   O20   S    
Cr2   O14   S    
C85   O3    A    
C27   C85   S    
C2    C89   A    
C5    C95   S    
C46   C47   A    
Cr2   O22   S    
C84   O2    A    
C61   C66   A    
C9    C19   A    
C39   H6    S    
C35   C36   A    
C45   C56   S    
Cr4   O11   S    
C49   C51   A    
C29   C38   A    
C92   N2    T    
C29   H4    S    
C1    O13   A    
C30   C32   A    
C29   C30   A    
C86   O7    A    
C76   C88   A    
C62   H16   S    
Cr6   O9    S    
C32   H2    S    
C83   O24   A    
C98   H38   S    
Cr2   O19   S    
Cr3   O22   S    
C2    C6    A    
C43   H7    S    
C2    C11   A    
Cr4   O5    S    
C63   H17   S    
C96   H31   S    
C60   C92   S    
C73   C79   A    
C7    C93   S    
C20   C91   S    
C40   C58   S    
C74   C75   A    
C62   C66   A    
C6    C97   S    
C45   C88   A    
C24   C25   A    
C96   H32   S    
C93   H30   S    
C96   H33   S    
C88   H3    S    
C83   O25   A    
C72   C73   A    
C57   H9    S    
C73   H19   S    
Cr4   O23   S    
C39   C58   A    
C26   H42   S    
C10   C13   A    
C8    C18   A    
C60   C61   A    
C75   H21   S    
C47   C87   S    
C52   O17   A    
C1    O4    A    
C43   C44   A    
C64   C67   T    
C97   H40   S    
C62   C63   A    
C19   C89   A    
C52   C59   S    
C42   C55   A    
C47   C57   A    
C20   C38   A    
C9    H34   S    
C28   O19   A    
C77   C81   S    
C23   C34   A    
Cr1   O4    S    
Cr5   O11   S    
C26   C27   A    
Cr2   O12   S    
C93   C94   S    
C94   H26   S    
C84   O26   A    
C75   C77   A    
C1    C38   S    
C59   C69   T    
C23   H22   S    
C12   H14   S    
C44   H8    S    
C28   O18   A    
C48   C49   A    
C87   O9    A    
C60   C65   A    
C74   C79   A    
C98   H37   S    
C42   C46   A    
C41   C44   A    
C22   C24   A    
C28   C71   S    
C42   C43   A    
C70   C86   S    
C41   C50   A    
C40   O20   A    
C53   H10   S    
C9    C10   A    
C15   C17   A    
C21   C25   A    
C54   C55   A    
C11   C17   A    
C72   H18   S    
C31   C36   A    
C95   H35   S    
C50   C55   A    
C37   H45   S    
C12   C45   A    
C3    C5    A    
C24   H43   S    
C34   C67   S    
C86   O6    A    
C48   C58   A    
C48   H13   S    
Cr1   O17   S    
C22   C36   A    
C4    C64   S    
C93   H29   S    
C94   H27   S    
C82   C90   S    
C4    O15   A    
C51   H11   S    
Cr5   O26   S    
Cr6   O2    S    
C32   C33   A    
C90   O5    A    
C85   O23   A    
C91   N1    T    
Cr5   O7    S    
C5    C6    A    
Cr1   O22   S    
C16   O16   A    
C16   C19   S    
C65   C69   S    
Cr1   O1    S    
C33   C35   A    
C80   C82   T    
C4    O14   A    
C3    C17   A    
C25   H44   S    
Cr6   O3    S    
C94   H28   S    
C10   C11   A    
C51   C53   A    
C79   C80   S    
C13   H23   S    
C78   C84   S    
C20   C21   A    
C68   C70   T    
C49   C50   A    
C22   C26   A    
C46   H5    S    
C16   O1    A    
C14   C15   A    
Cr2   O13   S    
C18   H25   S    
Cr5   O25   S    
C13   C14   A    
C52   O21   A    
C89   H24   S    
Cr3   O15   S    
C34   C76   A    
Cr3   O21   S    
C71   C81   T    
C54   C57   A    
