data_mof_unit_16918.cif
_audit_creation_date              2012-12-11T15:17:50-0500
_audit_creation_method            fapswitch 2.2
_symmetry_space_group_name_H-M    P1
_symmetry_Int_Tables_number       1
_space_group_crystal_system       triclinic
_cell_length_a                    15.663285
_cell_length_b                    15.663282
_cell_length_c                    34.506725
_cell_angle_alpha                 90.043255
_cell_angle_beta                  90.04325
_cell_angle_gamma                 119.472581
_cell_volume                      7370.26611262

loop_
_atom_site_label
_atom_site_type_symbol
_atom_type_description
_atom_site_fract_x
_atom_site_fract_y
_atom_site_fract_z
_atom_type_partial_charge
C1    C     C_R   0.577797 0.442277 0.554599 0.540609
C2    C     C_R   0.558102 0.135427 0.554652 0.548011
C3    C     C_R   0.864588 0.422277 0.554638 0.556354
C4    C     C_R   0.442276 0.577797 0.054599 0.540608
C5    C     C_R   0.135427 0.558102 0.054651 0.548010
C6    C     C_R   0.422277 0.864588 0.054638 0.556354
C7    C     C_R   0.979690 0.493524 0.712771 0.350746
C8    C     C_R   0.507382 0.487793 0.712512 0.350280
C9    C     C_R   0.465041 0.926549 0.699339 0.347085
C10   C     C_R   0.493523 0.979689 0.212771 0.350746
C11   C     C_R   0.487795 0.507381 0.212512 0.350280
C12   C     C_R   0.926549 0.465041 0.199339 0.347085
C13   C     C_R   0.008552 0.432847 0.853607 -0.133270
C14   C     C_R   0.568097 0.569826 0.854372 -0.135445
C15   C     C_R   0.344781 0.848541 0.836531 -0.133409
C16   C     C_R   0.432847 0.008549 0.353608 -0.133269
C17   C     C_R   0.569827 0.568097 0.354372 -0.135445
C18   C     C_R   0.848548 0.344785 0.336531 -0.133410
C19   C     C_R   0.043084 0.446545 0.891453 -0.162981
C20   C     C_R   0.553972 0.590526 0.892262 -0.155039
C21   C     C_R   0.336295 0.836521 0.876507 -0.166467
C22   C     C_R   0.446544 0.043082 0.391453 -0.162982
C23   C     C_R   0.590526 0.553972 0.392262 -0.155039
C24   C     C_R   0.836527 0.336298 0.376507 -0.166465
C25   C     C_R   0.062667 0.610395 0.891617 0.240212
C26   C     C_R   0.384442 0.459198 0.889576 0.244992
C27   C     C_R   0.487331 0.828595 0.878548 0.246175
C28   C     C_R   0.610398 0.062672 0.391616 0.240213
C29   C     C_R   0.459198 0.384441 0.389576 0.244992
C30   C     C_R   0.828596 0.487332 0.378548 0.246174
C31   C     C_R   0.030156 0.596908 0.853177 -0.100619
C32   C     C_R   0.399114 0.439703 0.851398 -0.101084
C33   C     C_R   0.494320 0.839147 0.838062 -0.103114
C34   C     C_R   0.596909 0.030159 0.353176 -0.100626
C35   C     C_R   0.439704 0.399113 0.351398 -0.101082
C36   C     C_R   0.839149 0.494321 0.338062 -0.103115
C37   C     C_R   0.006933 0.509768 0.833430 -0.010191
C38   C     C_R   0.489449 0.497414 0.833036 -0.010627
C39   C     C_R   0.424332 0.851024 0.816905 -0.007824
C40   C     C_R   0.509768 0.006932 0.333430 -0.010189
C41   C     C_R   0.497416 0.489449 0.333036 -0.010627
C42   C     C_R   0.851028 0.424335 0.316906 -0.007824
C43   C     C_R   0.076034 0.537167 0.910023 0.024016
C44   C     C_R   0.461050 0.539315 0.909486 0.030985
C45   C     C_R   0.407262 0.827169 0.898138 0.021647
C46   C     C_R   0.537168 0.076035 0.410023 0.024024
C47   C     C_R   0.539315 0.461050 0.409486 0.030983
C48   C     C_R   0.827172 0.407264 0.398138 0.021648
C49   C     C_R   0.577938 0.441768 0.445352 0.565195
C50   C     C_R   0.557934 0.135347 0.445540 0.556722
C51   C     C_R   0.810507 0.392668 0.440445 0.587255
C52   C     C_R   0.441768 0.577938 0.945352 0.565197
C53   C     C_R   0.135347 0.557934 0.945540 0.556714
C54   C     C_R   0.392667 0.810506 0.940445 0.587256
C55   C     C_R   0.920210 0.455577 0.591299 0.006009
C56   C     C_R   0.544578 0.465288 0.591172 0.006767
C57   C     C_R   0.531000 0.068593 0.588408 0.009132
C58   C     C_R   0.455577 0.920210 0.091299 0.006009
C59   C     C_R   0.465288 0.544578 0.091172 0.006766
C60   C     C_R   0.068592 0.531000 0.088407 0.009132
C61   C     C_R   0.935005 0.387284 0.612411 -0.152907
C62   C     C_R   0.613041 0.547450 0.612278 -0.153065
C63   C     C_R   0.442858 0.044248 0.607669 -0.155955
C64   C     C_R   0.387283 0.935005 0.112411 -0.152907
C65   C     C_R   0.547451 0.613041 0.112277 -0.153065
C66   C     C_R   0.044248 0.442858 0.107669 -0.155956
C67   C     C_R   0.959577 0.402431 0.651402 -0.128876
C68   C     C_R   0.598200 0.557313 0.651246 -0.130021
C69   C     C_R   0.419637 0.994049 0.642644 -0.131312
C70   C     C_R   0.402431 0.959577 0.151402 -0.128876
C71   C     C_R   0.557314 0.598199 0.151245 -0.130021
C72   C     C_R   0.994049 0.419637 0.142644 -0.131312
C73   C     C_R   0.969824 0.486177 0.670296 -0.015828
C74   C     C_R   0.514548 0.485282 0.670079 -0.016016
C75   C     C_R   0.484505 0.967770 0.659786 -0.016585
C76   C     C_R   0.486176 0.969824 0.170296 -0.015828
C77   C     C_R   0.485283 0.514547 0.170079 -0.016016
C78   C     C_R   0.967770 0.484505 0.159786 -0.016585
C79   C     C_R   0.965432 0.559576 0.648525 -0.047517
C80   C     C_R   0.440866 0.408685 0.648292 -0.048025
C81   C     C_R   0.570298 0.986995 0.639870 -0.050070
C82   C     C_R   0.559575 0.965432 0.148525 -0.047517
C83   C     C_R   0.408686 0.440865 0.148292 -0.048025
C84   C     C_R   0.986994 0.570298 0.139870 -0.050070
C85   C     C_R   0.943383 0.546441 0.608951 0.232089
C86   C     C_R   0.453758 0.399296 0.608751 0.233104
C87   C     C_R   0.592902 0.034387 0.603869 0.229961
C88   C     C_R   0.546441 0.943383 0.108951 0.232088
C89   C     C_R   0.399296 0.453757 0.108750 0.233104
C90   C     C_R   0.034386 0.592901 0.103869 0.229961
C91   C     C_R   0.991119 0.502251 0.791219 0.351946
C92   C     C_R   0.498131 0.489720 0.790908 0.351882
C93   C     C_R   0.436310 0.871039 0.774878 0.353141
C94   C     C_R   0.502251 0.991119 0.291219 0.351947
C95   C     C_R   0.489721 0.498130 0.290907 0.351882
C96   C     C_R   0.871041 0.436312 0.274878 0.353141
Cr1   Cr    Cr6+3 0.522350 0.263930 0.500020 1.039323
Cr2   Cr    Cr6+3 0.736070 0.258420 0.500020 1.037220
Cr3   Cr    Cr6+3 0.741580 0.477650 0.500020 1.041637
Cr4   Cr    Cr6+3 0.263930 0.522350 0.000020 1.039324
Cr5   Cr    Cr6+3 0.258420 0.736070 0.000020 1.037215
Cr6   Cr    Cr6+3 0.477650 0.741580 0.000020 1.041637
H1    H     H_    0.920661 0.318299 0.599603 0.163573
H2    H     H_    0.682010 0.600935 0.599514 0.165750
H3    H     H_    0.392811 0.067358 0.596485 0.163321
H4    H     H_    0.318299 0.920661 0.099603 0.163573
H5    H     H_    0.600936 0.682009 0.099514 0.165750
H6    H     H_    0.067359 0.392812 0.096485 0.163321
H7    H     H_    0.049849 0.388033 0.905244 0.149185
H8    H     H_    0.614428 0.650645 0.907253 0.146714
H9    H     H_    0.273692 0.834803 0.890525 0.190785
H10   H     H_    0.388031 0.049845 0.405244 0.149183
H11   H     H_    0.650645 0.614428 0.407253 0.146713
H12   H     H_    0.834811 0.273697 0.390525 0.190785
H13   H     H_    0.965274 0.345652 0.667143 0.159476
H14   H     H_    0.655112 0.618845 0.667017 0.159549
H15   H     H_    0.352460 0.979742 0.657025 0.158909
H16   H     H_    0.345652 0.965273 0.167143 0.159475
H17   H     H_    0.618846 0.655111 0.167017 0.159549
H18   H     H_    0.979742 0.352461 0.157025 0.158909
H19   H     H_    0.977063 0.626637 0.662302 0.166230
H20   H     H_    0.373790 0.354471 0.662037 0.166033
H21   H     H_    0.620209 0.965059 0.652173 0.164455
H22   H     H_    0.626637 0.977063 0.162302 0.166230
H23   H     H_    0.354473 0.373788 0.162036 0.166033
H24   H     H_    0.965057 0.620208 0.152172 0.164454
H25   H     H_    0.989031 0.363887 0.839460 0.151379
H26   H     H_    0.639226 0.614418 0.841156 0.147608
H27   H     H_    0.289187 0.857024 0.821105 0.158282
H28   H     H_    0.363885 0.989026 0.339461 0.151379
H29   H     H_    0.614419 0.639226 0.341156 0.147606
H30   H     H_    0.857032 0.289192 0.321105 0.158281
H31   H     H_    0.027746 0.656686 0.838412 0.147960
H32   H     H_    0.337444 0.383187 0.835539 0.150207
H33   H     H_    0.554856 0.838247 0.823298 0.144165
H34   H     H_    0.656689 0.027752 0.338411 0.147955
H35   H     H_    0.383188 0.337443 0.335539 0.150209
H36   H     H_    0.838247 0.554856 0.323298 0.144165
N1    N     N_R   0.978414 0.421285 0.772001 -0.220661
N2    N     N_R   0.579331 0.556944 0.771973 -0.219249
N3    N     N_R   0.366325 0.878897 0.754570 -0.216260
N4    N     N_R   0.421285 0.978413 0.272001 -0.220661
N5    N     N_R   0.556946 0.579330 0.271972 -0.219250
N6    N     N_R   0.878897 0.366326 0.254570 -0.216261
N7    N     N_R   0.972440 0.416871 0.733609 -0.218184
N8    N     N_R   0.583994 0.555729 0.733563 -0.216217
N9    N     N_R   0.380408 0.906088 0.717611 -0.217830
N10   N     N_R   0.416871 0.972439 0.233609 -0.218184
N11   N     N_R   0.555731 0.583993 0.233563 -0.216217
N12   N     N_R   0.906088 0.380408 0.217611 -0.217830
N13   N     N_R   0.991618 0.574418 0.731938 -0.219682
N14   N     N_R   0.426419 0.419935 0.731430 -0.223594
N15   N     N_R   0.534285 0.916514 0.719352 -0.222910
N16   N     N_R   0.574417 0.991618 0.231938 -0.219683
N17   N     N_R   0.419937 0.426418 0.231429 -0.223595
N18   N     N_R   0.916516 0.534286 0.219352 -0.222910
N19   N     N_R   0.997782 0.578908 0.770438 -0.221890
N20   N     N_R   0.421693 0.421247 0.769886 -0.224020
N21   N     N_R   0.520162 0.889237 0.756402 -0.223011
N22   N     N_R   0.578907 0.997781 0.270438 -0.221891
N23   N     N_R   0.421249 0.421692 0.269886 -0.224020
N24   N     N_R   0.889240 0.520164 0.256402 -0.223011
O1    O     O_R   0.498680 0.159540 0.541860 -0.513303
O2    O     O_R   0.840460 0.339140 0.541860 -0.508257
O3    O     O_R   0.660860 0.501320 0.541860 -0.515511
O4    O     O_R   0.159540 0.498680 0.041860 -0.513303
O5    O     O_R   0.339140 0.840460 0.041860 -0.508257
O6    O     O_R   0.501320 0.660860 0.041860 -0.515511
O7    O     O_R   0.532760 0.358060 0.540030 -0.489532
O8    O     O_R   0.641940 0.174700 0.540030 -0.493855
O9    O     O_R   0.825300 0.467240 0.540030 -0.485247
O10   O     O_R   0.358060 0.532760 0.040030 -0.489532
O11   O     O_R   0.174700 0.641940 0.040030 -0.493855
O12   O     O_R   0.467240 0.825300 0.040030 -0.485246
O13   O     O_R   0.498590 0.161190 0.456930 -0.513151
O14   O     O_R   0.838810 0.337400 0.456930 -0.522375
O15   O     O_R   0.662600 0.501410 0.456930 -0.504396
O16   O     O_R   0.161190 0.498590 0.956930 -0.513149
O17   O     O_R   0.337400 0.838810 0.956930 -0.522376
O18   O     O_R   0.501410 0.662600 0.956930 -0.504397
O19   O     O_R   0.532680 0.359580 0.461300 -0.465018
O20   O     O_R   0.640420 0.173100 0.461300 -0.482492
O21   O     O_R   0.826900 0.467320 0.461300 -0.470337
O22   O     O_R   0.359580 0.532680 0.961300 -0.465016
O23   O     O_R   0.173100 0.640420 0.961300 -0.482500
O24   O     O_R   0.467320 0.826900 0.961300 -0.470337
O25   O     O_3   0.666667 0.333333 0.499990 -0.276816
O26   O     O_3   0.333333 0.666667 0.999990 -0.276816
O27   O     O_3   0.942026 0.622220 0.589195 -0.691454
H37   H     H_    0.958791 0.618945 0.561770 0.329632
O28   O     O_3   0.377810 0.323417 0.588963 -0.690174
H38   H     H_    0.381249 0.343180 0.561501 0.326529
O29   O     O_3   0.675958 0.046441 0.585305 -0.692758
H39   H     H_    0.662989 0.040498 0.557076 0.326685
O30   O     O_3   0.622219 0.942026 0.089195 -0.691453
H40   H     H_    0.618945 0.958791 0.061770 0.329632
O31   O     O_3   0.323417 0.377809 0.088963 -0.690175
H41   H     H_    0.343179 0.381248 0.061501 0.326530
O32   O     O_3   0.046439 0.675957 0.085304 -0.692758
H42   H     H_    0.040496 0.662987 0.057075 0.326684
O33   O     O_3   0.092248 0.699974 0.909088 -0.562180
C97   C     C_3   0.012188 0.694301 0.929933 -0.007705
H43   H     H_    0.983318 0.633019 0.951307 0.122393
H44   H     H_    0.952233 0.684029 0.909782 0.125519
C98   C     C_3   0.045958 0.789488 0.952158 -0.355995
H45   H     H_    0.074217 0.852240 0.931702 0.153824
H46   H     H_    0.983505 0.786205 0.968608 0.094636
H47   H     H_    0.105082 0.800905 0.972834 0.168213
O34   O     O_3   0.291020 0.409080 0.904918 -0.533411
C99   C     C_3   0.276381 0.319457 0.920293 -0.005180
H48   H     H_    0.333778 0.331798 0.942188 0.120085
H49   H     H_    0.276942 0.270867 0.896822 0.125194
C100  C     C_3   0.177080 0.267659 0.940265 -0.350392
H50   H     H_    0.117967 0.253563 0.919163 0.150304
H51   H     H_    0.164262 0.196625 0.952346 0.091944
H52   H     H_    0.174944 0.313907 0.964254 0.171044
O35   O     O_3   0.554944 0.812855 0.898486 -0.535302
C101  C     C_3   0.644324 0.902071 0.900949 0.001705
H53   H     H_    0.633018 0.961680 0.913216 0.134270
H54   H     H_    0.679396 0.924636 0.871946 0.124194
C102  C     C_3   0.714038 0.888429 0.927614 -0.349873
H55   H     H_    0.729582 0.831699 0.915618 0.142617
H56   H     H_    0.784101 0.958574 0.930270 0.088664
H57   H     H_    0.680913 0.865341 0.956843 0.170967
O36   O     O_3   0.699978 0.092259 0.409086 -0.562179
C103  C     C_3   0.694321 0.012194 0.429923 -0.007712
H58   H     H_    0.684067 0.952257 0.409765 0.125520
H59   H     H_    0.633033 0.983298 0.451295 0.122391
C104  C     C_3   0.789505 0.045971 0.452150 -0.355991
H60   H     H_    0.800902 0.105074 0.472833 0.168207
H61   H     H_    0.786237 0.983512 0.468591 0.094634
H62   H     H_    0.852264 0.074260 0.431696 0.153827
O37   O     O_3   0.409080 0.291020 0.404918 -0.533411
C105  C     C_3   0.319460 0.276384 0.420295 -0.005177
H63   H     H_    0.270868 0.276948 0.396825 0.125193
H64   H     H_    0.331805 0.333781 0.442191 0.120084
C106  C     C_3   0.267661 0.177083 0.440267 -0.350392
H65   H     H_    0.313911 0.174944 0.464255 0.171046
H66   H     H_    0.196629 0.164268 0.452350 0.091942
H67   H     H_    0.253561 0.117970 0.419164 0.150304
O38   O     O_3   0.812856 0.554944 0.398486 -0.535301
C107  C     C_3   0.902070 0.644325 0.400949 0.001705
H68   H     H_    0.924634 0.679398 0.371946 0.124194
H69   H     H_    0.961680 0.633021 0.413216 0.134268
C108  C     C_3   0.888427 0.714039 0.427614 -0.349874
H70   H     H_    0.865340 0.680913 0.456843 0.170968
H71   H     H_    0.958571 0.784102 0.430269 0.088663
H72   H     H_    0.831695 0.729581 0.415618 0.142616

loop_
_geom_bond_atom_site_label_1
_geom_bond_atom_site_label_2
_ccdc_geom_bond_type
C25   C31   A    
C5    O11   A    
C24   H12   S    
Cr1   O13   S    
C7    N7    A    
Cr4   O10   S    
Cr6   O18   S    
O33   C97   S    
C6    C58   S    
C18   H30   S    
C79   C85   A    
C36   H36   S    
C31   H31   S    
Cr4   O16   S    
C53   O16   A    
C25   C43   A    
Cr3   O25   S    
C2    C57   S    
C26   C44   A    
C7    C73   S    
C80   H20   S    
C98   H45   S    
C27   C33   A    
C26   C32   A    
C79   H19   S    
C28   C46   A    
C86   O28   S    
Cr6   O24   S    
C84   C90   A    
C29   C47   A    
C18   C24   A    
N13   N19   A    
C30   C48   A    
C61   H1    S    
C1    C56   S    
C83   H23   S    
Cr3   O15   S    
C102  H57   S    
C25   O33   S    
C18   C42   A    
C98   H47   S    
Cr3   O9    S    
C77   C83   A    
C68   C74   A    
C38   C92   S    
C14   H26   S    
C54   O17   A    
Cr4   O4    S    
O38   C107  S    
C59   C89   A    
C51   O21   A    
C1    O7    A    
C93   N21   A    
C49   O15   A    
C53   O23   A    
C39   C93   S    
C92   N20   A    
C72   C78   A    
C11   C77   S    
C21   H9    S    
C33   C39   A    
C36   C42   A    
C43   C53   S    
C48   C51   S    
C66   C72   A    
C63   C69   A    
Cr3   O3    S    
C19   C43   A    
Cr1   O1    S    
C30   O38   S    
C12   C78   S    
N5    N11   A    
C94   N22   A    
C67   C73   A    
C32   C38   A    
C63   H3    S    
Cr5   O26   S    
C16   H28   S    
O37   C105  S    
C21   C45   A    
C11   N17   A    
C66   H6    S    
C27   C45   A    
C19   H7    S    
C60   C66   A    
O32   H42   S    
C102  H56   S    
C74   C80   A    
C108  H70   S    
C84   H24   S    
Cr4   O26   S    
C88   O30   S    
C10   N16   A    
C50   O20   A    
C105  H64   S    
C12   N18   A    
Cr5   O23   S    
C82   H22   S    
C20   C44   A    
C104  H60   S    
C11   N11   A    
C57   C63   A    
C103  H58   S    
C62   H2    S    
C100  H51   S    
C58   C64   A    
C83   C89   A    
N14   N20   A    
C107  C108  S    
C23   C47   A    
C97   H43   S    
C37   C91   S    
O28   H38   S    
C94   N4    A    
C14   C20   A    
C61   C67   A    
C87   O29   S    
O34   C99   S    
C76   C82   A    
C64   H4    S    
C13   C19   A    
C75   C81   A    
C30   C36   A    
C90   O32   S    
C6    O12   A    
O35   C101  S    
C100  H50   S    
N6    N12   A    
C97   C98   S    
C78   C84   A    
Cr6   O26   S    
C57   C87   A    
C16   C22   A    
C50   O13   A    
C105  C106  S    
C24   C48   A    
C55   C85   A    
C64   C70   A    
C52   O18   A    
N16   N22   A    
C102  H55   S    
Cr5   O17   S    
C13   H25   S    
C12   N12   A    
C17   H29   S    
C96   N6    A    
Cr2   O14   S    
C33   H33   S    
C107  H69   S    
C15   H27   S    
C34   H34   S    
C29   O37   S    
C72   H18   S    
C8    C74   S    
C107  H68   S    
C73   C79   A    
O27   H37   S    
N17   N23   A    
C17   C23   A    
C5    O4    A    
C56   C86   A    
C20   H8    S    
N4    N10   A    
C15   C39   A    
C81   C87   A    
C35   C41   A    
C97   H44   S    
C3    O2    A    
C16   C40   A    
C49   O19   A    
C99   H49   S    
C95   N23   A    
C22   C46   A    
C68   H14   S    
C45   C54   S    
C99   H48   S    
C103  H59   S    
C51   O14   A    
C106  H66   S    
Cr2   O25   S    
C70   C76   A    
C9    N15   A    
C91   N1    A    
C106  H67   S    
Cr6   O12   S    
C105  H63   S    
N2    N8    A    
C14   C38   A    
C103  C104  S    
C71   C77   A    
C93   N3    A    
N15   N21   A    
C101  C102  S    
C100  H52   S    
C89   O31   S    
Cr1   O25   S    
C46   C50   S    
C6    O5    A    
N1    N7    A    
Cr6   O6    S    
C4    O10   A    
C5    C60   S    
C8    N14   A    
C1    O3    A    
C4    O6    A    
C10   C76   S    
C67   H13   S    
C8    N8    A    
C95   N5    A    
C52   O22   A    
C40   C94   S    
C58   C88   A    
C2    O1    A    
Cr2   O2    S    
Cr1   O19   S    
C81   H21   S    
C60   C90   A    
Cr2   O20   S    
C104  H62   S    
C99   C100  S    
Cr5   O5    S    
C29   C35   A    
C3    C55   S    
C71   H17   S    
C101  H54   S    
C42   C96   S    
C28   O36   S    
C108  H71   S    
Cr1   O7    S    
C2    O8    A    
C65   C71   A    
C47   C49   S    
C59   C65   A    
C32   H32   S    
C44   C52   S    
C101  H53   S    
C41   C95   S    
C9    N9    A    
C13   C37   A    
C70   H16   S    
C82   C88   A    
C55   C61   A    
C4    C59   S    
C69   H15   S    
C96   N24   A    
C69   C75   A    
C26   O34   S    
C56   C62   A    
C62   C68   A    
C28   C34   A    
O31   H41   S    
Cr4   O22   S    
C17   C41   A    
C91   N19   A    
C27   O35   S    
N3    N9    A    
N18   N24   A    
O30   H40   S    
Cr2   O8    S    
C31   C37   A    
C80   C86   A    
C15   C21   A    
C7    N13   A    
C104  H61   S    
O29   H39   S    
C54   O24   A    
C108  H72   S    
C34   C40   A    
Cr3   O21   S    
C9    C75   S    
C23   H11   S    
C106  H65   S    
C98   H46   S    
C85   O27   S    
C65   H5    S    
C35   H35   S    
C3    O9    A    
C22   H10   S    
C10   N10   A    
Cr5   O11   S    
O36   C103  S    
C92   N2    A    
