data_mof_unit_17713.cif
_audit_creation_date              2012-10-26T21:21:40-0400
_audit_creation_method            fapswitch 2.2
_symmetry_space_group_name_H-M    P1
_symmetry_Int_Tables_number       1
_space_group_crystal_system       triclinic
_cell_length_a                    14.333285
_cell_length_b                    10.78181
_cell_length_c                    9.645985
_cell_angle_alpha                 89.792627
_cell_angle_beta                  90.471825
_cell_angle_gamma                 93.861962
_cell_volume                      1487.23605956

loop_
_atom_site_label
_atom_site_type_symbol
_atom_type_description
_atom_site_fract_x
_atom_site_fract_y
_atom_site_fract_z
_atom_type_partial_charge
C1    C     C_R   0.496681 0.262566 0.500198 0.531915
C2    C     C_R   0.556022 0.069301 0.422788 -0.147483
C3    C     C_R   0.556002 0.941370 0.422796 -0.156062
C4    C     C_R   0.331264 0.499230 0.499588 0.523047
C5    C     C_R   0.490072 0.870185 0.499831 0.001703
C6    C     C_R   0.611906 0.679035 0.151416 -0.085323
C7    C     C_R   0.653561 0.783170 0.089874 -0.194278
C8    C     C_R   0.652675 0.792664 0.949126 -0.146684
C9    C     C_R   0.615191 0.694445 0.867157 0.141682
C10   C     C_R   0.555624 0.592851 0.927130 0.183582
C11   C     C_R   0.554895 0.589839 0.076983 0.131729
C12   C     C_1   0.771084 0.499760 0.501082 -0.051013
C13   C     C_R   0.447561 0.414756 0.073121 -0.002406
C14   C     C_R   0.447762 0.414515 0.925804 -0.010915
C15   C     C_R   0.496630 0.736888 0.499816 0.530280
C16   C     C_R   0.668692 0.499726 0.500352 0.545626
C17   C     C_1   0.228891 0.499365 0.498937 -0.050848
C18   C     C_1   0.143435 0.499512 0.499206 -0.047736
C19   C     C_1   0.042731 0.499671 0.499903 -0.006443
C20   C     C_1   0.957265 0.499765 0.500516 -0.006599
C21   C     C_1   0.856552 0.499801 0.501039 -0.050269
C22   C     C_3   0.204472 0.105799 0.795323 -0.409051
C23   C     C_R   0.348744 0.115616 0.646392 -0.091032
C24   C     C_R   0.279681 0.044601 0.718874 0.009394
C25   C     C_R   0.280209 0.915210 0.718470 -0.103108
C26   C     C_R   0.348845 0.856853 0.646608 -0.115543
C27   C     C_R   0.420248 0.927116 0.575306 0.021748
C28   C     C_R   0.420283 0.058287 0.575447 0.011379
C29   C     C_R   0.490313 0.128141 0.500438 0.001189
Cu1   Cu    Cu3+1 0.499990 0.499990 0.640660 0.940634
Cu2   Cu    Cu3+1 0.500010 0.500010 0.359340 0.921127
H1    H     H_    0.609084 0.122981 0.364451 0.128150
H2    H     H_    0.692727 0.852997 0.151248 0.113889
H3    H     H_    0.651840 0.781458 0.686820 0.210181
H4    H     H_    0.726787 0.679391 0.745048 0.205927
H5    H     H_    0.212841 0.208712 0.786467 0.124783
H6    H     H_    0.134938 0.073909 0.752159 0.136843
H7    H     H_    0.207262 0.080388 0.906866 0.134609
H8    H     H_    0.693256 0.870237 0.902528 0.118053
H9    H     H_    0.404716 0.344219 0.870892 0.112389
H10   H     H_    0.344672 0.215339 0.644114 0.123719
H11   H     H_    0.226458 0.859106 0.772611 0.116598
H12   H     H_    0.344029 0.756459 0.645923 0.140311
H13   H     H_    0.609337 0.897662 0.365309 0.108035
H14   H     H_    0.404300 0.344603 0.127411 0.119785
H15   H     H_    0.628094 0.673370 0.258283 0.184033
N1    N     N_R   0.500820 0.501210 0.147910 -0.237583
N2    N     N_R   0.500850 0.501290 0.852040 -0.225536
N3    N     N_3   0.655666 0.693933 0.733210 -0.540860
O1    O     O_R   0.499990 0.319640 0.618810 -0.502645
O2    O     O_R   0.500000 0.319660 0.381240 -0.495386
O3    O     O_R   0.376050 0.499990 0.618810 -0.498053
O4    O     O_R   0.376060 0.500010 0.381240 -0.473079
O5    O     O_R   0.500000 0.680340 0.618760 -0.473571
O6    O     O_R   0.500010 0.680360 0.381190 -0.510800
O7    O     O_R   0.623940 0.499990 0.618760 -0.434756
O8    O     O_R   0.623950 0.500010 0.381190 -0.505281

loop_
_geom_bond_atom_site_label_1
_geom_bond_atom_site_label_2
_ccdc_geom_bond_type
C25   H11   S    
H4    N3    S    
C23   C24   A    
C16   O7    A    
C24   C25   A    
C6    C7    A    
C8    H8    S    
C4    O4    A    
C22   H5    S    
C9    C10   A    
C11   N1    A    
C19   C20   T    
C23   H10   S    
C5    C27   A    
Cu2   O8    S    
C1    C29   S    
C17   C18   T    
Cu1   O1    S    
C7    C8    A    
Cu2   N1    S    
C13   C14   A    
Cu2   O4    S    
C13   H14   S    
Cu1   O5    S    
C26   C27   A    
C4    O3    A    
C2    C29   A    
C4    C17   S    
Cu1   N2    S    
C28   C29   A    
C26   H12   S    
C2    C3    A    
C16   O8    A    
C10   N2    A    
Cu1   Cu2   S    
C22   C24   S    
C3    H13   S    
C5    C15   S    
C10   C11   A    
C7    H2    S    
C14   H9    S    
C22   H7    S    
C15   O5    A    
C27   C28   A    
C9    N3    S    
C20   C21   S    
C2    H1    S    
C18   C19   S    
C1    O1    A    
C6    C11   A    
C13   N1    A    
Cu1   O3    S    
H3    N3    S    
C14   N2    A    
C1    O2    A    
C6    H15   S    
Cu2   O6    S    
C25   C26   A    
C23   C28   A    
C22   H6    S    
Cu1   O7    S    
C12   C21   T    
C12   C16   S    
Cu2   O2    S    
C8    C9    A    
C3    C5    A    
C15   O6    A    
