data_mof_unit_27767.cif
_audit_creation_date              2012-12-11T15:47:01-0500
_audit_creation_method            fapswitch 2.2
_symmetry_space_group_name_H-M    P1
_symmetry_Int_Tables_number       1
_space_group_crystal_system       triclinic
_cell_length_a                    11.581068
_cell_length_b                    11.544057
_cell_length_c                    19.532364
_cell_angle_alpha                 90.587388
_cell_angle_beta                  90.236419
_cell_angle_gamma                 59.813031
_cell_volume                      2257.08584262

loop_
_atom_site_label
_atom_site_type_symbol
_atom_type_description
_atom_site_fract_x
_atom_site_fract_y
_atom_site_fract_z
_atom_type_partial_charge
C1    C     C_R   0.641712 0.118689 0.598496 0.546158
C2    C     C_1   0.662910 0.159626 0.664695 0.001081
C3    C     C_R   0.671144 0.644417 0.198048 -0.069692
C4    C     C_R   0.612604 0.745951 0.598557 0.545105
C5    C     C_R   0.593113 0.609599 0.237157 0.045733
C6    C     C_R   0.593540 0.613074 0.306875 -0.014917
C7    C     C_R   0.769688 0.668756 0.303631 0.240093
C8    C     C_R   0.766858 0.664228 0.231305 -0.183845
C9    C     C_3   0.448383 0.654053 0.232148 0.215424
C10   C     C_3   0.448927 0.650481 0.309961 0.194104
C11   C     C_R   0.668878 0.659902 0.340610 -0.004608
C12   C     C_1   0.641724 0.703546 0.667898 0.006045
C13   C     C_R   0.170108 0.185197 0.184903 0.013588
C14   C     C_R   0.194026 0.273868 0.222820 0.010171
C15   C     C_R   0.219624 0.255492 0.291639 0.005978
C16   C     C_R   0.241041 0.145441 0.598140 0.550510
C17   C     C_R   0.224357 0.045629 0.285870 -0.169118
C18   C     C_R   0.202200 0.062194 0.214825 -0.172636
C19   C     C_3   0.108719 0.421801 0.232395 -0.257080
C20   C     C_3   0.139011 0.401175 0.307880 -0.248569
C21   C     C_R   0.221938 0.148923 0.325742 0.015820
C22   C     C_R   0.681997 0.185348 0.195557 0.017922
C23   C     C_1   0.126365 0.198538 0.859268 0.002311
C24   C     C_R   0.791731 0.098609 0.235614 0.002436
C25   C     C_R   0.780136 0.085138 0.304216 -0.010164
C26   C     C_R   0.542933 0.235552 0.295456 -0.090251
C27   C     C_R   0.555132 0.250619 0.225308 -0.104599
C28   C     C_R   0.643781 0.113961 0.403022 0.543902
C29   C     C_3   0.922147 0.092929 0.244757 -0.237868
C30   C     C_3   0.907225 0.082090 0.320919 -0.278075
C31   C     C_R   0.657648 0.155419 0.335778 0.028179
C32   C     C_R   0.081677 0.231027 0.928609 0.540666
C33   C     C_R   0.683856 0.604179 0.929518 0.536664
C34   C     C_1   0.171132 0.170581 0.727607 -0.030753
C35   C     C_R   0.740454 0.231355 0.923029 0.555368
C36   C     C_R   0.088136 0.233384 0.123475 0.539567
C37   C     C_R   0.683576 0.609576 0.126465 0.550506
C38   C     C_R   0.709430 0.211259 0.127116 0.556671
C39   C     C_R   0.619797 0.734339 0.404125 0.558500
C40   C     C_R   0.252933 0.136447 0.398578 0.543218
C41   C     C_1   0.670095 0.646149 0.860120 0.004776
C42   C     C_1   0.655115 0.683198 0.728363 -0.031088
C43   C     C_1   0.663377 0.666241 0.799651 -0.031297
C44   C     C_3   0.915324 0.754056 0.305791 -0.108338
C45   C     C_1   0.149720 0.182233 0.798870 -0.031389
C46   C     C_3   0.299063 0.614532 0.173279 -0.109415
C47   C     C_3   0.330782 0.589826 0.382268 -0.118012
C48   C     C_1   0.195091 0.161344 0.667279 0.003795
C49   C     C_1   0.714154 0.218770 0.852307 0.001509
C50   C     C_1   0.678517 0.184736 0.722892 -0.029625
C51   C     C_1   0.696550 0.205668 0.792520 -0.030969
Cr1   Cr    Cr6+3 0.404720 0.198220 0.499960 1.021217
Cr2   Cr    Cr6+3 0.698290 0.897110 0.500380 1.057306
Cr3   Cr    Cr6+3 0.396970 0.904720 0.499610 1.008587
Cr4   Cr    Cr6+3 0.926290 0.152010 0.028150 1.012223
Cr5   Cr    Cr6+3 0.921440 0.451830 0.027490 1.015284
Cr6   Cr    Cr6+3 0.626370 0.446880 0.028730 1.048224
H1    H     H_    0.150942 0.477680 0.207051 0.122371
H2    H     H_    0.838797 0.674580 0.200761 0.121794
H3    H     H_    0.391118 0.756954 0.210369 0.035359
H4    H     H_    0.380943 0.750994 0.332097 0.076043
H5    H     H_    0.234140 0.957556 0.309778 0.106343
H6    H     H_    0.195423 0.986102 0.185246 0.112221
H7    H     H_    0.002973 0.456042 0.220874 0.168467
H8    H     H_    0.959878 0.791310 0.344176 0.144339
H9    H     H_    0.833998 0.841770 0.279134 0.130214
H10   H     H_    0.995357 0.689658 0.269105 0.091229
H11   H     H_    0.283178 0.690574 0.134140 0.108640
H12   H     H_    0.201188 0.443312 0.326172 0.144637
H13   H     H_    0.222533 0.660148 0.214485 0.091681
H14   H     H_    0.286751 0.536076 0.146820 0.123818
H15   H     H_    0.234122 0.656011 0.356250 0.086549
H16   H     H_    0.345418 0.643275 0.426177 0.135786
H17   H     H_    0.327020 0.502935 0.403313 0.139906
H18   H     H_    0.050449 0.425863 0.340032 0.185608
H19   H     H_    0.444162 0.284997 0.317819 0.157758
H20   H     H_    0.467337 0.313424 0.195130 0.158410
H21   H     H_    0.918236 0.187616 0.229968 0.159196
H22   H     H_    0.003629 0.999198 0.221711 0.129326
H23   H     H_    0.984415 0.984631 0.342220 0.119445
H24   H     H_    0.891141 0.172021 0.350370 0.148930
O1    O     O_R   0.267750 0.231960 0.575440 -0.503075
O2    O     O_R   0.596230 0.579400 0.952760 -0.515612
O3    O     O_R   0.639160 0.321170 0.958690 -0.492117
O4    O     O_R   0.527290 0.186640 0.570530 -0.494214
O5    O     O_R   0.821370 0.124220 0.104400 -0.521454
O6    O     O_R   0.037020 0.167050 0.097880 -0.509960
O7    O     O_R   0.056310 0.349620 0.102920 -0.519766
O8    O     O_R   0.797790 0.564880 0.097980 -0.508328
O9    O     O_R   0.596000 0.584270 0.104310 -0.479075
O10   O     O_R   0.638950 0.325690 0.099180 -0.466416
O11   O     O_3   0.824700 0.350240 0.028120 -0.276847
O12   O     O_R   0.685950 0.784660 0.430010 -0.439800
O13   O     O_R   0.728110 0.003450 0.576380 -0.506486
O14   O     O_R   0.682980 0.789190 0.570500 -0.494491
O15   O     O_R   0.499300 0.771880 0.575540 -0.507556
O16   O     O_R   0.285350 0.030870 0.569740 -0.492665
O17   O     O_R   0.270960 0.227070 0.423890 -0.523117
O18   O     O_R   0.530270 0.182120 0.430040 -0.514144
O19   O     O_R   0.731320 0.998570 0.424830 -0.505256
O20   O     O_3   0.867612 0.679704 0.340220 -0.552319
O21   O     O_3   0.428960 0.554535 0.200745 -0.500060
O22   O     O_3   0.437818 0.542166 0.335589 -0.523039
O23   O     O_R   0.502510 0.767000 0.423980 -0.548859
O24   O     O_R   0.288320 0.026340 0.429250 -0.510357
O25   O     O_3   0.499990 0.000020 0.499980 -0.261111
O26   O     O_R   0.821590 0.119350 0.952850 -0.500568
O27   O     O_R   0.037230 0.162540 0.957390 -0.510856
O28   O     O_R   0.056530 0.344750 0.951370 -0.502034
O29   O     O_R   0.798000 0.560370 0.957490 -0.494827

loop_
_geom_bond_atom_site_label_1
_geom_bond_atom_site_label_2
_ccdc_geom_bond_type
C25   C31   A    
C23   C45   T    
Cr6   O11   S    
Cr2   O14   S    
C44   H9    S    
C19   C20   S    
C16   C48   S    
C39   O23   A    
C36   O7    A    
C7    C11   A    
C46   O21   S    
C36   O6    A    
C29   C30   S    
C37   O9    A    
C38   O5    A    
Cr3   O23   S    
C10   O22   S    
C8    H2    S    
C40   O17   A    
C5    C6    A    
C18   H6    S    
Cr5   O7    S    
C22   C38   S    
C1    C2    S    
C24   C29   S    
C39   O12   A    
C12   C42   T    
C2    C50   T    
C4    O15   A    
Cr2   O25   S    
C29   H21   S    
C9    O21   S    
C49   C51   T    
C35   C49   S    
C26   H19   S    
Cr6   O2    S    
Cr3   O16   S    
C4    C12   S    
C9    C10   S    
Cr3   O15   S    
C30   H23   S    
C28   O19   A    
Cr1   O25   S    
C26   C31   A    
Cr2   O19   S    
C13   C14   A    
C41   C43   T    
C44   H8    S    
Cr5   O29   S    
C50   C51   S    
C19   H1    S    
C1    O4    A    
C15   C20   S    
C47   O22   S    
C32   O28   A    
Cr3   O25   S    
Cr2   O12   S    
C7    C8    A    
C24   C25   A    
C47   H16   S    
C13   C36   S    
C3    C8    A    
Cr6   O9    S    
C6    C11   A    
C1    O13   A    
C3    C5    A    
C38   O10   A    
C17   C21   A    
C20   H18   S    
Cr4   O26   S    
C11   C39   S    
C46   H11   S    
Cr4   O11   S    
C17   H5    S    
C4    O14   A    
C29   H22   S    
Cr5   O11   S    
C19   H7    S    
C44   O20   S    
C16   O1    A    
C17   C18   A    
C26   C27   A    
Cr6   O3    S    
C34   C45   S    
Cr1   O1    S    
C33   O2    A    
C46   H14   S    
C13   C18   A    
C28   O18   A    
Cr5   O8    S    
C22   C27   A    
C32   O27   A    
C22   C24   A    
C20   H12   S    
C10   H4    S    
C34   C48   T    
C42   C43   S    
Cr5   O28   S    
C25   C30   S    
Cr1   O4    S    
Cr6   O10   S    
Cr3   O24   S    
Cr2   O13   S    
C14   C19   S    
C28   C31   S    
C47   H17   S    
C5    C9    S    
C27   H20   S    
C6    C10   S    
C35   O3    A    
Cr1   O18   S    
C37   O8    A    
Cr4   O27   S    
C9    H3    S    
C33   C41   S    
C23   C32   S    
C30   H24   S    
C21   C40   S    
Cr4   O5    S    
Cr1   O17   S    
Cr4   O6    S    
C16   O16   A    
C47   H15   S    
C46   H13   S    
C35   O26   A    
C15   C21   A    
C3    C37   S    
C7    O20   S    
C14   C15   A    
C44   H10   S    
C33   O29   A    
C40   O24   A    
