data_mof_unit_60080.cif
_audit_creation_date              2013-03-05T16:24:53-0500
_audit_creation_method            fapswitch 2.2
_symmetry_space_group_name_H-M    P1
_symmetry_Int_Tables_number       1
_space_group_crystal_system       triclinic
_cell_length_a                    30.522687
_cell_length_b                    30.528256
_cell_length_c                    36.266825
_cell_angle_alpha                 90.014803
_cell_angle_beta                  90.025676
_cell_angle_gamma                 90.029674
_cell_volume                      33793.5781459

loop_
_atom_site_label
_atom_site_type_symbol
_atom_site_description
_atom_site_fract_x
_atom_site_fract_y
_atom_site_fract_z
_atom_type_partial_charge
Zn1   Zn    Zn3+2 1.000000 0.551890 0.780540 1.122402
Zn2   Zn    Zn3+2 0.000000 0.448110 0.219460 1.128609
Zn3   Zn    Zn3+2 0.551890 0.000000 0.780540 1.127324
Zn4   Zn    Zn3+2 0.448110 1.000000 0.219460 1.131662
Zn5   Zn    Zn3+2 1.000000 0.448110 0.780540 1.122472
Zn6   Zn    Zn3+2 0.000000 0.551890 0.219460 1.123168
Zn7   Zn    Zn3+2 0.448110 0.000000 0.780540 1.125552
Zn8   Zn    Zn3+2 0.551890 1.000000 0.219460 1.119795
Zn9   Zn    Zn3+2 0.500000 0.051890 0.280540 1.127463
Zn10  Zn    Zn3+2 0.500000 0.948110 0.719460 1.123482
Zn11  Zn    Zn3+2 0.051890 0.500000 0.280540 1.125156
Zn12  Zn    Zn3+2 0.948110 0.500000 0.719460 1.125523
Zn13  Zn    Zn3+2 0.500000 0.948110 0.280540 1.123267
Zn14  Zn    Zn3+2 0.500000 0.051890 0.719460 1.121203
Zn15  Zn    Zn3+2 0.948110 0.500000 0.280540 1.125267
Zn16  Zn    Zn3+2 0.051890 0.500000 0.719460 1.123646
C1    C     C_R   0.381674 0.881842 0.749746 -0.312690
C2    C     C_R   0.618244 0.118429 0.250035 -0.311721
C3    C     C_R   0.881705 0.618282 0.750001 -0.319197
C4    C     C_R   0.118365 0.381678 0.250051 -0.317364
C5    C     C_R   0.618367 0.118116 0.749750 -0.312845
C6    C     C_R   0.381229 0.881433 0.250041 -0.313276
C7    C     C_R   0.118341 0.381654 0.750000 -0.314095
C8    C     C_R   0.881115 0.618545 0.249859 -0.323023
C9    C     C_R   0.618171 0.881953 0.249993 -0.315759
C10   C     C_R   0.381654 0.118329 0.749997 -0.315214
C11   C     C_R   0.118161 0.618049 0.250008 -0.307869
C12   C     C_R   0.881507 0.381442 0.749776 -0.318972
C13   C     C_R   0.381627 0.118304 0.249904 -0.313523
C14   C     C_R   0.618298 0.881733 0.750002 -0.320794
C15   C     C_R   0.881814 0.381520 0.250026 -0.307816
C16   C     C_R   0.118453 0.618596 0.749768 -0.319312
H1    H     H_    0.330444 0.725459 0.734184 0.179614
H2    H     H_    0.675869 0.266700 0.271211 0.179385
H3    H     H_    0.824367 0.767348 0.726400 0.174988
H4    H     H_    0.239787 0.297254 0.303759 0.176258
H5    H     H_    0.669540 0.274467 0.734184 0.179494
H6    H     H_    0.328089 0.728315 0.249596 0.175828
H7    H     H_    0.268338 0.325262 0.729207 0.175940
H8    H     H_    0.729072 0.672656 0.247866 0.173627
H9    H     H_    0.671863 0.729557 0.247423 0.174163
H10   H     H_    0.325288 0.268297 0.729191 0.175730
H11   H     H_    0.271060 0.671146 0.249161 0.179001
H12   H     H_    0.727561 0.330603 0.734608 0.175532
H13   H     H_    0.296671 0.240248 0.304181 0.177590
H14   H     H_    0.767389 0.824353 0.726407 0.175199
H15   H     H_    0.732563 0.323954 0.271198 0.178085
H16   H     H_    0.272383 0.669364 0.734582 0.175456
H17   H     H_    0.826355 0.231053 0.228860 0.181307
H18   H     H_    0.177509 0.767987 0.764040 0.175153
H19   H     H_    0.260013 0.202567 0.193755 0.178854
H20   H     H_    0.675659 0.732677 0.773598 0.174648
H21   H     H_    0.171065 0.770827 0.250845 0.175711
H22   H     H_    0.822530 0.232055 0.764056 0.175088
H23   H     H_    0.771392 0.829664 0.252271 0.174144
H24   H     H_    0.231666 0.174704 0.770796 0.176307
H25   H     H_    0.174706 0.231659 0.770789 0.176458
H26   H     H_    0.828665 0.772775 0.251919 0.174741
H27   H     H_    0.764563 0.175958 0.763359 0.176227
H28   H     H_    0.228071 0.828016 0.250458 0.178810
H29   H     H_    0.732648 0.675681 0.773612 0.174487
H30   H     H_    0.203046 0.259553 0.193370 0.179847
H31   H     H_    0.235515 0.824043 0.763364 0.176145
H32   H     H_    0.769601 0.173796 0.228814 0.178713
C17   C     C_R   0.297068 0.734842 0.740524 -0.009767
C18   C     C_R   0.708685 0.258780 0.262018 -0.051004
C19   C     C_R   0.791946 0.759644 0.736664 -0.054271
C20   C     C_R   0.244153 0.276716 0.279681 -0.056467
C21   C     C_R   0.702928 0.265109 0.740528 -0.009862
C22   C     C_R   0.293867 0.737685 0.249803 -0.053571
C23   C     C_R   0.260183 0.292431 0.738220 -0.056256
C24   C     C_R   0.738409 0.706876 0.248752 -0.054686
C25   C     C_R   0.706034 0.739070 0.248468 -0.052259
C26   C     C_R   0.292453 0.260155 0.738211 -0.056344
C27   C     C_R   0.261604 0.705337 0.249516 -0.047590
C28   C     C_R   0.735778 0.296887 0.740808 -0.058360
C29   C     C_R   0.276393 0.244420 0.279917 -0.053330
C30   C     C_R   0.759664 0.791939 0.736667 -0.054114
C31   C     C_R   0.740807 0.291211 0.262024 -0.054403
C32   C     C_R   0.264195 0.703087 0.740788 -0.058620
C33   C     C_R   0.793537 0.238974 0.238044 -0.048955
C34   C     C_R   0.210816 0.758573 0.757471 -0.052221
C35   C     C_R   0.255631 0.223091 0.217839 -0.053990
C36   C     C_R   0.708081 0.740386 0.763340 -0.054878
C37   C     C_R   0.205290 0.761475 0.250494 -0.053364
C38   C     C_R   0.789211 0.241444 0.757486 -0.052431
C39   C     C_R   0.762087 0.795442 0.251228 -0.053544
C40   C     C_R   0.239816 0.207533 0.761777 -0.055600
C41   C     C_R   0.207542 0.239806 0.761774 -0.055773
C42   C     C_R   0.794492 0.763254 0.250987 -0.051410
C43   C     C_R   0.756410 0.209654 0.757016 -0.090633
C44   C     C_R   0.237546 0.793829 0.250240 -0.047929
C45   C     C_R   0.740367 0.708094 0.763347 -0.054839
C46   C     C_R   0.223357 0.255381 0.217614 -0.050924
C47   C     C_R   0.243639 0.790339 0.757016 -0.090844
C48   C     C_R   0.761392 0.206536 0.238015 -0.053405
O1    O     O_3   1.000000 0.500000 0.750000 -0.571136
O2    O     O_3   1.000000 0.500000 0.250000 -0.571497
O3    O     O_3   0.500000 0.000000 0.750000 -0.569209
O4    O     O_3   0.500000 0.000000 0.250000 -0.570652
O5    O     O_R   0.036310 0.500000 0.668570 -0.593304
O6    O     O_R   0.963690 0.500000 0.331430 -0.592781
O7    O     O_R   0.500000 0.963690 0.668570 -0.592852
O8    O     O_R   0.500000 0.036310 0.331430 -0.607761
O9    O     O_R   0.963690 0.500000 0.668570 -0.590267
O10   O     O_R   0.036310 0.500000 0.331430 -0.606177
O11   O     O_R   0.500000 0.036310 0.668570 -0.597543
O12   O     O_R   0.500000 0.963690 0.331430 -0.595041
O13   O     O_R   0.536310 1.000000 0.168570 -0.596211
O14   O     O_R   0.463690 1.000000 0.831430 -0.598361
O15   O     O_R   1.000000 0.463690 0.168570 -0.605224
O16   O     O_R   1.000000 0.536310 0.831430 -0.594406
O17   O     O_R   0.463690 1.000000 0.168570 -0.604223
O18   O     O_R   0.536310 1.000000 0.831430 -0.594085
O19   O     O_R   1.000000 0.536310 0.168570 -0.591932
O20   O     O_R   0.000000 0.463690 0.831430 -0.594138
C49   C     C_1   0.999333 0.500042 0.888338 0.021531
C50   C     C_1   0.000523 0.499969 0.111655 0.014125
C51   C     C_1   0.500157 0.999499 0.888339 0.023206
C52   C     C_1   0.499857 0.000411 0.111657 0.012508
C53   C     C_1   0.499625 0.000134 0.388343 0.013114
C54   C     C_1   0.500512 0.999849 0.611663 0.018543
C55   C     C_1   0.000105 0.499536 0.388345 0.012391
C56   C     C_1   0.999873 0.500578 0.611661 0.022059
O21   O     O_R   0.912500 0.551110 0.728680 -0.606143
O22   O     O_R   0.087500 0.448890 0.271320 -0.600816
O23   O     O_R   0.551110 0.087500 0.728680 -0.612089
O24   O     O_R   0.448890 0.912500 0.271320 -0.603142
O25   O     O_R   0.087500 0.448890 0.728680 -0.603631
O26   O     O_R   0.912500 0.551110 0.271320 -0.601367
O27   O     O_R   0.448890 0.912500 0.728680 -0.613361
O28   O     O_R   0.551110 0.087500 0.271320 -0.585485
O29   O     O_R   0.087500 0.551110 0.271320 -0.593740
O30   O     O_R   0.912500 0.448890 0.728680 -0.602714
O31   O     O_R   0.448890 0.087500 0.271320 -0.600292
O32   O     O_R   0.551110 0.912500 0.728680 -0.609438
O33   O     O_R   0.912500 0.448890 0.271320 -0.602779
O34   O     O_R   0.087500 0.551110 0.728680 -0.601212
O35   O     O_R   0.551110 0.912500 0.271320 -0.605950
O36   O     O_R   0.448890 0.087500 0.728680 -0.606259
O37   O     O_R   0.412500 0.051110 0.228680 -0.600686
O38   O     O_R   0.587500 0.948890 0.771320 -0.602656
O39   O     O_R   0.051110 0.587500 0.228680 -0.609220
O40   O     O_R   0.948890 0.412500 0.771320 -0.599211
O41   O     O_R   0.587500 0.948890 0.228680 -0.610037
O42   O     O_R   0.412500 0.051110 0.771320 -0.600093
O43   O     O_R   0.948890 0.412500 0.228680 -0.587232
O44   O     O_R   0.051110 0.587500 0.771320 -0.600981
O45   O     O_R   0.587500 0.051110 0.771320 -0.595688
O46   O     O_R   0.412500 0.948890 0.228680 -0.585342
O47   O     O_R   0.948890 0.587500 0.771320 -0.601262
O48   O     O_R   0.051110 0.412500 0.228680 -0.599505
O49   O     O_R   0.412500 0.948890 0.771320 -0.594061
O50   O     O_R   0.587500 0.051110 0.228680 -0.607941
O51   O     O_R   0.051110 0.412500 0.771320 -0.599359
O52   O     O_R   0.948890 0.587500 0.228680 -0.597636
C57   C     C_1   0.501113 0.999426 0.578482 0.188818
C58   C     C_1   0.499123 0.000523 0.421527 0.185752
C59   C     C_1   0.999564 0.501263 0.578480 0.188000
C60   C     C_1   0.000375 0.498942 0.421529 0.185752
C61   C     C_1   0.001182 0.499902 0.078470 0.186405
C62   C     C_1   0.998554 0.500122 0.921519 0.186980
C63   C     C_1   0.499476 0.000944 0.078473 0.185499
C64   C     C_1   0.500566 0.998904 0.921521 0.187992
C65   C     C_R   0.999982 0.500011 0.651094 0.862911
C66   C     C_R   0.000015 0.500007 0.348907 0.847184
C67   C     C_R   0.500012 0.999983 0.651097 0.874536
C68   C     C_R   0.500015 0.000015 0.348905 0.846333
C69   C     C_R   0.499982 0.999990 0.151093 0.853183
C70   C     C_R   0.500020 0.999990 0.848906 0.852948
C71   C     C_R   0.999996 0.499994 0.151093 0.846493
C72   C     C_R   0.999984 0.500008 0.848904 0.847063
C73   C     C_R   0.915838 0.584156 0.749999 0.954306
C74   C     C_R   0.084229 0.415860 0.249984 0.922505
C75   C     C_R   0.584096 0.084186 0.750092 0.932658
C76   C     C_R   0.415676 0.915730 0.250012 0.928170
C77   C     C_R   0.084179 0.415821 0.750000 0.931939
C78   C     C_R   0.915627 0.584258 0.249960 0.905824
C79   C     C_R   0.415916 0.915803 0.750088 0.933987
C80   C     C_R   0.584175 0.084179 0.250048 0.928556
C81   C     C_R   0.084102 0.584075 0.250002 0.973517
C82   C     C_R   0.915779 0.415730 0.749975 0.912897
C83   C     C_R   0.415806 0.084167 0.249998 0.934320
C84   C     C_R   0.584161 0.915847 0.750001 0.958245
C85   C     C_R   0.915844 0.415809 0.250000 0.941557
C86   C     C_R   0.084208 0.584280 0.749976 0.912355
C87   C     C_R   0.584095 0.915913 0.249997 0.969896
C88   C     C_R   0.415822 0.084175 0.750000 0.937168
C89   C     C_R   0.501890 0.998721 0.538697 -0.178959
C90   C     C_R   0.498435 0.001174 0.461316 -0.181380
C91   C     C_R   0.999067 0.502157 0.538694 -0.179883
C92   C     C_R   0.000825 0.498145 0.461319 -0.181531
C93   C     C_R   0.002057 0.499796 0.038677 -0.181435
C94   C     C_R   0.997552 0.500242 0.961306 -0.180949
C95   C     C_R   0.498841 0.001662 0.038685 -0.181354
C96   C     C_R   0.501239 0.998128 0.961307 -0.179545
C97   C     C_R   0.525774 0.030936 0.519381 0.196517
C98   C     C_R   0.474578 0.968939 0.480633 0.196625
C99   C     C_R   0.035706 0.518495 0.519399 0.195915
C100  C     C_R   0.964172 0.481834 0.480615 0.195707
C101  C     C_R   0.476305 0.967714 0.519484 0.196095
C102  C     C_R   0.524047 0.032162 0.480528 0.195152
C103  C     C_R   0.963292 0.483843 0.519464 0.195698
C104  C     C_R   0.036582 0.516494 0.480551 0.196138
C105  C     C_R   0.005135 0.539812 0.019415 0.196992
C106  C     C_R   0.994442 0.460229 0.980567 0.195562
C107  C     C_R   0.531651 0.024731 0.019374 0.196613
C108  C     C_R   0.468443 0.975041 0.980617 0.196798
C109  C     C_R   0.996689 0.460006 0.019413 0.197356
C110  C     C_R   0.002869 0.540037 0.980569 0.196232
C111  C     C_R   0.467244 0.976808 0.019468 0.195555
C112  C     C_R   0.532848 0.022964 0.980523 0.195942
C113  C     C_R   0.368957 0.861571 0.783022 0.174987
C114  C     C_R   0.637509 0.131773 0.216480 0.198789
C115  C     C_R   0.865433 0.634654 0.783773 0.185290
C116  C     C_R   0.106421 0.337138 0.246976 0.201444
C117  C     C_R   0.631116 0.138417 0.783022 0.177092
C118  C     C_R   0.356198 0.873396 0.217871 0.197134
C119  C     C_R   0.131395 0.362003 0.783483 0.194904
C120  C     C_R   0.873993 0.644371 0.217983 0.197833
C121  C     C_R   0.639050 0.870314 0.283328 0.185468
C122  C     C_R   0.362149 0.131511 0.783498 0.196346
C123  C     C_R   0.129515 0.639222 0.283285 0.185423
C124  C     C_R   0.869060 0.360626 0.782960 0.185643
C125  C     C_R   0.337102 0.106407 0.246485 0.195901
C126  C     C_R   0.634531 0.865309 0.783771 0.186874
C127  C     C_R   0.868770 0.361864 0.216531 0.199993
C128  C     C_R   0.130959 0.639419 0.782949 0.188852
C129  C     C_R   0.862490 0.368172 0.283547 0.194052
C130  C     C_R   0.139888 0.629542 0.716472 0.194265
C131  C     C_R   0.393442 0.162864 0.253028 0.195370
C132  C     C_R   0.634727 0.865522 0.716232 0.186932
C133  C     C_R   0.139369 0.629300 0.216742 0.188266
C134  C     C_R   0.860006 0.370495 0.716491 0.196415
C135  C     C_R   0.629978 0.861277 0.216614 0.185600
C136  C     C_R   0.368461 0.137831 0.716494 0.196594
C137  C     C_R   0.137979 0.368599 0.716517 0.196346
C138  C     C_R   0.855575 0.626238 0.281798 0.191830
C139  C     C_R   0.636240 0.132311 0.715869 0.185662
C140  C     C_R   0.373153 0.856511 0.282239 0.193509
C141  C     C_R   0.865330 0.634572 0.716232 0.186878
C142  C     C_R   0.163009 0.393524 0.252122 0.191983
C143  C     C_R   0.363792 0.867595 0.715865 0.187521
C144  C     C_R   0.632472 0.136987 0.283627 0.190631
C145  C     C_R   0.338996 0.826543 0.782495 0.215812
C146  C     C_R   0.670626 0.163772 0.216484 0.200705
C147  C     C_R   0.832913 0.667333 0.783767 0.205645
C148  C     C_R   0.138937 0.304559 0.246358 0.201192
C149  C     C_R   0.661082 0.173437 0.782490 0.216327
C150  C     C_R   0.323602 0.840845 0.217871 0.200913
C151  C     C_R   0.164173 0.329687 0.783567 0.197740
C152  C     C_R   0.841981 0.677475 0.218112 0.198696
C153  C     C_R   0.672089 0.838149 0.283226 0.210719
C154  C     C_R   0.329822 0.164278 0.783577 0.198676
C155  C     C_R   0.161892 0.672078 0.283220 0.211631
C156  C     C_R   0.835009 0.329552 0.783014 0.207349
C157  C     C_R   0.304473 0.138872 0.246439 0.199586
C158  C     C_R   0.667216 0.832796 0.783764 0.206466
C159  C     C_R   0.836289 0.329237 0.216475 0.199700
C160  C     C_R   0.165013 0.670490 0.782995 0.207625
C161  C     C_R   0.830484 0.335063 0.283658 0.199069
C162  C     C_R   0.173610 0.660931 0.716386 0.198000
C163  C     C_R   0.360948 0.195462 0.252404 0.199515
C164  C     C_R   0.667247 0.832843 0.716239 0.206395
C165  C     C_R   0.172244 0.661660 0.216801 0.212418
C166  C     C_R   0.826292 0.339099 0.716411 0.197667
C167  C     C_R   0.662547 0.828640 0.216623 0.210596
C168  C     C_R   0.335693 0.170159 0.716413 0.198708
C169  C     C_R   0.170292 0.335819 0.716434 0.198159
C170  C     C_R   0.823621 0.659408 0.281964 0.206168
C171  C     C_R   0.666667 0.167002 0.715348 0.207302
C172  C     C_R   0.340633 0.823881 0.282224 0.200566
C173  C     C_R   0.832660 0.667100 0.716242 0.205915
C174  C     C_R   0.195648 0.361090 0.250854 0.209635
C175  C     C_R   0.333378 0.832897 0.715348 0.207236
C176  C     C_R   0.666104 0.168444 0.283792 0.209512
C177  C     C_R   0.321376 0.812175 0.748608 -0.242408
C178  C     C_R   0.684875 0.182091 0.250141 -0.229126
C179  C     C_R   0.816542 0.683467 0.750005 -0.236665
C180  C     C_R   0.183530 0.316561 0.248331 -0.230297
C181  C     C_R   0.678678 0.187768 0.748603 -0.242738
C182  C     C_R   0.315941 0.816129 0.250038 -0.230446
C183  C     C_R   0.183482 0.316504 0.750000 -0.226139
C184  C     C_R   0.816823 0.684867 0.250070 -0.236228
C185  C     C_R   0.683624 0.817313 0.249898 -0.245368
C186  C     C_R   0.316512 0.183466 0.749994 -0.226973
C187  C     C_R   0.183253 0.683080 0.250006 -0.242609
C188  C     C_R   0.813801 0.318677 0.749660 -0.231073
C189  C     C_R   0.316448 0.183408 0.249246 -0.224534
C190  C     C_R   0.683481 0.816568 0.750001 -0.237105
C191  C     C_R   0.817289 0.315749 0.250073 -0.222983
C192  C     C_R   0.186167 0.681352 0.749636 -0.231519
C193  C     C_R   0.220960 0.714841 0.749316 0.177709
C194  C     C_R   0.783359 0.281425 0.250064 0.173618
C195  C     C_R   0.717612 0.782428 0.750002 0.178119
C196  C     C_R   0.282288 0.217506 0.248988 0.177156
C197  C     C_R   0.779028 0.285167 0.749341 0.177685
C198  C     C_R   0.217264 0.717178 0.249998 0.173359
C199  C     C_R   0.282391 0.217586 0.749993 0.180223
C200  C     C_R   0.717805 0.783405 0.249858 0.178297
C201  C     C_R   0.782713 0.718894 0.249912 0.180167
C202  C     C_R   0.217604 0.282379 0.749999 0.180115
C203  C     C_R   0.281906 0.782002 0.250030 0.175496
C204  C     C_R   0.713229 0.221376 0.748436 0.165528
C205  C     C_R   0.217548 0.282347 0.248518 0.176826
C206  C     C_R   0.782415 0.717605 0.750006 0.178115
C207  C     C_R   0.718873 0.216322 0.250050 0.173202
C208  C     C_R   0.286806 0.778585 0.748441 0.165498
N1    N     N_R   0.007707 0.580528 0.960694 0.255367
O53   O     O_R   0.039945 0.606951 0.968276 -0.223846
O54   O     O_R   0.980044 0.591084 0.934875 -0.269363
N2    N     N_R   0.991786 0.419521 0.039284 0.256091
O55   O     O_R   0.959506 0.393151 0.031698 -0.223645
O56   O     O_R   0.019447 0.408905 0.065087 -0.292640
N3    N     N_R   0.565142 0.047824 0.960600 0.254828
O57   O     O_R   0.571422 0.089014 0.968191 -0.226688
O58   O     O_R   0.588271 0.029474 0.934728 -0.271203
N4    N     N_R   0.434960 0.951935 0.039390 0.255790
O59   O     O_R   0.428700 0.910742 0.031799 -0.224773
O60   O     O_R   0.411812 0.970277 0.065254 -0.278662
N5    N     N_R   0.990749 0.419605 0.960690 0.256236
O61   O     O_R   0.016803 0.387099 0.968263 -0.229047
O62   O     O_R   0.961492 0.414985 0.934868 -0.268603
N6    N     N_R   0.008828 0.580435 0.039291 0.255992
O63   O     O_R   0.982732 0.612919 0.031754 -0.224843
O64   O     O_R   0.038139 0.585082 0.065065 -0.272475
N7    N     N_R   0.435280 0.951195 0.960792 0.256680
O65   O     O_R   0.394051 0.956996 0.968483 -0.226551
O66   O     O_R   0.446112 0.923744 0.934902 -0.271776
N8    N     N_R   0.564826 0.048563 0.039197 0.256835
O67   O     O_R   0.606052 0.042735 0.031509 -0.223529
O68   O     O_R   0.554008 0.076035 0.065075 -0.280685
N9    N     N_R   0.549706 0.063819 0.460601 0.256045
O69   O     O_R   0.591046 0.069073 0.468200 -0.220994
O70   O     O_R   0.531935 0.087393 0.434722 -0.279295
N10   N     N_R   0.450667 0.936039 0.539411 0.255481
O71   O     O_R   0.409333 0.930747 0.531808 -0.226970
O72   O     O_R   0.468453 0.912487 0.565297 -0.273396
N11   N     N_R   0.073061 0.534686 0.460644 0.255840
O73   O     O_R   0.087110 0.573923 0.468219 -0.222876
O74   O     O_R   0.092288 0.512205 0.434818 -0.288969
N12   N     N_R   0.926795 0.465690 0.539373 0.255269
O75   O     O_R   0.912687 0.426477 0.531787 -0.226645
O76   O     O_R   0.907624 0.488174 0.565228 -0.268850
N13   N     N_R   0.449958 0.936343 0.460817 0.257118
O77   O     O_R   0.454805 0.894999 0.468517 -0.222340
O78   O     O_R   0.422739 0.947806 0.434938 -0.284841
N14   N     N_R   0.550415 0.063515 0.539201 0.256053
O79   O     O_R   0.545623 0.104861 0.531482 -0.227879
O80   O     O_R   0.577579 0.052036 0.565116 -0.269411
N15   N     N_R   0.927059 0.464801 0.460775 0.257305
O81   O     O_R   0.887722 0.478477 0.468407 -0.220380
O82   O     O_R   0.932417 0.435716 0.434933 -0.274862
N16   N     N_R   0.072813 0.535542 0.539239 0.256496
O83   O     O_R   0.112160 0.521913 0.531584 -0.227932
O84   O     O_R   0.067438 0.564588 0.565110 -0.270344
N17   N     N_R   0.388838 0.874355 0.817209 0.237115
O85   O     O_R   0.413613 0.846834 0.834950 -0.267471
O86   O     O_R   0.377071 0.910652 0.833168 -0.254794
N18   N     N_R   0.621173 0.115302 0.182082 0.257030
O87   O     O_R   0.581199 0.123968 0.171991 -0.308112
O88   O     O_R   0.644097 0.087190 0.163284 -0.239391
N19   N     N_R   0.881773 0.618068 0.818215 0.258867
O89   O     O_R   0.880263 0.576308 0.825295 -0.342924
O90   O     O_R   0.897051 0.644820 0.843028 -0.227068
N20   N     N_R   0.061125 0.324652 0.247263 0.253099
O91   O     O_R   0.042358 0.311515 0.217011 -0.240436
O92   O     O_R   0.037347 0.331915 0.276391 -0.330360
N21   N     N_R   0.611261 0.125672 0.817209 0.235105
O93   O     O_R   0.586543 0.153233 0.834956 -0.276857
O94   O     O_R   0.623009 0.089372 0.833166 -0.255744
N22   N     N_R   0.365874 0.895984 0.184219 0.260104
O95   O     O_R   0.400848 0.885934 0.165571 -0.304431
O96   O     O_R   0.342423 0.929560 0.174334 -0.217961
N23   N     N_R   0.113813 0.377203 0.817820 0.255509
O97   O     O_R   0.123382 0.416303 0.829608 -0.339999
O98   O     O_R   0.083852 0.354467 0.834678 -0.236471
N24   N     N_R   0.896873 0.634987 0.184407 0.260889
O99   O     O_R   0.887387 0.599848 0.165739 -0.319289
O100  O     O_R   0.930164 0.658914 0.174607 -0.243776
N25   N     N_R   0.626771 0.891099 0.317369 0.253449
O101  O     O_R   0.626386 0.933607 0.320046 -0.352615
O102  O     O_R   0.616808 0.867531 0.346058 -0.243692
N26   N     N_R   0.377510 0.114070 0.817839 0.254423
O103  O     O_R   0.416714 0.123594 0.829430 -0.337574
O104  O     O_R   0.354802 0.084251 0.834896 -0.248462
N27   N     N_R   0.108257 0.627391 0.317233 0.253906
O105  O     O_R   0.065709 0.627027 0.319489 -0.357266
O106  O     O_R   0.131432 0.617738 0.346234 -0.224085
N28   N     N_R   0.888716 0.373276 0.817226 0.248796
O107  O     O_R   0.925197 0.355158 0.827772 -0.240663
O108  O     O_R   0.867139 0.398007 0.840081 -0.279426
N29   N     N_R   0.324656 0.061125 0.245879 0.254141
O109  O     O_R   0.313495 0.042693 0.214927 -0.235969
O110  O     O_R   0.330214 0.037036 0.275090 -0.335035
N30   N     N_R   0.617797 0.881492 0.818210 0.257413
O111  O     O_R   0.575993 0.880007 0.825133 -0.339943
O112  O     O_R   0.644453 0.896610 0.843168 -0.239048
N31   N     N_R   0.886081 0.377321 0.182176 0.254281
O113  O     O_R   0.876436 0.416500 0.170658 -0.339057
O114  O     O_R   0.915919 0.354743 0.165036 -0.224750
N32   N     N_R   0.111364 0.626777 0.817221 0.247018
O115  O     O_R   0.133028 0.602143 0.840098 -0.289471
O116  O     O_R   0.074872 0.644858 0.827765 -0.247689
N33   N     N_R   0.877768 0.385774 0.317869 0.257850
O117  O     O_R   0.916934 0.376316 0.329561 -0.307969
O118  O     O_R   0.855037 0.415671 0.334793 -0.227407
N34   N     N_R   0.125293 0.611218 0.682186 0.259186
O119  O     O_R   0.086263 0.620180 0.669899 -0.313155
O120  O     O_R   0.148683 0.581509 0.665673 -0.231483
N35   N     N_R   0.438707 0.175346 0.253953 0.254593
O121  O     O_R   0.456867 0.186358 0.285058 -0.242368
O122  O     O_R   0.463039 0.170005 0.224859 -0.324819
N36   N     N_R   0.618545 0.882275 0.681794 0.256572
O123  O     O_R   0.620013 0.924079 0.674890 -0.328451
O124  O     O_R   0.603437 0.855640 0.656820 -0.242977
N37   N     N_R   0.127576 0.607926 0.182819 0.253945
O125  O     O_R   0.127218 0.565376 0.180649 -0.337728
O126  O     O_R   0.117956 0.630991 0.153758 -0.228125
N38   N     N_R   0.874534 0.388817 0.682204 0.258089
O127  O     O_R   0.913524 0.379822 0.669873 -0.325241
O128  O     O_R   0.851123 0.418542 0.665727 -0.233152
N39   N     N_R   0.608980 0.873390 0.182615 0.252891
O129  O     O_R   0.566454 0.873437 0.180030 -0.352793
O130  O     O_R   0.632376 0.883625 0.153894 -0.246878
N40   N     N_R   0.385885 0.122463 0.682153 0.254368
O131  O     O_R   0.376406 0.083238 0.670605 -0.327931
O132  O     O_R   0.415658 0.145191 0.665055 -0.254281
N41   N     N_R   0.122767 0.386182 0.682181 0.254832
O133  O     O_R   0.083637 0.376656 0.670416 -0.335755
O134  O     O_R   0.145525 0.416106 0.665300 -0.244803
N42   N     N_R   0.863849 0.602402 0.315088 0.254218
O135  O     O_R   0.843915 0.565402 0.321070 -0.247411
O136  O     O_R   0.886953 0.620225 0.341235 -0.289581
N43   N     N_R   0.623656 0.111481 0.681889 0.256875
O137  O     O_R   0.624856 0.069026 0.678800 -0.327003
O138  O     O_R   0.611773 0.134958 0.653665 -0.228581
N44   N     N_R   0.395604 0.866395 0.315937 0.261340
O139  O     O_R   0.385855 0.901767 0.334173 -0.295389
O140  O     O_R   0.428846 0.842718 0.326238 -0.245637
N45   N     N_R   0.881910 0.618247 0.681789 0.257720
O141  O     O_R   0.923677 0.619750 0.674712 -0.337449
O142  O     O_R   0.855144 0.603001 0.656968 -0.234983
N46   N     N_R   0.175500 0.438763 0.252713 0.244063
O143  O     O_R   0.177185 0.459804 0.283878 -0.260542
O144  O     O_R   0.190830 0.457055 0.223012 -0.281027
N47   N     N_R   0.376355 0.888379 0.681880 0.255847
O145  O     O_R   0.375118 0.930828 0.678761 -0.337922
O146  O     O_R   0.388247 0.864866 0.653679 -0.229104
N48   N     N_R   0.615090 0.121600 0.317956 0.243309
O147  O     O_R   0.578999 0.138250 0.330878 -0.232633
O148  O     O_R   0.638387 0.095708 0.338602 -0.275737
N49   N     N_R   0.325826 0.806235 0.816549 0.253512
O149  O     O_R   0.314688 0.830156 0.844722 -0.227972
O150  O     O_R   0.325612 0.763789 0.819776 -0.289402
N50   N     N_R   0.687963 0.179489 0.182109 0.240813
O151  O     O_R   0.686675 0.221059 0.174270 -0.276269
O152  O     O_R   0.706643 0.152584 0.159189 -0.243483
N51   N     N_R   0.816102 0.683677 0.818151 0.245853
O153  O     O_R   0.815045 0.725592 0.824620 -0.276537
O154  O     O_R   0.801843 0.656652 0.843159 -0.252878
N52   N     N_R   0.126525 0.259146 0.245880 0.237980
O155  O     O_R   0.102552 0.243744 0.219204 -0.249721
O156  O     O_R   0.140466 0.232693 0.271445 -0.286066
N53   N     N_R   0.674284 0.193776 0.816542 0.253561
O157  O     O_R   0.685462 0.169880 0.844716 -0.228056
O158  O     O_R   0.674480 0.236225 0.819765 -0.289902
N54   N     N_R   0.299449 0.831775 0.184672 0.242735
O159  O     O_R   0.297128 0.792025 0.171856 -0.280151
O160  O     O_R   0.279332 0.863141 0.167296 -0.234373
N55   N     N_R   0.179448 0.311947 0.817968 0.237579
O161  O     O_R   0.152034 0.294362 0.841083 -0.248485
O162  O     O_R   0.221001 0.312554 0.825995 -0.287385
N56   N     N_R   0.833778 0.702342 0.185162 0.242508
O163  O     O_R   0.794401 0.704727 0.171549 -0.283810
O164  O     O_R   0.865498 0.723312 0.168985 -0.245025
N57   N     N_R   0.694694 0.827515 0.316854 0.250629
O165  O     O_R   0.698390 0.786978 0.327479 -0.279197
O166  O     O_R   0.711523 0.858450 0.337089 -0.250135
N58   N     N_R   0.312200 0.179666 0.817980 0.237939
O167  O     O_R   0.312849 0.221236 0.825906 -0.287269
O168  O     O_R   0.294641 0.152341 0.841183 -0.251831
N59   N     N_R   0.172187 0.695065 0.316746 0.251388
O169  O     O_R   0.212601 0.698719 0.327762 -0.273841
O170  O     O_R   0.141061 0.712273 0.336506 -0.248146
N60   N     N_R   0.821487 0.309718 0.817161 0.243459
O171  O     O_R   0.780241 0.308444 0.826170 -0.279754
O172  O     O_R   0.850423 0.293619 0.839748 -0.238872
N61   N     N_R   0.259051 0.126422 0.245524 0.237061
O173  O     O_R   0.232154 0.140628 0.270651 -0.286305
O174  O     O_R   0.244194 0.101623 0.219166 -0.249666
N62   N     N_R   0.683438 0.815847 0.818146 0.245549
O175  O     O_R   0.656317 0.801453 0.843027 -0.252352
O176  O     O_R   0.725335 0.814791 0.824737 -0.277703
N63   N     N_R   0.820963 0.311497 0.182079 0.237471
O177  O     O_R   0.848349 0.293973 0.158917 -0.238573
O178  O     O_R   0.779385 0.311964 0.174141 -0.282570
N64   N     N_R   0.178590 0.690336 0.817141 0.243573
O179  O     O_R   0.219849 0.691597 0.826141 -0.280095
O180  O     O_R   0.149691 0.706454 0.839737 -0.239312
N65   N     N_R   0.813074 0.319492 0.318083 0.239219
O181  O     O_R   0.795692 0.346686 0.341485 -0.239584
O182  O     O_R   0.813886 0.277899 0.325896 -0.276062
N66   N     N_R   0.193471 0.673789 0.682139 0.241869
O183  O     O_R   0.193554 0.714718 0.672134 -0.283237
O184  O     O_R   0.213211 0.644957 0.661636 -0.243456
N67   N     N_R   0.373358 0.240900 0.253027 0.237248
O185  O     O_R   0.359237 0.267529 0.227661 -0.284713
O186  O     O_R   0.398205 0.256005 0.279257 -0.251505
N68   N     N_R   0.684196 0.816638 0.681856 0.245519
O187  O     O_R   0.698601 0.843762 0.656984 -0.251042
O188  O     O_R   0.685243 0.774751 0.675258 -0.278661
N69   N     N_R   0.195238 0.671884 0.183283 0.250957
O189  O     O_R   0.198879 0.712265 0.172225 -0.276628
O190  O     O_R   0.212477 0.640722 0.163576 -0.241088
N70   N     N_R   0.806375 0.326232 0.682169 0.241539
O191  O     O_R   0.806289 0.285303 0.672147 -0.283738
O192  O     O_R   0.786605 0.355059 0.661679 -0.243264
N71   N     N_R   0.673358 0.806220 0.182953 0.250607
O193  O     O_R   0.713919 0.802994 0.172268 -0.280294
O194  O     O_R   0.642564 0.789064 0.162754 -0.251325
N72   N     N_R   0.320294 0.187781 0.682009 0.237994
O195  O     O_R   0.278716 0.187120 0.674079 -0.287108
O196  O     O_R   0.347612 0.205376 0.658820 -0.253614
N73   N     N_R   0.188020 0.320546 0.682033 0.237471
O197  O     O_R   0.205641 0.347949 0.658929 -0.251863
O198  O     O_R   0.187382 0.279004 0.674002 -0.287639
N74   N     N_R   0.798568 0.667611 0.314858 0.245843
O199  O     O_R   0.794913 0.707191 0.327818 -0.282050
O200  O     O_R   0.779789 0.635451 0.332294 -0.241515
N75   N     N_R   0.687456 0.179133 0.681299 0.256122
O201  O     O_R   0.685775 0.219345 0.669545 -0.287589
O202  O     O_R   0.706790 0.149566 0.661237 -0.238593
N76   N     N_R   0.331530 0.799813 0.315435 0.243968
O203  O     O_R   0.291780 0.797629 0.328256 -0.277412
O204  O     O_R   0.362835 0.779496 0.332735 -0.241546
N77   N     N_R   0.816313 0.683930 0.681860 0.245766
O205  O     O_R   0.774390 0.685007 0.675390 -0.277757
O206  O     O_R   0.843345 0.698194 0.656858 -0.252601
N78   N     N_R   0.241117 0.373575 0.251420 0.242575
O207  O     O_R   0.255425 0.401519 0.275699 -0.247184
O208  O     O_R   0.268238 0.357763 0.227155 -0.283188
N79   N     N_R   0.312567 0.820723 0.681296 0.256163
O209  O     O_R   0.314271 0.780501 0.669550 -0.287559
O210  O     O_R   0.293207 0.850260 0.661219 -0.240779
N80   N     N_R   0.681681 0.185862 0.318271 0.243625
O211  O     O_R   0.723450 0.186997 0.325421 -0.278392
O212  O     O_R   0.654137 0.199813 0.342989 -0.230518

loop_
_geom_bond_atom_site_label_1
_geom_bond_atom_site_label_2
_geom_bond_distance
_ccdc_geom_bond_type
O38   C84   1.274818 A    
N51   O153  1.301274 A    
C115  C147  1.407664 A    
N17   O85   1.300847 A    
C21   C204  1.401465 A    
C149  N53   1.439387 S    
N35   O122  1.300866 A    
N19   O90   1.301177 A    
C22   C203  1.401535 A    
N75   O201  1.300653 A    
C172  N76   1.438144 S    
C144  N48   1.432765 S    
N58   O167  1.301276 A    
H6    C22   1.083173 S    
N9    O69   1.301270 A    
C123  N27   1.438044 S    
C18   C31   1.393044 A    
Zn3   O38   1.931200 S    
C90   C98   1.410499 A    
Zn7   O3    1.933086 S    
Zn16  O5    1.905692 S    
Zn11  O2    1.932270 S    
Zn13  O35   1.931135 S    
N38   O127  1.300959 A    
C101  N10   1.438674 S    
N30   O112  1.301168 A    
H5    C21   1.083145 S    
C170  N74   1.439240 S    
N67   O186  1.300581 A    
C10   C136  1.411806 A    
C115  N19   1.437150 S    
N22   O95   1.300759 A    
C142  N46   1.432698 S    
C138  C170  1.406308 A    
Zn10  O27   1.930325 S    
C140  N44   1.432854 S    
C52   C63   1.203622 T    
O52   C78   1.279393 A    
N63   O177  1.300561 A    
N74   O199  1.301269 A    
C6    C140  1.415536 A    
C167  N71   1.438236 S    
O22   C74   1.274703 A    
N70   O191  1.301203 A    
Zn7   O42   1.931167 S    
C114  N18   1.434077 S    
H28   C44   1.083178 S    
N36   O124  1.301167 A    
C118  C150  1.405843 A    
C91   C103  1.410602 A    
C131  N35   1.433377 S    
C150  N54   1.438268 S    
C154  C186  1.411288 A    
C172  C182  1.409066 A    
O11   C67   1.277149 A    
Zn2   O15   1.906039 S    
Zn3   O45   1.930427 S    
C152  C184  1.408785 A    
N8    O67   1.301268 A    
Zn4   O17   1.906105 S    
Zn11  O22   1.931200 S    
N12   O75   1.301272 A    
N10   O71   1.301268 A    
N28   O108  1.300589 A    
Zn5   O51   1.931135 S    
O45   C75   1.274204 A    
C4    C142  1.411572 A    
N47   O146  1.301264 A    
C118  N22   1.432744 S    
C111  N4    1.438662 S    
N64   O179  1.301331 A    
C92   C104  1.410621 A    
C188  C197  1.473780 S    
C40   C199  1.402035 A    
H27   C43   1.083228 S    
C171  N75   1.437112 S    
Zn16  O25   1.931171 S    
Zn12  O1    1.932274 S    
H25   C41   1.083196 S    
C8    C120  1.416227 A    
C104  N11   1.438630 S    
N42   O135  1.301036 A    
N34   O120  1.300671 A    
C120  C152  1.406097 A    
C8    C78   1.485397 S    
N25   O101  1.301355 A    
N27   O105  1.301350 A    
C4    C116  1.411944 A    
N66   O183  1.301202 A    
C124  C156  1.406817 A    
H11   C27   1.083174 S    
H22   C38   1.083205 S    
C125  N29   1.433582 S    
C20   C29   1.393364 A    
N31   O114  1.300717 A    
C53   C68   1.430339 S    
Zn10  O7    1.906039 S    
C54   C67   1.430217 S    
C137  N41   1.433358 S    
C90   C102  1.410643 A    
C24   C25   1.394120 A    
N26   O104  1.300699 A    
N23   O97   1.300851 A    
H4    C20   1.083221 S    
C151  N55   1.437834 S    
C116  C148  1.405631 A    
C38   C197  1.402157 A    
Zn4   O46   1.930428 S    
N29   O109  1.300725 A    
C103  N12   1.438668 S    
C11   C123  1.411879 A    
Zn13  O24   1.929986 S    
Zn4   O4    1.932274 S    
C176  N80   1.439176 S    
C27   C198  1.401108 A    
N57   O166  1.301182 A    
N33   O117  1.300858 A    
C29   C196  1.401970 A    
C42   C201  1.401506 A    
C30   C195  1.402132 A    
Zn15  O26   1.931167 S    
C50   C71   1.430422 S    
C15   C129  1.411561 A    
N14   O79   1.301267 A    
C3    C115  1.413198 A    
C36   C45   1.394240 A    
C92   C100  1.410510 A    
Zn10  O3    1.932683 S    
C154  N58   1.437809 S    
C7    C77   1.475248 S    
C98   N13   1.438668 S    
N45   O142  1.301169 A    
C3    C141  1.413164 A    
C96   C112  1.410591 A    
C40   C41   1.393591 A    
C1    C143  1.412742 A    
N5    O61   1.301281 A    
H7    C23   1.083197 S    
N76   O203  1.301225 A    
C169  C183  1.411330 A    
H21   C37   1.083168 S    
N69   O190  1.301202 A    
N24   O99   1.300808 A    
O44   C86   1.276803 A    
C177  C208  1.470997 S    
C12   C134  1.413654 A    
C178  C207  1.472338 S    
N43   O138  1.301260 A    
N48   O148  1.300594 A    
C160  C192  1.411134 A    
O7    C67   1.276524 A    
C187  C198  1.469721 S    
C155  C187  1.410544 A    
C14   C126  1.413092 A    
N15   O81   1.301275 A    
C49   C72   1.430278 S    
C23   C202  1.402088 A    
O31   C83   1.275610 A    
H2    C18   1.083234 S    
N56   O163  1.301208 A    
C157  C189  1.411336 A    
C36   C195  1.402134 A    
N41   O133  1.300857 A    
N51   O154  1.301173 A    
O20   C72   1.276919 A    
N4    O59   1.301266 A    
C162  N66   1.436962 S    
N75   O202  1.301158 A    
C153  N57   1.438223 S    
C58   C90   1.443326 S    
Zn1   O16   1.906039 S    
C28   C197  1.402392 A    
C52   C69   1.430305 S    
H24   C40   1.083196 S    
H17   C33   1.083191 S    
N31   O113  1.300864 A    
N2    O55   1.301281 A    
C21   C28   1.394838 A    
H20   C36   1.083184 S    
H12   C28   1.083147 S    
C12   C82   1.479493 S    
N68   O188  1.301276 A    
C9    C87   1.468927 S    
N44   O139  1.300795 A    
C10   C88   1.475079 S    
C122  N26   1.433368 S    
C4    C74   1.475027 S    
N59   O169  1.301182 A    
C162  C192  1.410195 A    
N50   O151  1.301215 A    
C5    C75   1.471780 S    
C10   C122  1.411810 A    
C124  N28   1.432565 S    
C173  N77   1.437997 S    
C1    C79   1.471816 S    
O12   C68   1.277122 A    
C2    C80   1.474274 S    
O6    C66   1.276879 A    
C5    C117  1.410856 A    
N65   O181  1.300583 A    
N71   O193  1.301188 A    
C163  C189  1.411635 A    
C2    C114  1.411834 A    
C147  N51   1.437998 S    
C117  C149  1.406764 A    
O30   C82   1.277370 A    
Zn13  O12   1.905801 S    
N18   O87   1.300985 A    
N37   O126  1.301209 A    
C37   C44   1.394266 A    
O13   C69   1.276963 A    
N1    O54   1.301288 A    
C135  C167  1.407805 A    
C121  C153  1.407904 A    
C184  C201  1.471094 S    
C93   C105  1.410527 A    
C145  N49   1.439395 S    
H32   C48   1.083182 S    
C114  C146  1.405361 A    
C157  N61   1.437749 S    
N7    O66   1.301295 A    
N6    O63   1.301281 A    
C156  N60   1.439170 S    
Zn2   O43   1.930325 S    
C108  N7    1.438690 S    
N46   O143  1.300885 A    
O37   C83   1.275058 A    
C102  N9    1.438669 S    
C96   C108  1.410470 A    
H19   C35   1.083180 S    
C33   C194  1.402258 A    
C11   C81   1.468097 S    
C169  N73   1.437819 S    
C94   C110  1.410533 A    
C35   C196  1.402384 A    
N79   O209  1.300649 A    
H3    C19   1.083183 S    
C12   C124  1.413164 A    
C116  N20   1.433996 S    
C15   C85   1.474265 S    
C176  C178  1.411347 A    
C61   C93   1.443402 S    
C97   C102  1.410533 A    
C151  C183  1.411335 A    
C113  C145  1.406794 A    
N61   O174  1.300560 A    
O28   C80   1.274661 A    
Zn9   O31   1.930995 S    
O29   C81   1.273460 A    
C5    C139  1.412754 A    
C105  N6    1.438611 S    
Zn14  O36   1.931140 S    
Zn9   O4    1.932679 S    
C53   C58   1.203638 T    
C185  C200  1.470082 S    
C166  N70   1.436971 S    
C186  C199  1.473356 S    
C143  C175  1.408208 A    
N25   O102  1.301195 A    
N32   O115  1.300590 A    
C2    C144  1.411624 A    
C180  C205  1.473162 S    
N71   O194  1.301184 A    
C131  C163  1.405556 A    
C34   C47   1.394071 A    
C132  C164  1.407679 A    
Zn5   O1    1.933150 S    
N27   O106  1.301215 A    
Zn3   O18   1.906105 S    
N58   O168  1.300561 A    
C51   C64   1.203581 T    
C64   C96   1.443260 S    
N74   O200  1.300931 A    
C129  C161  1.405318 A    
C49   C62   1.203610 T    
N77   O206  1.301173 A    
Zn7   O14   1.905692 S    
C170  C184  1.409089 A    
N73   O198  1.301280 A    
Zn8   O4    1.933085 S    
C105  C110  1.410513 A    
O10   C66   1.276596 A    
C164  N68   1.437970 S    
N53   O158  1.301119 A    
N22   O96   1.300847 A    
O15   C71   1.276884 A    
C147  C179  1.411211 A    
C119  N23   1.433366 S    
C148  C180  1.411150 A    
N72   O195  1.301276 A    
C165  C187  1.410567 A    
C133  C165  1.407758 A    
C56   C65   1.430225 S    
Zn3   O3    1.932270 S    
C32   C193  1.402393 A    
N54   O159  1.301231 A    
C167  C185  1.410499 A    
N6    O64   1.301280 A    
N16   O83   1.301277 A    
C159  N63   1.437739 S    
C22   C27   1.394287 A    
C144  C176  1.405340 A    
C112  N3    1.438662 S    
H13   C29   1.083202 S    
C109  N2    1.438613 S    
Zn15  O33   1.930120 S    
Zn6   O52   1.931140 S    
N21   O94   1.300794 A    
C45   C206  1.402072 A    
O49   C79   1.274301 A    
O50   C80   1.276630 A    
C16   C130  1.413687 A    
C126  C158  1.407667 A    
N39   O130  1.301199 A    
C139  N43   1.438555 S    
C149  C181  1.410989 A    
O41   C87   1.273699 A    
C39   C200  1.401350 A    
Zn6   O2    1.933150 S    
O42   C88   1.275715 A    
N78   O207  1.301024 A    
O34   C86   1.277411 A    
C165  N69   1.438203 S    
C38   C43   1.394068 A    
C48   C207  1.401727 A    
Zn12  O9    1.906105 S    
C152  N56   1.437843 S    
C171  C181  1.410622 A    
N40   O131  1.300872 A    
H31   C47   1.083230 S    
N62   O175  1.301175 A    
C156  C188  1.411149 A    
N80   O211  1.301337 A    
C141  C173  1.407660 A    
N49   O150  1.301121 A    
N20   O91   1.300655 A    
C89   C97   1.410483 A    
O26   C78   1.278152 A    
C55   C66   1.430358 S    
C16   C128  1.413127 A    
C126  N30   1.437144 S    
N64   O180  1.301021 A    
N19   O89   1.301330 A    
H15   C31   1.083214 S    
N13   O78   1.301281 A    
C57   C89   1.443266 S    
H8    C24   1.083188 S    
O33   C85   1.275908 A    
C141  N45   1.437123 S    
C158  C190  1.411266 A    
N42   O136  1.300512 A    
O21   C73   1.274914 A    
N3    O57   1.301271 A    
N17   O86   1.300794 A    
C119  C151  1.405437 A    
Zn2   O48   1.930991 S    
C160  N64   1.439166 S    
N66   O184  1.300486 A    
N60   O171  1.301331 A    
C7    C119  1.411883 A    
N9    O70   1.301283 A    
O23   C75   1.275300 A    
C133  N37   1.438021 S    
H10   C26   1.083198 S    
O24   C76   1.278319 A    
N47   O145  1.301412 A    
O36   C88   1.275748 A    
C59   C91   1.443268 S    
N67   O185  1.301284 A    
N30   O111  1.301339 A    
C13   C131  1.411646 A    
O19   C71   1.276904 A    
C161  N65   1.437953 S    
Zn4   O37   1.931196 S    
H14   C30   1.083180 S    
C33   C48   1.393642 A    
N52   O155  1.300496 A    
Zn5   O40   1.929986 S    
O17   C69   1.276484 A    
Zn12  O21   1.931196 S    
C35   C46   1.393950 A    
O25   C77   1.275806 A    
Zn14  O23   1.929985 S    
C163  N67   1.437920 S    
N55   O161  1.300569 A    
C3    C73   1.473712 S    
N57   O165  1.301186 A    
C17   C208  1.401471 A    
C138  N42   1.432216 S    
N44   O140  1.300798 A    
C18   C207  1.401923 A    
N56   O164  1.300576 A    
N11   O73   1.301275 A    
C63   C95   1.443300 S    
C107  N8    1.438689 S    
C175  N79   1.437207 S    
O32   C84   1.274839 A    
Zn11  O10   1.906105 S    
C128  C160  1.406816 A    
O5    C65   1.276934 A    
H26   C42   1.083153 S    
C181  C204  1.470966 S    
C60   C92   1.443339 S    
C182  C203  1.470858 S    
O14   C70   1.277002 A    
C183  C202  1.473492 S    
N70   O192  1.300486 A    
N59   O170  1.301201 A    
C128  N32   1.432534 S    
C120  N24   1.432928 S    
H30   C46   1.083177 S    
C44   C203  1.401503 A    
N36   O123  1.301351 A    
C99   N16   1.438699 S    
N76   O204  1.300613 A    
Zn15  O2    1.933086 S    
N24   O100  1.300790 A    
C47   C208  1.400785 A    
H18   C34   1.083202 S    
Zn9   O28   1.930325 S    
Zn10  O32   1.930991 S    
C34   C193  1.402150 A    
C23   C26   1.393589 A    
C6    C76   1.483441 S    
N15   O82   1.301284 A    
N28   O107  1.300937 A    
N10   O72   1.301281 A    
N52   O156  1.301223 A    
C16   C86   1.479503 S    
C146  N50   1.437002 S    
N55   O162  1.301280 A    
N7    O65   1.301268 A    
C100  N15   1.438688 S    
H16   C32   1.083147 S    
O16   C72   1.276797 A    
Zn9   O8    1.906039 S    
C161  C191  1.411509 A    
C127  N31   1.433482 S    
C54   C57   1.203584 T    
O9    C65   1.276470 A    
Zn1   O47   1.930995 S    
C153  C185  1.410585 A    
C168  N72   1.437789 S    
Zn6   O19   1.905801 S    
C95   C107  1.410498 A    
N34   O119  1.300969 A    
N50   O152  1.300486 A    
C39   C42   1.394620 A    
C132  N36   1.437157 S    
N35   O121  1.300718 A    
C136  C168  1.405444 A    
C137  C169  1.405427 A    
C24   C201  1.401600 A    
H29   C45   1.083184 S    
O51   C77   1.275761 A    
C106  N5    1.438652 S    
O46   C76   1.277951 A    
C50   C61   1.203686 T    
O47   C73   1.274838 A    
C134  N38   1.433991 S    
C13   C125  1.411933 A    
C143  N47   1.438516 S    
N26   O103  1.300861 A    
N18   O88   1.300633 A    
N37   O125  1.301374 A    
H1    C17   1.083146 S    
Zn14  O3    1.933150 S    
N1    O53   1.301279 A    
O43   C85   1.275236 A    
N29   O110  1.300873 A    
C173  C179  1.411207 A    
C174  C180  1.411573 A    
O39   C81   1.273737 A    
C192  C193  1.473787 S    
C175  C177  1.410667 A    
C91   C99   1.410458 A    
Zn11  O29   1.930427 S    
C31   C194  1.401820 A    
C7    C137  1.411861 A    
C135  N39   1.437955 S    
Zn16  O1    1.933085 S    
C134  C166  1.405891 A    
N33   O118  1.300722 A    
C55   C60   1.203644 T    
C56   C59   1.203586 T    
N46   O144  1.300591 A    
N69   O189  1.301177 A    
C14   C132  1.413091 A    
C146  C178  1.410970 A    
N12   O76   1.301291 A    
N5    O62   1.301290 A    
C46   C205  1.401870 A    
N4    O60   1.301282 A    
N79   O210  1.301158 A    
C9    C121  1.411991 A    
Zn8   O50   1.930119 S    
N61   O173  1.301273 A    
Zn16  O34   1.930119 S    
C108  C111  1.410506 A    
N2    O56   1.301257 A    
C127  C159  1.404990 A    
O48   C74   1.276137 A    
N48   O147  1.300918 A    
C6    C118  1.415611 A    
C17   C32   1.394853 A    
C25   C200  1.401037 A    
H23   C39   1.083153 S    
C150  C182  1.409080 A    
C26   C199  1.402027 A    
N49   O149  1.301169 A    
C19   C30   1.394245 A    
O35   C87   1.274040 A    
N14   O80   1.301299 A    
N32   O116  1.300932 A    
N23   O98   1.300712 A    
C1    C113  1.410875 A    
C94   C106  1.410470 A    
O40   C82   1.276643 A    
N3    O58   1.301285 A    
C189  C196  1.473733 S    
N41   O134  1.300710 A    
C190  C195  1.473993 S    
C20   C205  1.402044 A    
C191  C194  1.472893 S    
C142  C174  1.405704 A    
C113  N17   1.434092 S    
Zn1   O1    1.932679 S    
N39   O129  1.301355 A    
O27   C79   1.275424 A    
C179  C206  1.473861 S    
C89   C101  1.410580 A    
N77   O205  1.301276 A    
H9    C25   1.083174 S    
C15   C127  1.411797 A    
N60   O172  1.301018 A    
C95   C111  1.410627 A    
N68   O187  1.301172 A    
C166  C188  1.410189 A    
O8    C68   1.276619 A    
C97   N14   1.438701 S    
C155  N59   1.438231 S    
C93   C109  1.410585 A    
C37   C198  1.401134 A    
Zn7   O49   1.930120 S    
C159  C191  1.411125 A    
C62   C94   1.443300 S    
Zn8   O41   1.931171 S    
N53   O157  1.301170 A    
N8    O68   1.301290 A    
C122  C154  1.405427 A    
N63   O178  1.301270 A    
C164  C190  1.411275 A    
C110  N1    1.438653 S    
C9    C135  1.412064 A    
N72   O196  1.300558 A    
C41   C202  1.402086 A    
C158  N62   1.437978 S    
N11   O74   1.301272 A    
N54   O160  1.300638 A    
C43   C204  1.400777 A    
N16   O84   1.301290 A    
N65   O182  1.301286 A    
Zn5   O20   1.905801 S    
C107  C112  1.410490 A    
C117  N21   1.434080 S    
N38   O128  1.300673 A    
C8    C138  1.416152 A    
N21   O93   1.300849 A    
O18   C70   1.276406 A    
Zn14  O11   1.905801 S    
C13   C83   1.474977 S    
C168  C186  1.411287 A    
C14   C84   1.473555 S    
C130  N34   1.434039 S    
C121  N25   1.437895 S    
C145  C177  1.411011 A    
C136  N40   1.433390 S    
C139  C171  1.408380 A    
C140  C172  1.405897 A    
Zn13  O4    1.933150 S    
N78   O208  1.301340 A    
Zn6   O39   1.929985 S    
C125  C157  1.405414 A    
Zn8   O13   1.905692 S    
C106  C109  1.410488 A    
N45   O141  1.301336 A    
C99   C104  1.410487 A    
N40   O132  1.300694 A    
C100  C103  1.410518 A    
C130  C162  1.405919 A    
N62   O176  1.301276 A    
C98   C101  1.410471 A    
N80   O212  1.301034 A    
Zn15  O6    1.905692 S    
C148  N52   1.437102 S    
C129  N33   1.433366 S    
N20   O92   1.300966 A    
C11   C133  1.411818 A    
C51   C70   1.430226 S    
N43   O137  1.301420 A    
C123  C155  1.407709 A    
C174  N78   1.439170 S    
Zn2   O2    1.932683 S    
Zn1   O44   1.930325 S    
Zn12  O30   1.930428 S    
N13   O77   1.301269 A    
N73   O197  1.300567 A    
C19   C206  1.402080 A    
