data_mof_unit_21884.cif
_audit_creation_date              2012-12-10T17:53:14-0500
_audit_creation_method            fapswitch 2.2
_symmetry_space_group_name_H-M    P1
_symmetry_Int_Tables_number       1
_space_group_crystal_system       triclinic
_cell_length_a                    23.415733
_cell_length_b                    10.613961
_cell_length_c                    9.922437
_cell_angle_alpha                 89.995835
_cell_angle_beta                  90.028564
_cell_angle_gamma                 91.690389
_cell_volume                      2464.98626642

loop_
_atom_site_label
_atom_site_type_symbol
_atom_type_description
_atom_site_fract_x
_atom_site_fract_y
_atom_site_fract_z
_atom_type_partial_charge
C1    C     C_R   0.499782 0.260719 0.500055 0.849837
C2    C     C_R   0.967051 0.264686 0.509378 -0.159773
C3    C     C_R   0.026510 0.264554 0.509371 -0.159858
C4    C     C_R   0.058303 0.378651 0.503511 -0.008134
C5    C     C_R   0.029956 0.493792 0.497310 -0.021717
C6    C     C_R   0.061460 0.608817 0.491294 -0.016371
C7    C     C_R   0.032847 0.723059 0.485265 -0.158026
C8    C     C_R   0.973414 0.723228 0.485299 -0.159271
C9    C     C_R   0.117978 0.380998 0.503537 0.493335
C10   C     C_R   0.121034 0.606302 0.491881 0.506170
C11   C     C_R   0.238517 0.527847 0.381254 -0.120317
C12   C     C_R   0.389457 0.499718 0.499993 0.840397
C13   C     C_R   0.297780 0.530717 0.382103 -0.251941
C14   C     C_R   0.327282 0.498700 0.499780 -0.036331
C15   C     C_R   0.296921 0.464679 0.616767 -0.221913
C16   C     C_R   0.237625 0.462208 0.615702 -0.095646
C17   C     C_R   0.208509 0.493843 0.498035 0.319078
C18   C     C_R   0.762228 0.491276 0.622758 0.148355
C19   C     C_R   0.702746 0.493484 0.622525 -0.275298
C20   C     C_R   0.672872 0.499262 0.500088 -0.067597
C21   C     C_R   0.702898 0.502766 0.377733 -0.223020
C22   C     C_R   0.762086 0.500649 0.377863 -0.163998
C23   C     C_R   0.500408 0.739163 0.499957 0.886604
C24   C     C_R   0.791607 0.494896 0.499857 0.339843
C25   C     C_R   0.607574 0.139065 0.495213 -0.156850
C26   C     C_R   0.659354 0.077371 0.492829 -0.122119
C27   C     C_R   0.659706 0.946213 0.492678 -0.120207
C28   C     C_R   0.608279 0.876496 0.494940 -0.175575
C29   C     C_R   0.555493 0.937914 0.497409 0.084711
C30   C     C_R   0.555034 0.069752 0.497540 0.077613
C31   C     C_R   0.501713 0.128251 0.500156 -0.128796
C32   C     C_R   0.449637 0.059432 0.502738 0.088384
C33   C     C_R   0.450652 0.930438 0.502521 -0.158186
C34   C     C_R   0.610608 0.500640 0.500005 0.845381
C35   C     C_R   0.502728 0.871366 0.499915 -0.144212
C36   C     C_R   0.424228 0.336704 0.139612 -0.284187
C37   C     C_R   0.385800 0.257266 0.069342 0.503858
C38   C     C_R   0.387140 0.255883 0.929643 -0.270965
C39   C     C_R   0.424655 0.336177 0.860037 -0.256873
C40   C     C_R   0.462683 0.419591 0.927732 0.184567
C41   C     C_R   0.462614 0.419692 0.072114 0.119183
C42   C     C_R   0.535794 0.576833 0.071520 -0.099983
C43   C     C_R   0.535765 0.576829 0.928452 -0.108778
C44   C     C_R   0.882007 0.606908 0.492063 0.516822
C45   C     C_R   0.878832 0.381604 0.503849 0.524096
C46   C     C_R   0.938428 0.378913 0.503521 -0.017460
C47   C     C_R   0.969963 0.493945 0.497346 -0.022945
C48   C     C_R   0.941643 0.609162 0.491396 -0.016082
H1    H     H_    0.943655 0.175218 0.514105 0.192620
H2    H     H_    0.680222 0.490564 0.717884 0.166409
H3    H     H_    0.680774 0.507275 0.282050 0.169734
H4    H     H_    0.785180 0.503660 0.283324 0.144729
H5    H     H_    0.609068 0.240806 0.495282 0.134815
H6    H     H_    0.699268 0.131514 0.491119 0.172187
H7    H     H_    0.699891 0.898347 0.490835 0.168440
H8    H     H_    0.610177 0.774799 0.494796 0.126501
H9    H     H_    0.410732 0.875798 0.504328 0.159611
H10   H     H_    0.565057 0.639634 0.125209 0.145045
H11   H     H_    0.047419 0.174970 0.514063 0.191357
H12   H     H_    0.423164 0.329929 0.246322 0.206228
H13   H     H_    0.358631 0.192464 0.874315 0.179727
H14   H     H_    0.422743 0.329961 0.753325 0.217439
H15   H     H_    0.565006 0.639642 0.874770 0.146595
H16   H     H_    0.056229 0.812547 0.480597 0.192703
H17   H     H_    0.952510 0.812822 0.480685 0.190552
H18   H     H_    0.215809 0.552207 0.290241 0.143228
H19   H     H_    0.320443 0.557519 0.290875 0.167127
H20   H     H_    0.318884 0.439216 0.708455 0.159586
H21   H     H_    0.214215 0.436299 0.706132 0.140676
N1    N     N_R   0.852281 0.494384 0.498412 -0.348547
N2    N     N_R   0.147752 0.493618 0.497759 -0.358825
N3    N     N_R   0.499460 0.498800 0.142780 -0.106736
N4    N     N_R   0.499440 0.498720 0.857170 -0.111672
O1    O     O_R   0.500000 0.316780 0.614690 -0.628768
O2    O     O_2   0.847513 0.272910 0.509570 -0.562582
O3    O     O_2   0.146159 0.271980 0.508553 -0.572746
O4    O     O_2   0.152174 0.715318 0.487602 -0.548478
O5    O     O_R   0.500000 0.316750 0.385360 -0.625258
O6    O     O_R   0.416160 0.499970 0.614690 -0.632523
O7    O     O_R   0.416150 0.499950 0.385360 -0.642941
O8    O     O_R   0.500000 0.683250 0.614640 -0.606941
O9    O     O_R   0.500000 0.683220 0.385310 -0.605946
O10   O     O_R   0.583850 0.500050 0.614640 -0.619134
O11   O     O_R   0.583840 0.500030 0.385310 -0.620443
O12   O     O_2   0.853764 0.715860 0.486878 -0.559834
Zn1   Zn    Zn3+2 0.500000 0.500020 0.653130 0.945624
Zn2   Zn    Zn3+2 0.500000 0.499980 0.346870 0.943495
N5    N     N_3   0.395394 0.118711 0.505076 -0.444161
H22   H     H_    0.392703 0.176907 0.420641 0.192172
H23   H     H_    0.393373 0.174869 0.591254 0.167774
O13   O     O_3   0.349664 0.172848 0.136097 -0.598988
C49   C     C_3   0.306802 0.239935 0.202700 0.042935
H24   H     H_    0.284358 0.303244 0.131719 0.144457
H25   H     H_    0.325285 0.296399 0.287083 0.142910
C50   C     C_3   0.262943 0.147034 0.261744 -0.705762
H26   H     H_    0.283832 0.083737 0.334714 0.266126
H27   H     H_    0.229241 0.199170 0.314860 0.241108
H28   H     H_    0.242874 0.089465 0.180092 0.254289
N6    N     N_3   0.793087 0.485907 0.747104 -0.446663
H29   H     H_    0.779178 0.404781 0.798699 0.195739
H30   H     H_    0.782344 0.563923 0.805146 0.189201

loop_
_geom_bond_atom_site_label_1
_geom_bond_atom_site_label_2
_ccdc_geom_bond_type
O5    Zn2   S    
C43   N4    A    
C23   O9    A    
C50   H26   S    
O11   Zn2   S    
C42   H10   S    
C28   H8    S    
C50   H28   S    
C24   N1    S    
C7    C8    A    
C45   C46   A    
C2    C46   A    
C5    C6    A    
C5    C47   A    
C26   C27   A    
C29   C30   A    
C18   C24   A    
C1    O1    A    
C36   C37   A    
C25   H5    S    
O7    Zn2   S    
C30   C31   A    
C27   H7    S    
C15   C16   A    
C32   N5    S    
C12   O6    A    
C1    C31   S    
C40   N4    A    
C18   C19   A    
C11   C17   A    
N6    H29   S    
C16   C17   A    
C44   N1    A    
C9    O3    S    
O8    Zn1   S    
C11   H18   S    
C38   H13   S    
C20   C34   S    
C10   N2    A    
C8    H17   S    
C21   C22   A    
C1    O5    A    
C36   C41   A    
C34   O11   A    
C26   H6    S    
C49   H25   S    
C10   O4    S    
N4    Zn1   S    
C37   O13   S    
C43   H15   S    
C34   O10   A    
O13   C49   S    
C25   C26   A    
C49   C50   S    
C3    C4    A    
C8    C48   A    
C37   C38   A    
C2    H1    S    
C47   C48   A    
C20   C21   A    
C42   N3    A    
O1    Zn1   S    
C41   N3    A    
C40   C41   A    
N6    H30   S    
C12   C14   S    
C17   N2    S    
C23   C35   S    
C22   C24   A    
C42   C43   A    
C44   O12   S    
C21   H3    S    
N3    Zn2   S    
C22   H4    S    
C13   H19   S    
C25   C30   A    
C39   H14   S    
C46   C47   A    
C28   C29   A    
C33   H9    S    
C23   O8    A    
C45   N1    A    
C31   C32   A    
C16   H21   S    
C9    N2    A    
N5    H23   S    
C4    C5    A    
C36   H12   S    
C6    C10   A    
C50   H27   S    
C6    C7    A    
C29   C35   A    
C45   O2    S    
C32   C33   A    
C19   C20   A    
C2    C3    A    
C11   C13   A    
C19   H2    S    
C38   C39   A    
C15   H20   S    
C12   O7    A    
C49   H24   S    
C33   C35   A    
C7    H16   S    
C39   C40   A    
C44   C48   A    
O10   Zn1   S    
N5    H22   S    
C18   N6    S    
C27   C28   A    
C14   C15   A    
C4    C9    A    
C13   C14   A    
O6    Zn1   S    
O9    Zn2   S    
C3    H11   S    
