data_mof_unit_61617.cif
_audit_creation_date              2012-12-10T19:50:07-0500
_audit_creation_method            fapswitch 2.2
_symmetry_space_group_name_H-M    P1
_symmetry_Int_Tables_number       1
_space_group_crystal_system       triclinic
_cell_length_a                    36.83225
_cell_length_b                    18.270582
_cell_length_c                    18.272156
_cell_angle_alpha                 90.13734
_cell_angle_beta                  119.93997
_cell_angle_gamma                 90.115394
_cell_volume                      10655.1414015

loop_
_atom_site_label
_atom_site_type_symbol
_atom_type_description
_atom_site_fract_x
_atom_site_fract_y
_atom_site_fract_z
_atom_type_partial_charge
C1    C     C_R   0.500053 0.999926 0.358830 0.934412
C2    C     C_1   0.336905 0.999604 0.337690 -0.100112
C3    C     C_3   0.853165 0.223281 0.939443 -0.860738
C4    C     C_3   0.288651 0.381765 0.705550 -0.393841
C5    C     C_3   0.281794 0.354028 0.620009 -0.363506
C6    C     C_3   0.295714 0.274617 0.625674 -0.884640
C7    C     C_3   0.711313 0.615583 0.298181 -0.393757
C8    C     C_3   0.718091 0.640805 0.384498 -0.362909
C9    C     C_3   0.704157 0.719914 0.381303 -0.885784
C10   C     C_3   0.704694 0.368100 0.145668 -0.397986
C11   C     C_3   0.669789 0.319784 0.143080 -0.366315
C12   C     C_3   0.646835 0.276752 0.060473 -0.860723
C13   C     C_1   0.163126 0.500775 0.662434 -0.097583
C14   C     C_3   0.295306 0.633606 0.850451 -0.397281
C15   C     C_3   0.330210 0.680926 0.851615 -0.367405
C16   C     C_3   0.353148 0.725746 0.932900 -0.859725
C17   C     C_1   0.836873 0.499221 0.337696 -0.097835
C18   C     C_1   0.625642 0.000478 0.625294 -0.185652
C19   C     C_1   0.374381 0.999651 0.374751 -0.184945
C20   C     C_1   0.125641 0.500480 0.625377 -0.185296
C21   C     C_1   0.874358 0.499522 0.374706 -0.185601
C22   C     C_1   0.500142 0.999799 0.282506 -0.195378
C23   C     C_1   0.499857 0.000200 0.717494 -0.195428
C24   C     C_1   0.000142 0.499799 0.282506 -0.195311
C25   C     C_R   0.499946 0.000073 0.641170 0.934315
C26   C     C_1   0.999857 0.500199 0.717493 -0.195269
C27   C     C_1   0.500166 0.999832 0.217787 -0.193052
C28   C     C_1   0.499834 0.000168 0.782213 -0.193120
C29   C     C_1   0.000166 0.499831 0.217787 -0.192862
C30   C     C_1   0.999833 0.500165 0.782212 -0.192902
C31   C     C_R   0.999906 0.141042 0.999982 0.934590
C32   C     C_R   0.000048 0.858958 0.999974 0.933347
C33   C     C_R   0.499906 0.641042 0.999982 0.934567
C34   C     C_R   0.500092 0.358958 0.000016 0.934458
C35   C     C_R   0.918810 0.999622 0.918617 0.912104
C36   C     C_R   0.000053 0.499926 0.358830 0.934311
C37   C     C_R   0.081197 0.000243 0.081367 0.913729
C38   C     C_R   0.418810 0.499612 0.918622 0.912369
C39   C     C_R   0.581190 0.500379 0.081383 0.912337
C40   C     C_R   0.499930 0.858715 0.999999 0.935136
C41   C     C_R   0.500070 0.141285 1.000000 0.935080
C42   C     C_R   0.999930 0.358715 1.000000 0.934884
C43   C     C_R   0.000065 0.641284 0.000008 0.934972
C44   C     C_R   0.500061 0.999945 0.141269 0.935559
C45   C     C_R   0.499939 0.000055 0.858731 0.935499
C46   C     C_R   0.000061 0.499943 0.141269 0.935246
C47   C     C_R   0.999946 0.500073 0.641169 0.934329
C48   C     C_R   0.999939 0.500052 0.858731 0.935339
C49   C     C_1   0.999803 0.217493 0.000017 -0.196727
C50   C     C_1   0.000147 0.782506 0.999944 -0.196458
C51   C     C_1   0.499802 0.717492 0.000015 -0.196783
C52   C     C_1   0.500196 0.282508 0.999981 -0.196844
C53   C     C_R   0.581202 0.000134 0.581228 0.909711
C54   C     C_R   0.418806 0.999881 0.418808 0.909786
C55   C     C_R   0.081201 0.500135 0.581247 0.909701
C56   C     C_R   0.918798 0.499866 0.418772 0.909604
C57   C     C_1   0.499794 0.782260 0.999981 -0.195744
C58   C     C_1   0.836920 0.999920 0.835162 -0.122240
C59   C     C_1   0.500204 0.217740 0.000016 -0.195655
C60   C     C_1   0.999795 0.282260 0.999983 -0.195454
C61   C     C_1   0.000176 0.717738 0.000005 -0.192822
C62   C     C_3   0.725629 0.079966 0.733549 -0.438648
C63   C     C_3   0.274384 0.921090 0.264154 -0.417811
C64   C     C_3   0.275162 0.028901 0.350666 -0.419528
C65   C     C_3   0.724891 0.969067 0.650072 -0.422165
C66   C     C_3   0.225630 0.580175 0.731261 -0.438396
C67   C     C_3   0.774371 0.420038 0.266420 -0.438642
C68   C     C_3   0.775109 0.530905 0.349939 -0.422164
C69   C     C_1   0.163109 0.000957 0.164208 -0.142887
C70   C     C_3   0.224873 0.466806 0.651197 -0.422099
C71   C     C_3   0.773724 0.964422 0.699117 -0.070401
C72   C     C_3   0.226312 0.029508 0.303140 -0.062336
C73   C     C_3   0.225538 0.920364 0.215611 -0.062641
C74   C     C_3   0.774255 0.081641 0.774275 -0.061225
C75   C     C_3   0.273702 0.462146 0.700359 -0.070413
C76   C     C_3   0.726276 0.535552 0.300896 -0.070410
C77   C     C_3   0.725744 0.418360 0.225694 -0.061225
C78   C     C_3   0.274259 0.581591 0.771957 -0.061560
C79   C     C_1   0.874400 0.999446 0.873571 -0.197505
C80   C     C_1   0.336918 0.499840 0.835245 -0.122178
C81   C     C_1   0.125622 0.000739 0.126247 -0.192369
C82   C     C_1   0.374398 0.499397 0.873608 -0.197568
C83   C     C_1   0.625600 0.500555 0.126428 -0.197558
C84   C     C_3   0.708813 0.000971 0.707257 0.309569
C85   C     C_3   0.291232 0.999678 0.292561 0.302865
C86   C     C_3   0.208811 0.500938 0.707396 0.309290
C87   C     C_3   0.791187 0.499029 0.292742 0.309556
C88   C     C_3   0.791124 0.000707 0.788650 0.280594
C89   C     C_3   0.208946 0.000586 0.210310 0.272203
C90   C     C_3   0.291122 0.500614 0.788766 0.280558
C91   C     C_1   0.663080 0.500081 0.164838 -0.122243
C92   C     C_3   0.708875 0.499293 0.211349 0.280603
C93   C     C_3   0.774137 0.957550 0.838647 -0.401717
C94   C     C_3   0.225979 0.049860 0.165033 -0.398803
C95   C     C_3   0.274148 0.459527 0.840076 -0.401574
C96   C     C_3   0.725863 0.542476 0.161369 -0.401723
C97   C     C_3   0.725788 0.953786 0.787896 -0.401536
C98   C     C_3   0.274420 0.049244 0.213604 -0.402382
C99   C     C_3   0.225796 0.455723 0.789462 -0.401512
C100  C     C_3   0.774212 0.546239 0.212122 -0.401531
C101  C     C_3   0.788687 0.884386 0.701862 -0.393773
C102  C     C_1   0.663127 0.000779 0.662304 -0.097844
C103  C     C_3   0.781909 0.859135 0.615554 -0.362893
C104  C     C_3   0.795844 0.780022 0.618778 -0.885781
C105  C     C_3   0.209587 0.106258 0.308733 -0.396872
C106  C     C_3   0.218062 0.123289 0.398403 -0.363726
C107  C     C_3   0.202217 0.199277 0.403220 -0.884706
C108  C     C_3   0.207909 0.881516 0.128454 -0.398468
C109  C     C_3   0.215399 0.798484 0.137831 -0.365584
C110  C     C_3   0.197934 0.761320 0.051808 -0.876234
C111  C     C_3   0.795305 0.131924 0.854281 -0.397984
C112  C     C_3   0.830210 0.180227 0.856852 -0.366322
H1    H     H_    0.712952 0.973349 0.828170 0.170188
H2    H     H_    0.215063 0.887729 0.253231 0.134028
H3    H     H_    0.215763 0.990253 0.335409 0.134880
H4    H     H_    0.785615 0.997338 0.664122 0.133250
H5    H     H_    0.280657 0.604977 0.723186 0.136228
H6    H     H_    0.719353 0.393301 0.273735 0.136132
H7    H     H_    0.714385 0.502618 0.335878 0.133241
H8    H     H_    0.285586 0.493596 0.664359 0.133252
H9    H     H_    0.711360 0.116573 0.677490 0.157603
H10   H     H_    0.286195 0.884671 0.320174 0.150983
H11   H     H_    0.286971 0.993903 0.407823 0.150517
H12   H     H_    0.285827 0.029174 0.171097 0.170039
H13   H     H_    0.714494 0.004437 0.593580 0.151061
H14   H     H_    0.211365 0.615480 0.674089 0.157688
H15   H     H_    0.788640 0.383415 0.322466 0.157612
H16   H     H_    0.785506 0.495518 0.406417 0.151061
H17   H     H_    0.214469 0.500748 0.593635 0.151078
H18   H     H_    0.710280 0.914365 0.626417 0.177335
H19   H     H_    0.288389 0.084653 0.373077 0.177930
H20   H     H_    0.287017 0.899371 0.224368 0.177424
H21   H     H_    0.715582 0.100671 0.778003 0.172738
H22   H     H_    0.210254 0.411864 0.629223 0.177495
H23   H     H_    0.286376 0.106118 0.232857 0.171243
H24   H     H_    0.789720 0.585604 0.373616 0.177341
H25   H     H_    0.784418 0.399354 0.221959 0.172741
H26   H     H_    0.215578 0.602550 0.775044 0.173257
H27   H     H_    0.829603 0.774235 0.666244 0.265732
H28   H     H_    0.777150 0.742879 0.635368 0.258774
H29   H     H_    0.791045 0.763684 0.555965 0.253450
H30   H     H_    0.748305 0.863277 0.566593 0.222415
H31   H     H_    0.800252 0.894752 0.596474 0.220955
H32   H     H_    0.822650 0.879789 0.748283 0.211358
H33   H     H_    0.771756 0.846747 0.722418 0.209712
H34   H     H_    0.715546 0.895898 0.770435 0.170823
H35   H     H_    0.218656 0.241833 0.387149 0.258907
H36   H     H_    0.167949 0.203170 0.358952 0.265632
H37   H     H_    0.208390 0.209679 0.468363 0.253477
H38   H     H_    0.201966 0.082024 0.417001 0.220848
H39   H     H_    0.252173 0.120860 0.444446 0.222956
H40   H     H_    0.224341 0.149307 0.289150 0.208313
H41   H     H_    0.175212 0.109091 0.265392 0.214542
H42   H     H_    0.163627 0.770471 0.013139 0.264690
H43   H     H_    0.213547 0.783231 0.017800 0.257243
H44   H     H_    0.203726 0.701507 0.060538 0.248553
H45   H     H_    0.212975 0.476917 0.829134 0.170456
H46   H     H_    0.249453 0.786731 0.175679 0.223101
H47   H     H_    0.199796 0.774603 0.171004 0.220451
H48   H     H_    0.173605 0.890286 0.089585 0.215425
H49   H     H_    0.222604 0.904775 0.093234 0.208219
H50   H     H_    0.830938 0.258986 0.947225 0.255619
H51   H     H_    0.868425 0.185255 0.993852 0.263146
H52   H     H_    0.877726 0.258188 0.938806 0.256439
H53   H     H_    0.853365 0.146486 0.850118 0.230870
H54   H     H_    0.816272 0.219467 0.803386 0.215109
H55   H     H_    0.771913 0.169606 0.855356 0.200184
H56   H     H_    0.787048 0.526695 0.171841 0.170188
H57   H     H_    0.808258 0.098905 0.912822 0.212939
H58   H     H_    0.329503 0.269274 0.673126 0.265660
H59   H     H_    0.277105 0.238628 0.643653 0.258436
H60   H     H_    0.290780 0.256423 0.563308 0.253583
H61   H     H_    0.248175 0.357686 0.571002 0.223324
H62   H     H_    0.300098 0.388442 0.599732 0.220636
H63   H     H_    0.322626 0.377549 0.752031 0.211296
H64   H     H_    0.271754 0.345327 0.727346 0.209741
H65   H     H_    0.722852 0.757070 0.364729 0.258787
H66   H     H_    0.670398 0.725706 0.333839 0.265735
H67   H     H_    0.784454 0.604124 0.229604 0.170835
H68   H     H_    0.708955 0.736230 0.444122 0.253440
H69   H     H_    0.699748 0.605174 0.403564 0.220937
H70   H     H_    0.751695 0.636656 0.433458 0.222418
H71   H     H_    0.728244 0.653235 0.277639 0.209720
H72   H     H_    0.677350 0.620185 0.251761 0.211365
H73   H     H_    0.631575 0.314793 0.006078 0.263145
H74   H     H_    0.669062 0.241060 0.052677 0.255614
H75   H     H_    0.622274 0.241835 0.061097 0.256441
H76   H     H_    0.683728 0.280530 0.196531 0.215108
H77   H     H_    0.646635 0.353514 0.149827 0.230869
H78   H     H_    0.215544 0.397651 0.773779 0.170798
H79   H     H_    0.691741 0.401136 0.087141 0.212934
H80   H     H_    0.728086 0.330427 0.144579 0.200187
H81   H     H_    0.330910 0.762322 0.939579 0.255924
H82   H     H_    0.368406 0.688914 0.988441 0.263106
H83   H     H_    0.377711 0.759890 0.931254 0.256566
H84   H     H_    0.353374 0.646311 0.845930 0.230988
H85   H     H_    0.316273 0.718959 0.796982 0.215236
H86   H     H_    0.271913 0.671997 0.850394 0.200599
H87   H     H_    0.308262 0.601967 0.909964 0.213087
H88   H     H_    0.784276 0.983803 0.900812 0.167892
H89   H     H_    0.780646 0.106680 0.726224 0.136135
H90   H     H_    0.214071 0.030767 0.099102 0.168735
H91   H     H_    0.214604 0.106923 0.160127 0.167638
H92   H     H_    0.787118 0.901166 0.852642 0.166522
H93   H     H_    0.284303 0.487335 0.901435 0.168031
H94   H     H_    0.715724 0.516242 0.099194 0.167884
H95   H     H_    0.712882 0.598860 0.147395 0.166525
H96   H     H_    0.287123 0.403198 0.855777 0.166514
O1    O     O_R   0.500010 0.060620 0.392670 -0.620528
O2    O     O_R   0.438570 0.939380 0.438570 -0.620031
O3    O     O_R   0.438570 0.060620 0.438570 -0.619390
O4    O     O_R   0.561430 0.939380 0.561430 -0.619400
O5    O     O_R   0.061430 0.560620 0.561430 -0.619544
O6    O     O_R   0.938570 0.439380 0.438570 -0.619742
O7    O     O_R   0.938570 0.560620 0.438570 -0.619409
O8    O     O_R   0.061430 0.439380 0.561430 -0.619443
O9    O     O_R   1.000000 0.107140 0.939380 -0.620470
O10   O     O_R   1.000000 0.892860 0.060620 -0.620097
O11   O     O_R   1.000000 0.107140 0.060620 -0.620274
O12   O     O_R   0.499990 0.939380 0.607330 -0.620572
O13   O     O_R   1.000000 0.892860 0.939380 -0.620592
O14   O     O_R   0.500000 0.607140 0.939380 -0.620783
O15   O     O_R   0.500000 0.392860 0.060620 -0.620753
O16   O     O_R   0.500000 0.607140 0.060620 -0.620042
O17   O     O_R   0.500000 0.392860 0.939380 -0.620042
O18   O     O_R   0.938580 1.000000 0.877970 -0.621885
O19   O     O_R   0.061420 1.000000 0.122030 -0.620080
O20   O     O_R   0.438580 0.500000 0.877970 -0.622041
O21   O     O_R   0.561420 0.500000 0.122030 -0.621949
O22   O     O_R   0.938570 1.000000 0.999140 -0.617159
O23   O     O_R   0.499990 0.060620 0.607330 -0.620540
O24   O     O_R   0.061430 1.000000 0.000860 -0.619734
O25   O     O_R   0.438570 0.500000 0.999140 -0.616999
O26   O     O_R   0.561430 0.500000 0.000860 -0.617036
O27   O     O_R   0.534690 0.892630 0.034650 -0.621494
O28   O     O_R   0.465310 0.107370 0.965350 -0.621515
O29   O     O_R   0.465310 0.892630 0.965350 -0.624985
O30   O     O_R   0.534690 0.107370 0.034650 -0.624866
O31   O     O_R   0.034690 0.392630 0.034650 -0.621602
O32   O     O_R   0.965310 0.607370 0.965350 -0.622256
O33   O     O_R   0.965310 0.392630 0.965350 -0.624930
O34   O     O_R   0.500010 0.939380 0.392670 -0.620513
O35   O     O_R   0.034690 0.607370 0.034650 -0.622326
O36   O     O_R   0.534680 1.000000 0.141990 -0.622695
O37   O     O_R   0.465320 1.000000 0.858010 -0.622692
O38   O     O_R   0.034680 0.500000 0.141990 -0.622776
O39   O     O_R   0.965320 0.500000 0.858010 -0.622776
O40   O     O_R   0.465320 0.000000 0.072630 -0.622007
O41   O     O_R   0.534680 1.000000 0.927370 -0.622084
O42   O     O_R   0.965320 0.500000 0.072630 -0.622161
O43   O     O_R   0.034680 0.500000 0.927370 -0.621892
O44   O     O_R   0.000010 0.560620 0.392670 -0.620420
O45   O     O_R   0.999990 0.439380 0.607330 -0.620530
O46   O     O_R   0.999990 0.560620 0.607330 -0.620467
O47   O     O_R   0.000010 0.439380 0.392670 -0.620569
O48   O     O_R   0.561430 0.060620 0.561430 -0.619734
Zn1   Zn    Zn3+2 0.500000 0.080950 0.500000 0.958155
Zn2   Zn    Zn3+2 0.453690 1.000000 0.953700 0.953147
Zn3   Zn    Zn3+2 0.046310 0.500000 0.046300 0.955112
Zn4   Zn    Zn3+2 0.953690 0.500000 0.953700 0.953005
Zn5   Zn    Zn3+2 0.500000 0.919050 0.500000 0.957964
Zn6   Zn    Zn3+2 1.000000 0.580950 0.500000 0.958669
Zn7   Zn    Zn3+2 1.000000 0.419050 0.500000 0.958307
Zn8   Zn    Zn3+2 0.000010 1.000000 0.919080 0.955425
Zn9   Zn    Zn3+2 0.999990 1.000000 0.080920 0.956760
Zn10  Zn    Zn3+2 0.500010 0.500000 0.919080 0.955334
Zn11  Zn    Zn3+2 0.499990 0.500000 0.080920 0.955544
Zn12  Zn    Zn3+2 0.546310 1.000000 0.046300 0.953140

loop_
_geom_bond_atom_site_label_1
_geom_bond_atom_site_label_2
_ccdc_geom_bond_type
C8    H69   S    
C95   H93   S    
C37   O24   A    
C105  H41   S    
C77   C92   S    
C106  H38   S    
O33   Zn4   S    
O18   Zn8   S    
C35   O18   A    
C84   C102  S    
C5    H62   S    
O17   Zn10  S    
C111  C112  S    
C67   C77   S    
C106  H39   S    
O13   Zn8   S    
C63   H10   S    
C38   O25   A    
C32   O13   A    
O21   Zn11  S    
C7    C8    S    
C6    H60   S    
C78   C90   S    
C98   H12   S    
C14   H86   S    
C72   H3    S    
C101  H33   S    
C24   C36   S    
C49   C60   T    
C7    H72   S    
C84   C97   S    
O27   Zn12  S    
C62   H21   S    
C30   C48   S    
C39   O21   A    
C48   O39   A    
C20   C55   S    
C5    C6    S    
C15   H85   S    
C101  H32   S    
C95   C99   S    
O26   Zn10  S    
C106  C107  S    
C94   C98   S    
C15   C16   S    
C92   C96   S    
O10   Zn9   S    
C108  C109  S    
C2    C85   S    
C18   C102  T    
C89   C94   S    
C93   H92   S    
C108  H49   S    
C24   C29   T    
C46   O42   A    
C56   O7    A    
C62   C84   S    
C110  H43   S    
C3    H50   S    
C45   O41   A    
O1    Zn1   S    
C27   C44   S    
C74   C88   S    
O12   Zn5   S    
C8    C9    S    
C4    C75   S    
C4    H63   S    
C13   C86   S    
O38   Zn3   S    
C9    H66   S    
C16   H81   S    
C53   O48   A    
C68   H16   S    
C56   O6    A    
C75   C90   S    
C3    H51   S    
C6    H59   S    
C25   O12   A    
O43   Zn3   S    
C33   O14   A    
O45   Zn7   S    
O2    Zn5   S    
C14   C78   S    
C71   C101  S    
C12   H74   S    
C1    C22   S    
C101  C103  S    
O9    Zn8   S    
O11   Zn9   S    
C63   C85   S    
O7    Zn6   S    
C37   C81   S    
C14   H87   S    
C5    H61   S    
C31   C49   S    
C40   O27   A    
C69   C89   S    
C109  H46   S    
O42   Zn4   S    
C10   C77   S    
C65   H18   S    
C31   O11   A    
C41   O30   A    
C72   C105  S    
O41   Zn12  S    
C66   C78   S    
O4    Zn5   S    
C18   C53   S    
C76   H7    S    
C112  H53   S    
C1    O1    A    
C11   H76   S    
C36   O47   A    
O6    Zn7   S    
C90   C95   S    
C34   O17   A    
C69   C81   T    
C46   O38   A    
C47   O46   A    
C80   C82   T    
C77   H6    S    
C10   C11   S    
C45   O37   A    
C55   O8    A    
C28   C45   S    
O19   Zn9   S    
C73   C108  S    
C63   C73   S    
C41   O28   A    
C43   O35   A    
C65   C71   S    
C12   H75   S    
C98   H23   S    
C70   H17   S    
C17   C21   T    
C73   H2    S    
C66   H14   S    
C58   C88   S    
C67   C87   S    
C11   H77   S    
C65   H13   S    
C33   O16   A    
C55   O5    A    
C40   O29   A    
C110  H42   S    
C52   C59   T    
C67   H15   S    
O25   Zn11  S    
C107  H35   S    
C96   H94   S    
C66   H26   S    
C64   H19   S    
C68   H24   S    
C3    C112  S    
C42   O31   A    
C104  H29   S    
C112  H54   S    
O48   Zn1   S    
C93   H88   S    
C85   C98   S    
C37   O19   A    
O35   Zn3   S    
C23   C28   T    
O32   Zn4   S    
C86   C99   S    
C32   C50   S    
C9    H68   S    
O20   Zn10  S    
C58   C79   T    
C76   C92   S    
C94   H90   S    
C15   H84   S    
C3    H52   S    
C19   C54   S    
C54   O3    A    
C74   H89   S    
O47   Zn7   S    
O31   Zn3   S    
C26   C30   T    
C22   C27   T    
C99   H45   S    
C32   O10   A    
O40   Zn2   S    
O29   Zn2   S    
C111  H55   S    
C97   H1    S    
C109  H47   S    
C103  H30   S    
C93   C97   S    
C64   C85   S    
C74   C111  S    
O37   Zn2   S    
C9    H65   S    
C34   O15   A    
C44   O36   A    
C38   O20   A    
C87   C100  S    
C6    H58   S    
C8    H70   S    
C95   H96   S    
O15   Zn11  S    
C105  H40   S    
O39   Zn4   S    
C88   C93   S    
C25   O23   A    
C40   C57   S    
O24   Zn8   S    
C13   C20   T    
C2    C19   T    
C17   C87   S    
C34   C52   S    
C50   C61   T    
C75   H8    S    
O8    Zn7   S    
C4    C5    S    
C96   H95   S    
C103  H31   S    
C66   C86   S    
C99   H78   S    
C11   C12   S    
C47   O45   A    
C7    C76   S    
C108  H48   S    
O16   Zn11  S    
O44   Zn6   S    
C33   C51   S    
C64   H11   S    
C83   C91   T    
C105  C106  S    
C29   C46   S    
C42   O33   A    
O28   Zn2   S    
C10   H79   S    
C104  H27   S    
C7    H71   S    
O5    Zn6   S    
C100  H56   S    
C35   O22   A    
C42   C60   S    
C48   O43   A    
C111  H57   S    
C73   C89   S    
C16   H83   S    
C109  C110  S    
C65   C84   S    
C107  H36   S    
C68   C76   S    
C39   O26   A    
C43   C61   S    
C53   O4    A    
O14   Zn10  S    
C12   H73   S    
C96   C100  S    
C35   C79   S    
C36   O44   A    
O34   Zn5   S    
C63   H20   S    
C71   H4    S    
C16   H82   S    
C1    O34   A    
C23   C25   S    
C80   C90   S    
C78   H5    S    
C67   H25   S    
C10   H80   S    
C110  H44   S    
C43   O32   A    
C44   O40   A    
C39   C83   S    
C71   C88   S    
C107  H37   S    
C97   H34   S    
C104  H28   S    
C51   C57   T    
C54   O2    A    
C21   C56   S    
O46   Zn6   S    
C4    H64   S    
C41   C59   S    
C103  C104  S    
C70   H22   S    
C68   C87   S    
C14   C15   S    
C62   C74   S    
C70   C75   S    
C72   C89   S    
C94   H91   S    
O3    Zn1   S    
C26   C47   S    
O36   Zn12  S    
C100  H67   S    
O30   Zn12  S    
C62   H9    S    
C38   C82   S    
C91   C92   S    
C64   C72   S    
O23   Zn1   S    
C31   O9    A    
O22   Zn9   S    
C70   C86   S    
