data_mof_unit_52891.cif
_audit_creation_date              2012-12-10T21:00:37-0500
_audit_creation_method            fapswitch 2.2
_symmetry_space_group_name_H-M    P1
_symmetry_Int_Tables_number       1
_space_group_crystal_system       triclinic
_cell_length_a                    18.146832
_cell_length_b                    18.183656
_cell_length_c                    18.282905
_cell_angle_alpha                 119.929314
_cell_angle_beta                  89.966835
_cell_angle_gamma                 119.893923
_cell_volume                      4278.51031702

loop_
_atom_site_label
_atom_site_type_symbol
_atom_type_description
_atom_site_fract_x
_atom_site_fract_y
_atom_site_fract_z
_atom_type_partial_charge
C1    C     C_R   0.110678 0.219955 0.609787 0.802191
C2    C     C_3   0.449932 0.897576 0.947724 0.066924
C3    C     C_3   0.464557 0.032501 0.063373 -0.172112
C4    C     C_3   0.535497 0.967544 0.936576 -0.171943
C5    C     C_3   0.412822 0.431080 0.447517 -0.193757
C6    C     C_3   0.587173 0.568886 0.552482 -0.188435
C7    C     C_3   0.481845 0.404332 0.447024 -0.284922
C8    C     C_3   0.518151 0.595633 0.552975 -0.279191
C9    C     C_3   0.551295 0.500324 0.449526 -0.112892
C10   C     C_3   0.448701 0.499644 0.550473 -0.114849
C11   C     C_3   0.483419 0.526792 0.449875 0.459233
C12   C     C_R   0.889094 0.780002 0.390142 0.821473
C13   C     C_3   0.516577 0.473176 0.550127 0.456307
C14   C     C_R   0.151547 0.164506 0.828459 -0.112620
C15   C     C_R   0.830972 0.849046 0.184086 -0.143432
C16   C     C_R   0.392773 0.781201 0.888456 0.758780
C17   C     C_R   0.607236 0.218808 0.111527 0.756956
C18   C     C_R   0.130728 0.122676 0.737230 -0.212723
C19   C     C_R   0.862126 0.892081 0.274797 -0.229674
C20   C     C_R   0.051497 0.097667 0.690313 0.044580
C21   C     C_R   0.937910 0.901904 0.309595 0.048404
C22   C     C_R   0.992842 0.115224 0.735267 0.592863
C23   C     C_3   0.922466 0.405055 0.448445 -0.181104
C24   C     C_R   0.984513 0.870669 0.253314 0.596667
C25   C     C_R   0.014121 0.156104 0.827089 -0.245866
C26   C     C_R   0.950235 0.824089 0.160977 -0.233418
C27   C     C_R   0.093500 0.181476 0.873349 -0.140868
C28   C     C_R   0.874400 0.814218 0.127139 -0.139852
C29   C     C_R   0.975534 0.943617 0.536933 -0.211639
C30   C     C_R   0.024798 0.056238 0.462643 -0.238323
C31   C     C_R   0.945745 0.892247 0.444368 -0.049276
C32   C     C_R   0.054332 0.107621 0.555291 -0.053755
C33   C     C_R   0.970051 0.949277 0.406495 0.059537
C34   C     C_3   0.077510 0.594913 0.551550 -0.178432
C35   C     C_R   0.028636 0.050497 0.593097 0.050834
C36   C     C_R   0.676904 0.794704 0.957003 0.387002
C37   C     C_R   0.325126 0.207282 0.045636 0.389242
C38   C     C_R   0.634652 0.700956 0.949647 0.378296
C39   C     C_R   0.366710 0.300375 0.051933 0.383694
C40   C     C_R   0.112609 0.502253 0.891364 0.780621
C41   C     C_R   0.887745 0.498082 0.108991 0.797512
C42   C     C_R   0.582945 0.686236 0.004928 -0.025288
C43   C     C_R   0.416978 0.313850 0.995324 -0.028804
C44   C     C_R   0.575564 0.765839 0.067750 -0.235813
C45   C     C_3   0.416263 0.964858 0.961304 -0.134805
C46   C     C_R   0.423379 0.233548 0.932104 -0.232702
C47   C     C_R   0.618884 0.859179 0.075529 -0.207547
C48   C     C_R   0.380673 0.140833 0.925357 -0.202569
C49   C     C_R   0.668957 0.873369 0.020055 -0.226339
C50   C     C_R   0.332178 0.127959 0.982243 -0.225416
C51   C     C_R   0.588321 0.585476 0.053551 -0.213508
C52   C     C_R   0.411795 0.414256 0.946063 -0.212186
C53   C     C_R   0.550316 0.497234 0.053560 -0.028933
C54   C     C_R   0.449715 0.502626 0.946264 -0.029444
C55   C     C_R   0.460997 0.410442 0.999597 0.070011
C56   C     C_3   0.583777 0.035180 0.038651 -0.136343
C57   C     C_R   0.539022 0.589407 0.000232 0.070087
C58   C     C_R   0.261988 0.847715 0.069520 -0.136518
C59   C     C_R   0.739802 0.153287 0.931500 -0.120739
C60   C     C_R   0.206712 0.750393 0.054127 -0.125795
C61   C     C_R   0.795171 0.250085 0.945932 -0.139155
C62   C     C_R   0.113221 0.690689 0.013398 0.141421
C63   C     C_R   0.888470 0.310696 0.988234 0.138571
C64   C     C_R   0.392162 0.499885 0.607676 0.868203
C65   C     C_R   0.607837 0.500104 0.392324 0.867838
C66   C     C_R   0.075848 0.729539 0.988223 -0.171311
C67   C     C_3   0.502652 0.036277 0.950886 -0.192890
C68   C     C_R   0.925596 0.273288 0.015883 -0.162676
C69   C     C_R   0.131491 0.826729 0.003281 -0.128405
C70   C     C_R   0.869860 0.176608 0.001754 -0.125315
C71   C     C_R   0.224466 0.885913 0.044136 -0.105893
C72   C     C_R   0.777071 0.116508 0.959346 -0.086057
C73   C     C_R   0.995890 0.585110 0.052340 -0.241691
C74   C     C_R   0.006539 0.416797 0.950238 -0.261285
C75   C     C_R   0.943082 0.496317 0.051345 -0.046623
C76   C     C_R   0.058312 0.504892 0.950066 -0.040822
C77   C     C_R   0.947652 0.410479 0.998910 0.001564
C78   C     C_3   0.497394 0.963764 0.049061 -0.191751
C79   C     C_R   0.054089 0.590970 0.002839 -0.001879
C80   C     C_R   0.393878 0.501207 0.889787 0.827902
C81   C     C_R   0.606126 0.498764 0.110180 0.825817
C82   C     C_R   0.108936 0.500086 0.607612 0.779593
C83   C     C_R   0.891055 0.499903 0.392388 0.782186
C84   C     C_3   0.017413 0.430517 0.447719 -0.123666
C85   C     C_3   0.982564 0.569451 0.552277 -0.121778
C86   C     C_3   0.042896 0.525557 0.448027 -0.165333
C87   C     C_3   0.957081 0.474411 0.551969 -0.168056
C88   C     C_3   0.948778 0.500022 0.449497 0.042343
C89   C     C_3   0.550106 0.102452 0.052222 0.066992
C90   C     C_3   0.051199 0.499949 0.550499 0.042988
C91   C     C_3   0.902302 0.165601 0.723505 -0.325090
C92   C     C_3   0.129088 0.915032 0.256963 -0.320699
Cl1   Cl    Cl    0.740555 0.816016 0.888417 -0.565381
Cl2   Cl    Cl    0.263594 0.187701 0.116121 -0.575660
Cl3   Cl    Cl    0.646032 0.602326 0.871405 -0.504187
Cl4   Cl    Cl    0.356422 0.399817 0.130603 -0.498862
Cl5   Cl    Cl    0.462112 0.562723 0.382138 -0.527120
Cl6   Cl    Cl    0.537907 0.437313 0.617923 -0.533649
H1    H     H_    0.077223 0.546467 0.404468 0.148654
H2    H     H_    0.981375 0.794692 0.114834 0.134349
H3    H     H_    0.956415 0.900560 0.566505 0.177779
H4    H     H_    0.043240 0.099347 0.433160 0.175022
H5    H     H_    0.702127 0.945915 0.026454 0.159681
H6    H     H_    0.299565 0.055940 0.976709 0.159635
H7    H     H_    0.536952 0.755841 0.111253 0.163486
H8    H     H_    0.460949 0.242620 0.887660 0.162581
H9    H     H_    0.032407 0.373361 0.405359 0.158930
H10   H     H_    0.967568 0.626606 0.594638 0.159816
H11   H     H_    0.614129 0.920911 0.125053 0.155596
H12   H     H_    0.922755 0.453497 0.595526 0.146080
H13   H     H_    0.384799 0.078624 0.875645 0.155187
H14   H     H_    0.656619 0.652415 0.096010 0.171508
H15   H     H_    0.343613 0.347217 0.903362 0.165313
H16   H     H_    0.267224 0.961573 0.056596 0.141904
H17   H     H_    0.734254 0.041247 0.947628 0.139060
H18   H     H_    0.333741 0.893773 0.102061 0.125246
H19   H     H_    0.668169 0.106582 0.897943 0.123740
H20   H     H_    0.236447 0.722242 0.075168 0.111114
H21   H     H_    0.765658 0.277264 0.923185 0.109309
H22   H     H_    0.003740 0.684878 0.957586 0.144824
H23   H     H_    0.109327 0.212820 0.943821 0.180137
H24   H     H_    0.997569 0.318687 0.047792 0.145969
H25   H     H_    0.102466 0.856569 0.984028 0.160989
H26   H     H_    0.898684 0.147875 0.022950 0.158340
H27   H     H_    0.994180 0.651990 0.094405 0.171116
H28   H     H_    0.009571 0.350715 0.909738 0.157836
H29   H     H_    0.858005 0.327115 0.405229 0.138457
H30   H     H_    0.141972 0.672852 0.594765 0.139654
H31   H     H_    0.506227 0.067249 0.910900 0.122547
H32   H     H_    0.493809 0.932805 0.089057 0.121728
H33   H     H_    0.346788 0.934657 0.928639 0.138042
H34   H     H_    0.849089 0.779229 0.056529 0.187629
H35   H     H_    0.653226 0.065389 0.071395 0.136482
H36   H     H_    0.436590 0.061305 0.116469 0.137040
H37   H     H_    0.563586 0.938872 0.883551 0.139647
H38   H     H_    0.468357 0.326348 0.403424 0.179707
H39   H     H_    0.531634 0.673613 0.596573 0.183835
H40   H     H_    0.340833 0.375277 0.405070 0.205967
H41   H     H_    0.659164 0.624685 0.594924 0.208626
H42   H     H_    0.965144 0.239003 0.740965 0.159302
H43   H     H_    0.879818 0.176735 0.782457 0.172353
H44   H     H_    0.849047 0.145341 0.672961 0.199795
H45   H     H_    0.212133 0.182514 0.864181 0.144478
H46   H     H_    0.138945 0.977916 0.252213 0.171939
H47   H     H_    0.118168 0.849670 0.191474 0.176139
H48   H     H_    0.192467 0.947689 0.304210 0.205963
H49   H     H_    0.772657 0.841993 0.157777 0.152435
H50   H     H_    0.175904 0.109096 0.702920 0.150273
H51   H     H_    0.827191 0.917786 0.318136 0.156693
H52   H     H_    0.968539 0.166290 0.862367 0.152480
O1    O     O_3   0.251620 0.500000 0.748430 -0.494596
O2    O     O_R   0.570330 0.268390 0.136490 -0.633141
O3    O     O_R   0.134680 0.268390 0.572240 -0.644830
O4    O     O_R   0.865320 0.731610 0.427760 -0.646987
O5    O     O_R   0.306670 0.731630 0.863510 -0.639052
O6    O     O_R   0.693330 0.268370 0.136490 -0.641151
O7    O     O_R   0.135450 0.439270 0.865360 -0.651730
O8    O     O_R   0.864550 0.560730 0.134640 -0.639396
O9    O     O_R   0.429670 0.560710 0.692610 -0.597440
O10   O     O_R   0.570330 0.439290 0.307390 -0.598251
O11   O     O_R   0.308540 0.439240 0.865360 -0.649157
O12   O     O_3   0.748380 0.500000 0.251570 -0.498522
O13   O     O_R   0.691460 0.560760 0.134640 -0.651709
O14   O     O_R   0.133580 0.439310 0.571150 -0.644460
O15   O     O_R   0.866420 0.560690 0.428850 -0.643687
O16   O     O_R   0.430770 0.560690 0.864590 -0.616128
O17   O     O_R   0.569230 0.439310 0.135410 -0.617545
O18   O     O_R   0.133580 0.560760 0.692610 -0.640008
O19   O     O_R   0.866420 0.439240 0.307390 -0.640079
O20   O     O_3   0.911857 0.082970 0.686194 -0.609212
O21   O     O_3   0.058085 0.879391 0.289746 -0.622269
O22   O     O_R   0.134680 0.560740 0.864590 -0.629586
O23   O     O_R   0.865320 0.439260 0.135410 -0.631814
O24   O     O_R   0.306670 0.439270 0.571150 -0.649142
O25   O     O_R   0.693330 0.560730 0.428850 -0.647863
O26   O     O_R   0.135450 0.268370 0.694460 -0.649814
O27   O     O_R   0.864550 0.731630 0.305540 -0.634324
O28   O     O_R   0.429670 0.731610 0.863510 -0.632118
Zn1   Zn    Zn3+2 0.207400 0.586780 0.791530 0.972392
Zn2   Zn    Zn3+2 0.792600 0.413220 0.208470 0.974955
Zn3   Zn    Zn3+2 0.208510 0.413230 0.792630 0.969978
Zn4   Zn    Zn3+2 0.791490 0.586770 0.207370 0.993091
Zn5   Zn    Zn3+2 0.383150 0.586740 0.791530 1.027728
Zn6   Zn    Zn3+2 0.616850 0.413260 0.208470 1.024196
Zn7   Zn    Zn3+2 0.207400 0.413250 0.618010 0.979350
Zn8   Zn    Zn3+2 0.792600 0.586750 0.381990 0.988348

loop_
_geom_bond_atom_site_label_1
_geom_bond_atom_site_label_2
_ccdc_geom_bond_type
C15   H49   S    
C1    O26   A    
C50   H6    S    
C51   H14   S    
C61   H21   S    
C81   O13   A    
C14   C18   A    
C84   C90   S    
C76   C79   A    
C6    C9    S    
C56   H35   S    
C27   H23   S    
C5    H40   S    
C47   C49   A    
C87   H12   S    
C82   O18   A    
C52   H15   S    
C15   C19   A    
C39   Cl4   S    
C83   O15   A    
C72   H17   S    
C6    C13   S    
C42   C44   A    
C53   C81   S    
C19   C21   A    
C84   C86   S    
C5    C11   S    
C18   H50   S    
O24   Zn7   S    
C86   C88   S    
C58   C71   A    
C66   C69   A    
C21   C33   S    
C69   H25   S    
C92   O21   S    
C58   C60   A    
O27   Zn4   S    
C83   O19   A    
C67   C89   S    
C84   H9    S    
C56   C78   S    
C60   C62   A    
C34   C86   S    
C13   Cl6   S    
C61   C63   A    
C24   O21   S    
C63   C68   A    
C20   C35   S    
C36   Cl1   S    
O5    Zn1   S    
C74   C77   A    
C38   Cl3   S    
C45   C67   S    
C31   C33   A    
C60   H20   S    
C51   C57   A    
C14   C27   A    
O2    Zn6   S    
C85   H10   S    
C2    C16   S    
C17   O6    A    
O19   Zn2   S    
O12   Zn2   S    
O28   Zn5   S    
C30   C33   A    
C44   C47   A    
C59   C72   A    
C91   H44   S    
C48   C50   A    
C83   C88   S    
C59   H19   S    
C23   C87   S    
C65   O25   A    
O13   Zn4   S    
C58   H18   S    
C73   C75   A    
C67   H31   S    
O7    Zn3   S    
C65   O10   A    
C42   C57   S    
C80   O16   A    
C52   C54   A    
O1    Zn3   S    
C54   C80   S    
C53   C55   A    
C2    C45   S    
C73   C79   A    
O26   Zn3   S    
C37   C39   A    
C46   C48   A    
C59   C61   A    
C69   C71   A    
C23   C84   S    
C62   C66   A    
C85   C87   S    
C92   H48   S    
C32   C35   A    
C62   C79   S    
C17   C89   S    
C12   O4    A    
O14   Zn7   S    
C68   H24   S    
O12   Zn8   S    
C6    C8    S    
O23   Zn2   S    
C44   H7    S    
C22   C25   A    
C1    C32   S    
C40   C76   S    
C71   H16   S    
C8    H39   S    
C51   C53   A    
C34   C85   S    
C2    C4    S    
C34   C90   S    
O12   Zn6   S    
C2    C78   S    
C41   C75   S    
O4    Zn8   S    
C40   O7    A    
O1    Zn1   S    
O17   Zn6   S    
C7    C13   S    
C7    C9    S    
C30   H4    S    
C16   O5    A    
C81   O17   A    
C29   H3    S    
C1    O3    A    
C86   H1    S    
C75   C77   A    
C22   O20   S    
C74   C76   A    
C4    H37   S    
O22   Zn1   S    
C43   C55   S    
C56   C89   S    
C16   O28   A    
C20   C22   A    
C45   H33   S    
C23   C88   S    
C9    C11   S    
C12   C31   S    
C21   C24   A    
C17   O2    A    
C64   O24   A    
C40   O22   A    
C5    C7    S    
C63   C77   S    
C85   C88   S    
O8    Zn4   S    
O1    Zn7   S    
C41   O23   A    
C14   H45   S    
C41   O8    A    
C91   O20   S    
C92   H47   S    
O1    Zn5   S    
C8    C10   S    
C10   C64   S    
O16   Zn5   S    
C24   C26   A    
C10   C13   S    
C49   H5    S    
C4    C67   S    
C39   C43   A    
C52   C55   A    
O12   Zn4   S    
C25   C27   A    
O18   Zn1   S    
C29   C35   A    
C23   H29   S    
C26   C28   A    
O15   Zn8   S    
C82   C90   S    
C3    C89   S    
C11   Cl5   S    
C3    H36   S    
O9    Zn5   S    
C36   C38   A    
C78   H32   S    
C7    H38   S    
C29   C31   A    
C47   H11   S    
O25   Zn8   S    
C30   C32   A    
C37   C50   A    
O6    Zn2   S    
C15   C28   A    
C74   H28   S    
O3    Zn7   S    
C8    C11   S    
C73   H27   S    
C46   H8    S    
C64   O9    A    
C19   H51   S    
C3    C45   S    
C37   Cl2   S    
C12   O27   A    
C18   C20   A    
O11   Zn3   S    
C92   H46   S    
C43   C46   A    
C9    C65   S    
C80   O11   A    
C66   H22   S    
C38   C42   A    
C6    H41   S    
C91   H42   S    
C82   O14   A    
C70   H26   S    
C5    C10   S    
C48   H13   S    
C34   H30   S    
C87   C90   S    
C68   C70   A    
C25   H52   S    
C70   C72   A    
C28   H34   S    
C3    C78   S    
O10   Zn6   S    
C4    C56   S    
C36   C49   A    
C26   H2    S    
C91   H43   S    
C54   C57   A    
