data_mof_unit_39753.cif
_audit_creation_date              2013-03-05T16:06:13-0500
_audit_creation_method            fapswitch 2.2
_symmetry_space_group_name_H-M    P1
_symmetry_Int_Tables_number       1
_space_group_crystal_system       triclinic
_cell_length_a                    6.915915
_cell_length_b                    28.817732
_cell_length_c                    32.110323
_cell_angle_alpha                 100.906022
_cell_angle_beta                  89.76159
_cell_angle_gamma                 90.264792
_cell_volume                      6283.93210437

loop_
_atom_site_label
_atom_site_type_symbol
_atom_site_description
_atom_site_fract_x
_atom_site_fract_y
_atom_site_fract_z
_atom_type_partial_charge
O1    O     O_R   0.494350 0.453170 0.452520 -0.608133
O2    O     O_R   0.820980 0.455850 0.538220 -0.606502
O3    O     O_R   0.994300 0.546830 0.547480 -0.567026
C1    C     C_R   0.651963 0.445779 0.551869 0.974040
O4    O     O_R   0.823860 0.447590 0.452270 -0.608483
O5    O     O_R   0.997200 0.538510 0.460920 -0.577697
C2    C     C_R   0.654923 0.434657 0.436583 0.913367
O6    O     O_R   0.491440 0.461490 0.539080 -0.598998
O7    O     O_3   0.661790 0.529840 0.502940 -0.212262
V1    V     V_3+5 0.935470 0.494460 0.499450 1.211698
O8    O     O_R   0.327090 0.544150 0.461780 -0.581168
C3    C     C_R   0.158360 0.555150 0.449050 1.009849
O9    O     O_R   0.324210 0.552410 0.547730 -0.549215
C4    C     C_R   0.155379 0.564964 0.563702 1.035292
V2    V     V_3+5 0.435840 0.505540 0.500550 1.250938
O10   O     O_3   0.159650 0.470160 0.497060 -0.307020
C5    C     C_R   0.198451 0.893626 0.867544 0.391217
C6    C     C_R   0.196300 0.857781 0.831178 -0.235156
H1    H     H_    0.313275 0.856114 0.808385 0.159987
C7    C     C_R   0.049565 0.823454 0.824563 0.062580
C8    C     C_R   0.901468 0.825751 0.854886 -0.122722
H2    H     H_    0.785727 0.799858 0.850479 0.124609
C9    C     C_R   0.899113 0.861954 0.890816 -0.114099
H3    H     H_    0.781895 0.862718 0.913399 0.162830
C10   C     C_R   0.046699 0.896379 0.897949 -0.311953
C11   C     C_R   0.092189 0.795855 0.745952 -0.145541
H4    H     H_    0.113913 0.832127 0.742342 0.152098
C12   C     C_R   0.101768 0.759873 0.709959 -0.044091
H5    H     H_    0.131600 0.768918 0.679321 0.145460
C13   C     C_R   0.075281 0.712473 0.713518 0.187841
C14   C     C_R   0.037535 0.701628 0.753606 -0.111552
H6    H     H_    0.017127 0.665236 0.756982 0.139935
C15   C     C_R   0.024858 0.737699 0.789557 -0.175329
H7    H     H_    0.996823 0.728410 0.820164 0.128109
C16   C     C_R   0.053606 0.785207 0.786181 0.114810
C17   C     C_R   0.246832 0.643141 0.672067 -0.193349
H8    H     H_    0.350084 0.646492 0.697785 0.181688
C18   C     C_R   0.275649 0.608217 0.635664 0.392577
C19   C     C_R   0.142802 0.603642 0.601681 -0.366148
C20   C     C_R   0.985013 0.634808 0.605290 -0.150166
H9    H     H_    0.881194 0.631205 0.579708 0.228701
C21   C     C_R   0.955701 0.669873 0.641695 0.371358
C22   C     C_R   0.089888 0.674340 0.675410 -0.137571
C23   C     C_R   0.968927 0.671616 0.297357 0.499300
N1    N     N_R   0.125423 0.674871 0.324014 -0.179838
C24   C     C_R   0.272552 0.706373 0.321214 0.494853
C25   C     C_R   0.265474 0.736071 0.291039 -0.064479
C26   C     C_R   0.105171 0.733252 0.263765 -0.011169
C27   C     C_R   0.955516 0.700768 0.266838 -0.054305
C28   C     C_R   0.413807 0.768745 0.287749 -0.123644
C29   C     C_R   0.402388 0.798363 0.258020 -0.118559
C30   C     C_R   0.242735 0.795933 0.230674 -0.042555
C31   C     C_R   0.094267 0.763072 0.233414 -0.013823
C32   C     C_R   0.934760 0.760017 0.205931 -0.050619
C33   C     C_R   0.786393 0.727330 0.209214 -0.124741
C34   C     C_R   0.796356 0.698187 0.239360 -0.113577
C35   C     C_R   0.227291 0.825830 0.200804 0.479595
N2    N     N_R   0.072273 0.822152 0.173621 -0.183948
C36   C     C_R   0.927976 0.789608 0.175657 0.473854
O11   O     O_2   0.827196 0.639976 0.300052 -0.542827
O12   O     O_2   0.424134 0.709536 0.347934 -0.522328
H10   H     H_    0.539323 0.771589 0.308153 0.176057
H11   H     H_    0.519578 0.823049 0.256463 0.171595
O13   O     O_2   0.365274 0.858775 0.199478 -0.564448
O14   O     O_2   0.779189 0.785308 0.148133 -0.554862
H12   H     H_    0.661298 0.724338 0.188680 0.175572
H13   H     H_    0.678594 0.673706 0.241094 0.174234
C37   C     C_R   0.895320 0.880240 0.139894 -0.062154
H14   H     H_    0.774595 0.879028 0.161249 0.163226
C38   C     C_R   0.884433 0.909679 0.109884 -0.189607
H15   H     H_    0.754820 0.930320 0.108616 0.135590
C39   C     C_R   0.041084 0.913360 0.082606 -0.119765
C40   C     C_R   0.207418 0.886265 0.085523 -0.194598
H16   H     H_    0.330045 0.888075 0.064786 0.139817
C41   C     C_R   0.216229 0.855901 0.114756 -0.058777
H17   H     H_    0.344588 0.834757 0.115723 0.155064
C42   C     C_R   0.061066 0.852809 0.142607 0.190052
C43   C     C_R   0.988786 0.648311 0.386970 -0.149254
H18   H     H_    0.872623 0.673453 0.387227 0.188963
C44   C     C_R   0.995773 0.620505 0.418577 0.321486
C45   C     C_R   0.149837 0.588029 0.418486 -0.294038
C46   C     C_R   0.295478 0.585713 0.387418 -0.131464
H19   H     H_    0.414521 0.561238 0.386544 0.153452
C47   C     C_R   0.287399 0.613941 0.356488 -0.021945
H20   H     H_    0.400384 0.611034 0.332696 0.160378
C48   C     C_R   0.133631 0.645354 0.355843 0.137368
C49   C     C_R   0.539398 0.224848 0.838483 0.555849
N3    N     N_R   0.596668 0.178652 0.827251 -0.175346
C50   C     C_R   0.665889 0.161089 0.787321 0.582676
C51   C     C_R   0.675705 0.190036 0.756565 -0.083050
C52   C     C_R   0.613058 0.237253 0.767324 -0.002998
C53   C     C_R   0.545217 0.255001 0.808672 -0.064360
C54   C     C_R   0.744322 0.172812 0.715284 -0.074749
C55   C     C_R   0.749088 0.201917 0.685031 -0.112496
C56   C     C_R   0.685203 0.248981 0.695278 -0.048912
C57   C     C_R   0.617324 0.266714 0.736602 -0.001544
C58   C     C_R   0.553004 0.313783 0.747227 -0.054858
C59   C     C_R   0.486250 0.331151 0.788653 -0.107668
C60   C     C_R   0.482623 0.302148 0.819001 -0.101328
C61   C     C_R   0.686837 0.278787 0.665158 0.462603
N4    N     N_R   0.623758 0.324635 0.675884 -0.186557
C62   C     C_R   0.557700 0.342367 0.716113 0.469715
O15   O     O_2   0.474305 0.241346 0.878158 -0.526191
O16   O     O_2   0.723806 0.115690 0.777324 -0.468661
H21   H     H_    0.793815 0.136704 0.706138 0.184444
H22   H     H_    0.802406 0.187332 0.653536 0.178258
O17   O     O_2   0.749411 0.261880 0.625352 -0.548218
O18   O     O_2   0.498614 0.387670 0.726181 -0.529025
H23   H     H_    0.436199 0.367213 0.797771 0.178550
H24   H     H_    0.429585 0.316744 0.850518 0.178415
C63   C     C_R   0.807293 0.366414 0.627839 -0.051851
H25   H     H_    0.940679 0.352948 0.638403 0.114187
C64   C     C_R   0.814113 0.395660 0.597672 -0.164320
H26   H     H_    0.953845 0.403972 0.585577 0.130248
C65   C     C_R   0.643176 0.414029 0.583498 -0.136460
C66   C     C_R   0.465191 0.402241 0.600381 -0.143937
H27   H     H_    0.330827 0.415769 0.590366 0.129488
C67   C     C_R   0.458705 0.372924 0.630601 -0.054273
H28   H     H_    0.320351 0.364217 0.643095 0.113436
C68   C     C_R   0.629754 0.354779 0.644596 0.213584
C69   C     C_R   0.412144 0.118400 0.856953 0.309805
C70   C     C_R   0.396280 0.087359 0.886120 0.235271
C71   C     C_R   0.547223 0.085178 0.915695 -0.289490
C72   C     C_R   0.711063 0.114120 0.914950 -0.163026
H29   H     H_    0.828278 0.113380 0.937080 0.170068
C73   C     C_R   0.725290 0.144950 0.886316 -0.030615
H30   H     H_    0.853001 0.166866 0.886485 0.167440
C74   C     C_R   0.576857 0.147519 0.857391 0.032053
C75   C     C_R   0.724592 0.125620 0.114648 -0.166921
H31   H     H_    0.856949 0.113989 0.097812 0.138082
C76   C     C_R   0.734483 0.162474 0.149941 -0.099810
H32   H     H_    0.873588 0.178433 0.159303 0.144882
C77   C     C_R   0.566392 0.179059 0.172591 0.178954
C78   C     C_R   0.388447 0.157410 0.159514 -0.082811
H33   H     H_    0.257171 0.168674 0.176945 0.112687
C79   C     C_R   0.378123 0.120844 0.123977 -0.148399
H34   H     H_    0.238565 0.105105 0.114742 0.123645
C80   C     C_R   0.546085 0.104483 0.101024 -0.123162
C81   C     C_R   0.453298 0.258052 0.214992 0.280860
C82   C     C_R   0.466170 0.293954 0.251695 0.235192
C83   C     C_R   0.601180 0.290118 0.283889 -0.054959
C84   C     C_R   0.725480 0.251088 0.278166 -0.163383
H35   H     H_    0.830523 0.247521 0.302286 0.132422
C85   C     C_R   0.714334 0.215881 0.241843 -0.144363
H36   H     H_    0.810766 0.185909 0.238873 0.130322
C86   C     C_R   0.577830 0.218424 0.210129 -0.104984
C87   C     C_R   0.795151 0.347547 0.336540 -0.109987
H37   H     H_    0.923955 0.337761 0.317669 0.151203
C88   C     C_R   0.808871 0.382093 0.373573 -0.159028
H38   H     H_    0.948302 0.398181 0.382352 0.134916
C89   C     C_R   0.643613 0.396403 0.398355 -0.127312
C90   C     C_R   0.465540 0.374424 0.385714 -0.155321
H39   H     H_    0.335707 0.384081 0.404245 0.130019
C91   C     C_R   0.452554 0.339534 0.349035 -0.096875
H40   H     H_    0.314014 0.322840 0.340434 0.119916
C92   C     C_R   0.616185 0.326453 0.323518 0.177796
O19   O     O_R   0.699170 0.038480 0.960880 -0.580535
O20   O     O_R   0.366800 0.052460 0.047690 -0.604129
O21   O     O_R   0.193520 0.961530 0.039110 -0.603167
C93   C     C_R   0.535675 0.065482 0.063336 0.912183
O22   O     O_R   0.369630 0.044100 0.961740 -0.568296
O23   O     O_R   0.196370 0.953120 0.952550 -0.553516
C94   C     C_R   0.538048 0.053430 0.947442 1.078186
O24   O     O_R   0.696320 0.046890 0.047450 -0.607482
O25   O     O_3   0.528890 0.970170 0.997080 -0.254605
V3    V     V_3+5 0.255190 0.005530 0.000540 1.218104
O26   O     O_R   0.866460 0.947530 0.952310 -0.561029
C95   C     C_R   0.035901 0.934956 0.936245 1.011176
O27   O     O_R   0.863630 0.955880 0.038270 -0.605356
C96   C     C_R   0.032130 0.945645 0.051647 0.909471
V4    V     V_3+5 0.754830 0.994440 0.999470 1.214249
O28   O     O_3   0.031000 0.029830 0.002920 -0.272133
N5    N     N_R   0.354421 0.927082 0.872269 0.234328
O29   O     O_R   0.487354 0.925041 0.900376 -0.400638
O30   O     O_R   0.392853 0.949329 0.841519 -0.331183
N6    N     N_R   0.435901 0.576707 0.634731 0.224935
O31   O     O_R   0.580233 0.579310 0.609183 -0.382839
O32   O     O_R   0.458249 0.553776 0.665587 -0.390828
N7    N     N_R   0.786746 0.699386 0.644232 0.238348
O33   O     O_R   0.700806 0.714228 0.680398 -0.404579
O34   O     O_R   0.704609 0.706952 0.609749 -0.344984
N8    N     N_R   0.850884 0.627403 0.451374 0.244320
O35   O     O_R   0.900781 0.631002 0.490888 -0.386783
O36   O     O_R   0.674538 0.637823 0.442676 -0.367619
N9    N     N_R   0.262154 0.120069 0.826494 0.246624
O37   O     O_R   0.182695 0.160115 0.823450 -0.414764
O38   O     O_R   0.215173 0.082156 0.799475 -0.272075
Br1   Br    Br    0.166137 0.048742 0.884280 -0.400758
N10   N     N_R   0.319594 0.262981 0.182038 0.251271
O39   O     O_R   0.379850 0.260117 0.143197 -0.333068
O40   O     O_R   0.135988 0.268471 0.190449 -0.361341
Br2   Br    Br    0.314621 0.350614 0.254914 -0.439161

loop_
_geom_bond_atom_site_label_1
_geom_bond_atom_site_label_2
_geom_bond_distance
_ccdc_geom_bond_type
C23   C27   1.409842 A    
O25   V4    1.705082 S    
V4    O28   2.154382 S    
C81   C86   1.418021 A    
V3    O28   1.699707 S    
O25   V3    2.146380 S    
O21   C96   1.295642 A    
O27   V4    1.972967 S    
O27   C96   1.297992 A    
C32   C33   1.406771 A    
C1    C65   1.490942 S    
C87   H37   1.083223 S    
C1    O6    1.298024 A    
C45   C46   1.407574 A    
C35   N2    1.376290 A    
C88   H38   1.083019 S    
C71   C72   1.406672 A    
C76   C77   1.405475 A    
N5    O29   1.300271 A    
C23   N1    1.374515 A    
C11   H4    1.082965 S    
C54   C55   1.398595 A    
C35   O13   1.349218 S    
C93   O24   1.295750 A    
C12   H5    1.083158 S    
C87   C88   1.402243 A    
C47   C48   1.402505 A    
C75   H31   1.082897 S    
C88   C89   1.407884 A    
O5    C3    1.295448 A    
C13   C14   1.404091 A    
C43   C44   1.408154 A    
N9    O38   1.300916 A    
N6    O31   1.300287 A    
V2    O10   2.154330 S    
C66   H27   1.082662 S    
C5    C6    1.405132 A    
C6    H1    1.083775 S    
C40   H16   1.083223 S    
N10   O40   1.301238 A    
C67   H28   1.082659 S    
N2    C42   1.453456 S    
C54   H21   1.083027 S    
C4    C19   1.490914 S    
O23   V3    1.984957 S    
C7    C16   1.490152 S    
O8    V2    1.973103 S    
C55   H22   1.083002 S    
C75   C80   1.408264 A    
C56   C57   1.408089 A    
C37   H14   1.082839 S    
C89   C90   1.407937 A    
C14   C15   1.402440 A    
C62   O18   1.349066 S    
C38   H15   1.083243 S    
O1    V2    1.984854 S    
C44   N8    1.437543 S    
O7    V1    2.146490 S    
O19   C94   1.300858 A    
C91   C92   1.404803 A    
O22   V3    1.980331 S    
C43   C48   1.403564 A    
C20   C21   1.407708 A    
C52   C57   1.418195 A    
C59   H23   1.083000 S    
O9    C4    1.298449 A    
N7    O34   1.301525 A    
O20   C93   1.298759 A    
C40   C41   1.400816 A    
C55   C56   1.406540 A    
O22   C94   1.295805 A    
C5    N5    1.432652 S    
C58   C59   1.406504 A    
C25   C28   1.406397 A    
C67   C68   1.404921 A    
C32   C36   1.410254 A    
N5    O30   1.300916 A    
C10   C95   1.495426 S    
N6    O32   1.300855 A    
C26   C31   1.418491 A    
C53   C60   1.406082 A    
C24   O12   1.349247 S    
C29   C30   1.406832 A    
N4    C62   1.373305 A    
C29   H11   1.083166 S    
C82   C83   1.415977 A    
C69   C74   1.410259 A    
C79   C80   1.407586 A    
C52   C53   1.408737 A    
O4    C2    1.299044 A    
C56   C61   1.409793 A    
C44   C45   1.421037 A    
O26   V4    1.985436 S    
C28   C29   1.398424 A    
N2    C36   1.376123 A    
N1    C24   1.374470 A    
C60   H24   1.083009 S    
C63   C68   1.403025 A    
C39   C96   1.486189 S    
O2    C1    1.297452 A    
C41   H17   1.082907 S    
C71   C94   1.494037 S    
C18   N6    1.432652 S    
C25   C26   1.408184 A    
C65   C66   1.408816 A    
C21   N7    1.441363 S    
C9    H3    1.082922 S    
C57   C58   1.408313 A    
C7    C8    1.403354 A    
C33   C34   1.398497 A    
C15   H7    1.082896 S    
C91   H40   1.083241 S    
C63   C64   1.399658 A    
C47   H20   1.082902 S    
C87   C92   1.406226 A    
C41   C42   1.407308 A    
C69   C70   1.415857 A    
O3    C4    1.296877 A    
C49   O15   1.348965 S    
C85   C86   1.403755 A    
C20   H9    1.083051 S    
C90   C91   1.399316 A    
C59   C60   1.398771 A    
O6    V2    1.973005 S    
C46   C47   1.399221 A    
O9    V2    1.985226 S    
C50   O16   1.349055 S    
C77   C78   1.406453 A    
C28   H10   1.083177 S    
C84   C85   1.395664 A    
C13   C22   1.485367 S    
C82   Br2   1.930370 S    
C21   C22   1.415738 A    
C76   H32   1.083239 S    
C34   H13   1.083181 S    
O26   C95   1.303370 A    
C33   H12   1.083156 S    
C49   C53   1.409670 A    
C30   C31   1.407355 A    
O20   V3    1.985530 S    
C51   C54   1.405935 A    
C72   C73   1.397130 A    
C64   H26   1.082611 S    
C37   C42   1.407721 A    
C24   C25   1.410022 A    
C17   H8    1.084106 S    
C61   O17   1.349120 S    
C73   C74   1.398783 A    
C63   H25   1.082762 S    
O1    C2    1.295051 A    
N4    C68   1.447505 S    
C14   H6    1.083074 S    
C58   C62   1.410186 A    
C39   C40   1.406632 A    
C81   N10   1.435662 S    
O5    V1    1.977186 S    
C78   C79   1.400919 A    
C81   C82   1.416316 A    
C83   C92   1.490734 S    
C31   C32   1.407567 A    
C78   H33   1.082893 S    
C77   C86   1.492834 S    
C27   C34   1.406479 A    
C11   C12   1.400674 A    
O21   V3    1.976964 S    
C85   H36   1.083293 S    
C5    C10   1.422628 A    
C8    C9    1.401562 A    
N1    C48   1.449552 S    
O7    V2    1.705489 S    
O4    V1    1.985213 S    
N3    C74   1.444524 S    
O3    V1    1.985082 S    
V1    O10   1.699632 S    
C83   C84   1.402593 A    
O19   V4    1.974308 S    
C17   C18   1.404889 A    
C43   H18   1.083278 S    
C51   C52   1.408837 A    
C18   C19   1.415997 A    
C23   O11   1.349285 S    
C73   H30   1.082862 S    
C26   C27   1.407981 A    
C12   C13   1.403234 A    
C61   N4    1.373496 A    
C15   C16   1.406790 A    
C66   C67   1.402477 A    
C3    C45   1.489033 S    
N9    O37   1.300882 A    
C6    C7    1.402324 A    
C9    C10   1.408916 A    
N10   O39   1.301171 A    
N8    O36   1.301357 A    
C17   C22   1.403390 A    
C30   C35   1.409962 A    
O23   C95   1.294413 A    
C69   N9    1.435832 S    
N7    O33   1.301343 A    
C19   C20   1.406955 A    
C80   C93   1.489368 S    
C11   C16   1.407283 A    
C2    C89   1.488681 S    
N3    C50   1.371442 A    
C70   Br1   1.932563 S    
C49   N3    1.371586 A    
C37   C38   1.401596 A    
C46   H19   1.083390 S    
C70   C71   1.423723 A    
C84   H35   1.083373 S    
C79   H34   1.082890 S    
O24   V4    1.985259 S    
C38   C39   1.406550 A    
C90   H39   1.083026 S    
C64   C65   1.409390 A    
C50   C51   1.409433 A    
C8    H2    1.083046 S    
C36   O14   1.349183 S    
N8    O35   1.301256 A    
O8    C3    1.298352 A    
C72   H29   1.083154 S    
C75   C76   1.400524 A    
O2    V1    1.980546 S    
