data_mof_unit_63945.cif
_audit_creation_date              2012-12-10T18:26:40-0500
_audit_creation_method            fapswitch 2.2
_symmetry_space_group_name_H-M    P1
_symmetry_Int_Tables_number       1
_space_group_crystal_system       triclinic
_cell_length_a                    25.83495
_cell_length_b                    25.800828
_cell_length_c                    22.155353
_cell_angle_alpha                 90.003071
_cell_angle_beta                  54.347453
_cell_angle_gamma                 90.002474
_cell_volume                      11999.9345994

loop_
_atom_site_label
_atom_site_type_symbol
_atom_type_description
_atom_site_fract_x
_atom_site_fract_y
_atom_site_fract_z
_atom_type_partial_charge
C1    C     C_R   0.849466 0.750039 0.301060 0.824095
C2    C     C_R   0.849466 0.249960 0.301059 0.821665
C3    C     C_R   0.349467 0.250039 0.301060 0.824014
C4    C     C_R   0.349467 0.749960 0.301059 0.821646
C5    C     C_3   0.505345 0.704847 0.549368 -0.462319
C6    C     C_3   0.505059 0.294836 0.549950 -0.462937
C7    C     C_3   0.005361 0.204829 0.549334 -0.462342
C8    C     C_3   0.005373 0.795183 0.549316 -0.463120
C9    C     C_3   0.551011 0.749729 0.500139 -0.077803
C10   C     C_3   0.550993 0.250245 0.500177 -0.080595
C11   C     C_3   0.051012 0.249727 0.500136 -0.077831
C12   C     C_3   0.051013 0.750275 0.500132 -0.080519
C13   C     C_3   0.449394 0.749319 0.499524 -0.053870
C14   C     C_3   0.449373 0.250658 0.499570 -0.054005
C15   C     C_3   0.949395 0.249317 0.499521 -0.053892
C16   C     C_3   0.949395 0.750686 0.499519 -0.053939
C17   C     C_3   0.511030 0.740810 0.418981 0.309570
C18   C     C_3   0.510957 0.259605 0.419126 0.310475
C19   C     C_3   0.011034 0.240839 0.418971 0.309591
C20   C     C_3   0.011036 0.759149 0.418966 0.310448
C21   C     C_3   0.444850 0.705265 0.551127 0.284525
C22   C     C_3   0.444583 0.294426 0.551676 0.285010
C23   C     C_3   0.944868 0.205244 0.551089 0.284496
C24   C     C_3   0.944879 0.794769 0.551074 0.284763
C25   C     C_3   0.468298 0.733928 0.956777 -0.508847
C26   C     C_3   0.466622 0.258555 0.956779 -0.508026
C27   C     C_3   0.967166 0.238430 0.956776 -0.508503
C28   C     C_3   0.966604 0.758430 0.956778 -0.507980
C29   C     C_3   0.535203 0.804452 0.957039 -0.352197
C30   C     C_3   0.542586 0.197950 0.957036 -0.352304
C31   C     C_3   0.039693 0.303128 0.957041 -0.352592
C32   C     C_3   0.042705 0.697998 0.957036 -0.352382
C33   C     C_3   0.492181 0.804398 0.043168 -0.388402
C34   C     C_3   0.499555 0.198009 0.043166 -0.389136
C35   C     C_3   0.996664 0.303071 0.043171 -0.388693
C36   C     C_3   0.999672 0.698056 0.043166 -0.389181
C37   C     C_1   0.389251 0.749886 0.221637 -0.132223
C38   C     C_1   0.389253 0.250116 0.221638 -0.133120
C39   C     C_1   0.889250 0.249884 0.221638 -0.132209
C40   C     C_1   0.889252 0.750116 0.221639 -0.133104
C41   C     C_3   0.537328 0.749641 0.926838 0.310624
C42   C     C_3   0.537296 0.250449 0.926839 0.310501
C43   C     C_3   0.037312 0.249587 0.926839 0.310750
C44   C     C_3   0.037296 0.750451 0.926839 0.310531
C45   C     C_R   0.650564 0.750003 0.698940 0.825911
C46   C     C_R   0.650565 0.249999 0.698940 0.831306
C47   C     C_R   0.150565 0.250003 0.698940 0.826190
C48   C     C_R   0.150565 0.749999 0.698940 0.831391
C49   C     C_3   0.425111 0.733794 0.042913 -0.398867
C50   C     C_3   0.423417 0.258671 0.042914 -0.398532
C51   C     C_3   0.923965 0.238308 0.042911 -0.398617
C52   C     C_3   0.923397 0.758545 0.042914 -0.398589
C53   C     C_3   0.463802 0.749723 0.073226 0.292991
C54   C     C_3   0.463784 0.250321 0.073227 0.293191
C55   C     C_3   0.963790 0.249696 0.073227 0.293155
C56   C     C_3   0.963782 0.750321 0.073228 0.293226
C57   C     C_3   0.519484 0.710903 0.043540 -0.437760
C58   C     C_3   0.513738 0.294405 0.043544 -0.437874
C59   C     C_3   0.016105 0.207609 0.043542 -0.437945
C60   C     C_3   0.013635 0.794485 0.043546 -0.437837
C61   C     C_3   0.562746 0.710262 0.957023 0.304509
C62   C     C_3   0.556913 0.295041 0.957027 0.304066
C63   C     C_3   0.059318 0.206971 0.957025 0.304429
C64   C     C_3   0.056811 0.795121 0.957030 0.304025
C65   C     C_1   0.422787 0.749818 0.154812 -0.099024
C66   C     C_1   0.422783 0.250198 0.154813 -0.098667
C67   C     C_1   0.922782 0.249808 0.154812 -0.099031
C68   C     C_1   0.922781 0.750197 0.154813 -0.098657
C69   C     C_1   0.577784 0.749805 0.845182 -0.061915
C70   C     C_1   0.577777 0.250236 0.845183 -0.061332
C71   C     C_1   0.077783 0.249781 0.845183 -0.061938
C72   C     C_1   0.077779 0.750238 0.845183 -0.061321
C73   C     C_1   0.610989 0.749910 0.778359 -0.125148
C74   C     C_1   0.610991 0.250106 0.778359 -0.125343
C75   C     C_1   0.110992 0.249901 0.778360 -0.125201
C76   C     C_1   0.110992 0.750107 0.778359 -0.125298
C77   C     C_3   0.802450 0.970055 0.423097 -0.497117
C78   C     C_3   0.803026 0.029896 0.423242 -0.529936
C79   C     C_3   0.302418 0.470055 0.423076 -0.497192
C80   C     C_3   0.302997 0.529896 0.423222 -0.529940
C81   C     C_3   0.683559 0.969822 0.522585 0.253423
C82   C     C_3   0.684118 0.030297 0.521282 0.310140
C83   C     C_3   0.183544 0.469822 0.522648 0.253500
C84   C     C_3   0.184103 0.530297 0.521341 0.310115
C85   C     C_3   0.760915 0.970266 0.557821 -0.345142
C86   C     C_3   0.760231 0.029715 0.558373 -0.352953
C87   C     C_3   0.260978 0.470266 0.557768 -0.345223
C88   C     C_3   0.260290 0.529715 0.558324 -0.353007
C89   C     C_R   0.749943 0.608656 0.500118 0.844021
C90   C     C_R   0.749943 0.391344 0.500118 0.843379
C91   C     C_R   0.249945 0.108655 0.500127 0.844061
C92   C     C_R   0.249945 0.891345 0.500126 0.843395
C93   C     C_3   0.748997 0.949105 0.501175 0.071563
C94   C     C_3   0.749127 0.050881 0.501037 0.085713
C95   C     C_3   0.249002 0.449105 0.501171 0.071680
C96   C     C_3   0.249131 0.550881 0.501033 0.085862
C97   C     C_3   0.775375 0.530217 0.420586 0.239568
C98   C     C_3   0.775377 0.469778 0.420585 0.239560
C99   C     C_3   0.275185 0.030217 0.420662 0.239552
C100  C     C_3   0.275186 0.969778 0.420661 0.239562
C101  C     C_3   0.793644 0.530007 0.520728 -0.472041
C102  C     C_3   0.793644 0.469999 0.520729 -0.471735
C103  C     C_3   0.293802 0.030006 0.520517 -0.471906
C104  C     C_3   0.293802 0.969999 0.520517 -0.471595
C105  C     C_3   0.681450 0.529709 0.558372 -0.412748
C106  C     C_3   0.681450 0.470290 0.558371 -0.412776
C107  C     C_3   0.181489 0.029709 0.558554 -0.412723
C108  C     C_3   0.181489 0.970290 0.558554 -0.412783
C109  C     C_3   0.749659 0.550988 0.499754 0.033132
C110  C     C_3   0.749659 0.449012 0.499754 0.033420
C111  C     C_3   0.249660 0.050988 0.499770 0.032997
C112  C     C_3   0.249660 0.949012 0.499770 0.033316
C113  C     C_R   0.749990 0.891390 0.500109 0.786064
C114  C     C_R   0.749987 0.108606 0.500104 0.842106
C115  C     C_R   0.249993 0.391390 0.500107 0.785963
C116  C     C_R   0.249990 0.608606 0.500103 0.842032
C117  C     C_R   0.891486 0.750225 0.499804 0.856195
C118  C     C_R   0.891485 0.249778 0.499806 0.854500
C119  C     C_R   0.391473 0.250206 0.499834 0.855245
C120  C     C_R   0.391485 0.749778 0.499807 0.854409
C121  C     C_R   0.608777 0.749787 0.499811 0.897425
C122  C     C_R   0.608767 0.250200 0.499830 0.902632
C123  C     C_R   0.108777 0.249786 0.499810 0.897458
C124  C     C_R   0.108778 0.750215 0.499807 0.902634
C125  C     C_3   0.516058 0.802938 0.528383 0.196769
C126  C     C_3   0.516353 0.196875 0.527793 0.199861
C127  C     C_3   0.016041 0.302928 0.528416 0.196760
C128  C     C_3   0.016027 0.697080 0.528428 0.199785
C129  C     C_3   0.454211 0.801918 0.531394 0.043744
C130  C     C_3   0.454487 0.197883 0.530845 0.040820
C131  C     C_3   0.954191 0.301904 0.531434 0.043740
C132  C     C_3   0.954178 0.698105 0.531445 0.040610
C133  C     C_3   0.570457 0.740949 0.420072 -0.465562
C134  C     C_3   0.570384 0.259482 0.420220 -0.467003
C135  C     C_3   0.070461 0.240973 0.420063 -0.465481
C136  C     C_3   0.070464 0.759014 0.420057 -0.466843
H1    H     H_    0.548819 0.833131 0.488119 0.171652
H2    H     H_    0.549283 0.166919 0.487156 0.172150
H3    H     H_    0.048791 0.333132 0.488169 0.171606
H4    H     H_    0.048768 0.666867 0.488192 0.171961
H5    H     H_    0.596869 0.703684 0.397929 0.230837
H6    H     H_    0.596554 0.296883 0.398535 0.230808
H7    H     H_    0.096881 0.203714 0.397897 0.230899
H8    H     H_    0.096894 0.796268 0.397879 0.230800
H9    H     H_    0.448700 0.761472 0.936176 0.198337
H10   H     H_    0.451096 0.227150 0.936176 0.199083
H11   H     H_    0.949959 0.268367 0.936173 0.198593
H12   H     H_    0.951150 0.726967 0.936173 0.199028
H13   H     H_    0.584068 0.817264 0.936319 0.211843
H14   H     H_    0.592846 0.190573 0.936316 0.211429
H15   H     H_    0.089488 0.312688 0.936323 0.211552
H16   H     H_    0.092981 0.690712 0.936317 0.211396
H17   H     H_    0.516430 0.832957 0.936544 0.161869
H18   H     H_    0.528011 0.165713 0.936538 0.162060
H19   H     H_    0.023389 0.333951 0.936546 0.161690
H20   H     H_    0.028203 0.665706 0.936537 0.161993
H21   H     H_    0.453142 0.833157 0.063852 0.176790
H22   H     H_    0.464744 0.165566 0.063847 0.176667
H23   H     H_    0.960114 0.334120 0.063854 0.176677
H24   H     H_    0.964936 0.665557 0.063846 0.176610
H25   H     H_    0.520615 0.816627 0.063786 0.181348
H26   H     H_    0.529300 0.191241 0.063784 0.180931
H27   H     H_    0.025978 0.312029 0.063790 0.181048
H28   H     H_    0.029433 0.691380 0.063785 0.180911
H29   H     H_    0.561482 0.670681 0.937517 0.073605
H30   H     H_    0.550311 0.332726 0.937524 0.073579
H31   H     H_    0.054809 0.168444 0.937517 0.073631
H32   H     H_    0.050125 0.832769 0.937526 0.073647
H33   H     H_    0.500325 0.671270 0.064586 0.135173
H34   H     H_    0.489210 0.332469 0.064593 0.135114
H35   H     H_    0.993683 0.168832 0.064586 0.135127
H36   H     H_    0.989020 0.832518 0.064595 0.135162
H37   H     H_    0.468058 0.694716 0.935989 0.173804
H38   H     H_    0.461090 0.295926 0.935992 0.174203
H39   H     H_    0.963707 0.200239 0.935986 0.174054
H40   H     H_    0.960988 0.795766 0.935993 0.174279
H41   H     H_    0.404488 0.694440 0.063396 0.175707
H42   H     H_    0.397481 0.296219 0.063399 0.176103
H43   H     H_    0.900109 0.199954 0.063393 0.175903
H44   H     H_    0.897376 0.796056 0.063399 0.176160
H45   H     H_    0.547770 0.721665 0.064943 0.195567
H46   H     H_    0.543132 0.289123 0.064947 0.195477
H47   H     H_    0.045147 0.215086 0.064949 0.195529
H48   H     H_    0.043040 0.789295 0.064951 0.195509
H49   H     H_    0.795042 0.956143 0.381097 0.191169
H50   H     H_    0.796937 0.044513 0.380469 0.191975
H51   H     H_    0.294967 0.456145 0.381112 0.191162
H52   H     H_    0.296870 0.544514 0.380479 0.191969
H53   H     H_    0.849583 0.955254 0.406323 0.205146
H54   H     H_    0.850067 0.043927 0.407728 0.206639
H55   H     H_    0.349565 0.455252 0.406254 0.205062
H56   H     H_    0.350052 0.543925 0.407665 0.206587
H57   H     H_    0.723813 0.955696 0.614667 0.220747
H58   H     H_    0.722133 0.043683 0.615195 0.225293
H59   H     H_    0.223907 0.455695 0.614625 0.220644
H60   H     H_    0.222217 0.543680 0.615157 0.225268
H61   H     H_    0.825909 0.542903 0.382136 0.124702
H62   H     H_    0.825911 0.457095 0.382137 0.124761
H63   H     H_    0.325706 0.042904 0.382081 0.124697
H64   H     H_    0.325707 0.957092 0.382081 0.124736
H65   H     H_    0.843223 0.544272 0.480616 0.202307
H66   H     H_    0.843222 0.455733 0.480619 0.202352
H67   H     H_    0.343362 0.044271 0.480280 0.202465
H68   H     H_    0.343362 0.955736 0.480281 0.202419
H69   H     H_    0.664486 0.543641 0.614688 0.194033
H70   H     H_    0.664485 0.456361 0.614687 0.194087
H71   H     H_    0.164667 0.043643 0.614821 0.194051
H72   H     H_    0.164667 0.956360 0.614820 0.194049
H73   H     H_    0.646581 0.544224 0.548357 0.177088
H74   H     H_    0.646582 0.455773 0.548354 0.177029
H75   H     H_    0.146513 0.044221 0.548710 0.177141
H76   H     H_    0.146514 0.955774 0.548710 0.177074
H77   H     H_    0.777090 0.544430 0.576659 0.199911
H78   H     H_    0.777088 0.455581 0.576661 0.200051
H79   H     H_    0.277387 0.044430 0.576399 0.200021
H80   H     H_    0.277387 0.955580 0.576399 0.200144
H81   H     H_    0.603585 0.772070 0.382518 0.143121
H82   H     H_    0.603715 0.228589 0.382291 0.142775
H83   H     H_    0.103582 0.272105 0.382528 0.143113
H84   H     H_    0.103577 0.727874 0.382531 0.142941
H85   H     H_    0.530668 0.667156 0.527016 0.225846
H86   H     H_    0.530157 0.332658 0.528077 0.225942
H87   H     H_    0.030699 0.167145 0.526959 0.225856
H88   H     H_    0.030720 0.832863 0.526929 0.225774
O1    O     O_3   0.750010 0.750010 0.500000 -0.489033
O2    O     O_3   0.750010 0.249990 0.500000 -0.491300
O3    O     O_3   0.250010 0.250010 0.500000 -0.489055
O4    O     O_3   0.250010 0.749990 0.500000 -0.491305
O5    O     O_R   0.697880 0.633160 0.542990 -0.655139
O6    O     O_R   0.697880 0.366840 0.542990 -0.655882
O7    O     O_R   0.197880 0.133160 0.542990 -0.655037
O8    O     O_R   0.197880 0.866840 0.542990 -0.655845
O9    O     O_R   0.740870 0.866870 0.457020 -0.659666
O10   O     O_R   0.740870 0.133130 0.457020 -0.655227
O11   O     O_R   0.240870 0.366870 0.457020 -0.659672
O12   O     O_R   0.240870 0.633130 0.457020 -0.655334
O13   O     O_R   0.862620 0.719400 0.336030 -0.636768
O14   O     O_R   0.862620 0.280600 0.336030 -0.636989
O15   O     O_R   0.362620 0.219400 0.336030 -0.636721
O16   O     O_R   0.362620 0.780600 0.336030 -0.636975
O17   O     O_R   0.698690 0.780630 0.663960 -0.633481
O18   O     O_R   0.698690 0.219370 0.663960 -0.632481
O19   O     O_R   0.198690 0.280630 0.663960 -0.634134
O20   O     O_R   0.198690 0.719370 0.663960 -0.632535
O21   O     O_R   0.801340 0.780670 0.336040 -0.642076
O22   O     O_R   0.801340 0.219330 0.336040 -0.644972
O23   O     O_R   0.301340 0.280670 0.336040 -0.642092
O24   O     O_R   0.301340 0.719330 0.336040 -0.644959
O25   O     O_R   0.637410 0.719360 0.663970 -0.642597
O26   O     O_R   0.637410 0.280640 0.663970 -0.642287
O27   O     O_R   0.137410 0.219360 0.663970 -0.642344
O28   O     O_R   0.137410 0.780640 0.663970 -0.642185
O29   O     O_R   0.802130 0.633170 0.457010 -0.635826
O30   O     O_R   0.802130 0.366830 0.457010 -0.635950
O31   O     O_R   0.302130 0.133170 0.457010 -0.635812
O32   O     O_R   0.302130 0.866830 0.457010 -0.636010
O33   O     O_R   0.759170 0.866860 0.542980 -0.631614
O34   O     O_R   0.759170 0.133140 0.542980 -0.635866
O35   O     O_R   0.259170 0.366860 0.542980 -0.631630
O36   O     O_R   0.259170 0.633140 0.542980 -0.635830
O37   O     O_R   0.888360 0.719380 0.456990 -0.634141
O38   O     O_R   0.888360 0.280620 0.456990 -0.634418
O39   O     O_R   0.388360 0.219380 0.456990 -0.633639
O40   O     O_R   0.388360 0.780620 0.456990 -0.634366
O41   O     O_R   0.654640 0.780660 0.457030 -0.655127
O42   O     O_R   0.654640 0.219340 0.457030 -0.651477
O43   O     O_R   0.154640 0.280660 0.457030 -0.655134
O44   O     O_R   0.154640 0.719340 0.457030 -0.651752
O45   O     O_R   0.845390 0.780640 0.542970 -0.622776
O46   O     O_R   0.845390 0.219360 0.542970 -0.624853
O47   O     O_R   0.345390 0.280640 0.542970 -0.622248
O48   O     O_R   0.345390 0.719360 0.542970 -0.624823
O49   O     O_R   0.611660 0.719380 0.543010 -0.643609
O50   O     O_R   0.611660 0.280620 0.543010 -0.644108
O51   O     O_R   0.111660 0.219380 0.543010 -0.643601
O52   O     O_R   0.111660 0.780620 0.543010 -0.643769
Zn1   Zn    Zn3+2 0.675530 0.706240 0.561430 0.975504
Zn2   Zn    Zn3+2 0.675530 0.293760 0.561430 0.980055
Zn3   Zn    Zn3+2 0.175530 0.206240 0.561430 0.975695
Zn4   Zn    Zn3+2 0.175530 0.793760 0.561430 0.980286
Zn5   Zn    Zn3+2 0.824490 0.706250 0.438570 0.993341
Zn6   Zn    Zn3+2 0.824490 0.293750 0.438570 0.991180
Zn7   Zn    Zn3+2 0.324490 0.206250 0.438570 0.993467
Zn8   Zn    Zn3+2 0.324490 0.793750 0.438570 0.991185
Zn9   Zn    Zn3+2 0.763090 0.793770 0.561410 0.995729
Zn10  Zn    Zn3+2 0.763090 0.206230 0.561410 1.002659
Zn11  Zn    Zn3+2 0.263090 0.293770 0.561410 0.995368
Zn12  Zn    Zn3+2 0.263090 0.706230 0.561410 1.002638
Zn13  Zn    Zn3+2 0.736940 0.793790 0.438590 0.969992
Zn14  Zn    Zn3+2 0.736940 0.206210 0.438590 0.981123
Zn15  Zn    Zn3+2 0.236940 0.293790 0.438590 0.969893
Zn16  Zn    Zn3+2 0.236940 0.706210 0.438590 0.980928
O53   O     O_3   0.436562 0.656548 0.529263 -0.676686
H89   H     H_    0.421441 0.632495 0.571460 0.325086
O54   O     O_3   0.436061 0.343272 0.530350 -0.675806
H90   H     H_    0.420755 0.367082 0.572844 0.325176
O55   O     O_3   0.936603 0.156535 0.529183 -0.676686
H91   H     H_    0.921493 0.132464 0.571360 0.325099
O56   O     O_3   0.936623 0.843473 0.529155 -0.676123
H92   H     H_    0.921525 0.867553 0.571321 0.325323
O57   O     O_3   0.508382 0.693607 0.389052 -0.688506
H93   H     H_    0.482507 0.699669 0.369803 0.319379
O58   O     O_3   0.508036 0.306961 0.389724 -0.688112
H94   H     H_    0.482182 0.300995 0.370424 0.319498
O59   O     O_3   0.008403 0.193651 0.389002 -0.688404
H95   H     H_    0.982532 0.199724 0.369750 0.319428
O60   O     O_3   0.008417 0.806333 0.388985 -0.688153
H96   H     H_    0.982539 0.800258 0.369742 0.319724
H97   H     H_    0.384708 0.761108 0.063534 0.187200
H98   H     H_    0.387057 0.227467 0.063533 0.187735
H99   H     H_    0.885936 0.268034 0.063530 0.187475
H100  H     H_    0.887109 0.727281 0.063530 0.187658
O61   O     O_3   0.503106 0.816920 0.597441 -0.752434
H101  H     H_    0.470666 0.792759 0.635762 0.328425
O62   O     O_3   0.503508 0.182486 0.596667 -0.746022
H102  H     H_    0.470928 0.206418 0.635290 0.327848
O63   O     O_3   0.003089 0.316890 0.597481 -0.752493
H103  H     H_    0.970662 0.292714 0.635787 0.328425
O64   O     O_3   0.003069 0.683133 0.597499 -0.746100
H104  H     H_    0.970648 0.707317 0.635796 0.327840
O65   O     O_3   0.625898 0.722424 0.929837 -0.768097
H105  H     H_    0.643450 0.691564 0.938887 0.331230
O66   O     O_3   0.621264 0.289832 0.929841 -0.768371
H106  H     H_    0.634357 0.323439 0.938910 0.331236
O67   O     O_3   0.123307 0.214964 0.929844 -0.768232
H107  H     H_    0.138211 0.182380 0.938921 0.331276
O68   O     O_3   0.121173 0.790027 0.929846 -0.768364
H108  H     H_    0.134186 0.823671 0.938928 0.331284
H109  H     H_    0.675931 0.956291 0.480403 0.055044
H110  H     H_    0.678542 0.043479 0.477323 0.046362
H111  H     H_    0.175871 0.456288 0.480503 0.054958
H112  H     H_    0.178488 0.543477 0.477411 0.046136
H113  H     H_    0.807848 0.956446 0.542953 0.183995
H114  H     H_    0.806486 0.044146 0.544915 0.181017
H115  H     H_    0.307928 0.456447 0.542849 0.184090
H116  H     H_    0.306559 0.544149 0.544822 0.181022
H117  H     H_    0.412074 0.804508 0.590380 0.160984
H118  H     H_    0.412376 0.194976 0.589805 0.160718
H119  H     H_    0.912056 0.304470 0.590423 0.160982
H120  H     H_    0.912042 0.695551 0.590435 0.160720
O69   O     O_3   0.633658 0.951373 0.593197 -0.718712
H121  H     H_    0.621823 0.916496 0.585985 0.334900
O70   O     O_3   0.633922 0.050865 0.590072 -0.715394
H122  H     H_    0.594622 0.047458 0.592157 0.365168
O71   O     O_3   0.133676 0.451375 0.593280 -0.718823
H123  H     H_    0.121827 0.416497 0.586091 0.334839
O72   O     O_3   0.133935 0.550867 0.590147 -0.715546
H124  H     H_    0.094615 0.547455 0.592277 0.364957
O73   O     O_3   0.743471 0.551574 0.392109 -0.735123
H125  H     H_    0.697502 0.543730 0.426859 0.338831
O74   O     O_3   0.743477 0.448414 0.392105 -0.735229
H126  H     H_    0.697507 0.456251 0.426855 0.338801
O75   O     O_3   0.243125 0.051573 0.392381 -0.735059
H127  H     H_    0.197166 0.043733 0.427255 0.338858
O76   O     O_3   0.243126 0.948416 0.392379 -0.735174
H128  H     H_    0.197167 0.956253 0.427254 0.338813
O77   O     O_3   0.450643 0.845415 0.495453 -0.731572
H129  H     H_    0.490216 0.847173 0.444269 0.327331
O78   O     O_3   0.451149 0.154575 0.494434 -0.731810
H130  H     H_    0.490709 0.153106 0.443214 0.327302
O79   O     O_3   0.950599 0.345415 0.495533 -0.731675
H131  H     H_    0.990168 0.347195 0.444348 0.327298
O80   O     O_3   0.950576 0.654588 0.495556 -0.732283
H132  H     H_    0.990144 0.652799 0.444372 0.327309
H133  H     H_    0.516499 0.772916 0.381998 0.079104
H134  H     H_    0.516611 0.227695 0.381787 0.078700
H135  H     H_    0.016494 0.272962 0.382015 0.079075
H136  H     H_    0.016488 0.727020 0.382019 0.078946
H137  H     H_    0.491539 0.707653 0.607088 0.156990
H138  H     H_    0.491263 0.291679 0.607636 0.157079
H139  H     H_    0.991552 0.207617 0.607056 0.156993
H140  H     H_    0.991563 0.792408 0.607039 0.157362
H141  H     H_    0.402983 0.713260 0.609296 0.065442
H142  H     H_    0.402745 0.286121 0.609747 0.065348
H143  H     H_    0.902997 0.213214 0.609265 0.065493
H144  H     H_    0.903006 0.786809 0.609252 0.065929

loop_
_geom_bond_atom_site_label_1
_geom_bond_atom_site_label_2
_ccdc_geom_bond_type
C60   H48   S    
O77   H129  S    
C82   C94   S    
C55   C59   S    
C88   H60   S    
C41   C61   S    
C43   C63   S    
C114  O10   A    
O57   H93   S    
C44   C64   S    
C104  H68   S    
C50   H42   S    
C122  O50   A    
C92   O8    A    
C106  H74   S    
C29   C33   S    
C83   H111  S    
O2    Zn2   S    
C46   O26   A    
O52   Zn4   S    
C101  H77   S    
C70   C74   T    
C9    C121  S    
C78   H50   S    
O44   Zn16  S    
C107  H71   S    
C79   H55   S    
O41   Zn13  S    
C80   H56   S    
C99   O75   S    
O46   Zn10  S    
C59   H35   S    
C22   O54   S    
O29   Zn5   S    
C49   H41   S    
C11   C123  S    
O24   Zn16  S    
O66   H106  S    
C14   C119  S    
C104  H80   S    
C25   C41   S    
C98   H62   S    
O21   Zn13  S    
C28   C44   S    
C81   O69   S    
C48   O28   A    
C33   H25   S    
O2    Zn6   S    
O14   Zn6   S    
O3    Zn11  S    
C7    H87   S    
O4    Zn12  S    
O58   H94   S    
C16   C20   S    
C128  O64   S    
C13   C21   S    
C105  H69   S    
C34   C54   S    
C20   O60   S    
C125  C129  S    
C17   C133  S    
C83   O71   S    
C41   C69   S    
C14   C130  S    
C64   O68   S    
C43   C71   S    
C20   H136  S    
C10   C122  S    
C106  H70   S    
C117  O45   A    
C57   C61   S    
C12   C128  S    
C119  O47   A    
C59   C63   S    
C120  O48   A    
C15   C118  S    
O7    Zn3   S    
C60   C64   S    
O8    Zn4   S    
C26   C50   S    
C87   H59   S    
C1    O21   A    
C91   O31   A    
C78   C94   S    
C49   C53   S    
O5    Zn1   S    
O25   Zn1   S    
C44   C72   S    
C51   C55   S    
C2    O22   A    
C127  C131  S    
C29   H13   S    
C129  O77   S    
C30   H18   S    
C5    C21   S    
C64   H32   S    
O65   H105  S    
O31   Zn7   S    
O78   H130  S    
C26   H38   S    
C96   C116  S    
C115  O35   A    
O17   Zn9   S    
C19   C135  S    
C6    H86   S    
C9    C133  S    
O73   H125  S    
C48   C76   S    
O74   H126  S    
C108  H72   S    
C97   C98   S    
C127  O63   S    
C85   C86   S    
C10   C134  S    
C31   C43   S    
O6    Zn2   S    
O3    Zn15  S    
C32   C36   S    
C56   C60   S    
O11   Zn15  S    
C42   C70   S    
C31   H15   S    
C26   H10   S    
C45   O25   A    
C32   H20   S    
C85   C93   S    
C37   C65   T    
O12   Zn16  S    
C107  C108  S    
C103  H67   S    
C53   C65   S    
C42   C62   S    
C47   O27   A    
C102  H66   S    
C98   O74   S    
C63   H31   S    
C90   O30   A    
C135  H83   S    
C51   H43   S    
C18   H134  S    
C108  H76   S    
C27   C51   S    
C121  O49   A    
C30   C34   S    
C97   H61   S    
C21   O53   S    
C104  C112  S    
C1    O13   A    
C56   C68   S    
C9    C125  S    
C52   H100  S    
C91   O7    A    
C11   C127  S    
C5    C9    S    
O53   H89   S    
C123  O43   A    
C97   C109  S    
C83   C84   S    
C32   H16   S    
C8    C12   S    
C99   C111  S    
C18   O58   S    
C80   H52   S    
O42   Zn14  S    
C20   C136  S    
C59   H47   S    
O36   Zn12  S    
C62   O66   S    
O37   Zn5   S    
O30   Zn6   S    
C62   H30   S    
O20   Zn12  S    
O1    Zn13  S    
O9    Zn13  S    
C100  H64   S    
C13   C120  S    
C26   C42   S    
C7    H139  S    
C105  C109  S    
O22   Zn14  S    
C81   H109  S    
C29   C41   S    
C107  C111  S    
O2    Zn10  S    
C34   H26   S    
O3    Zn7   S    
C54   C66   S    
C84   O72   S    
C13   C17   S    
C77   H53   S    
C14   C22   S    
C128  H4    S    
C85   H113  S    
C86   H58   S    
C7    C23   S    
C8    C24   S    
C18   C134  S    
C61   H29   S    
O27   Zn3   S    
C130  H118  S    
C15   C131  S    
C12   C136  S    
O23   Zn15  S    
O1    Zn1   S    
C90   O6    A    
C10   C126  S    
O19   Zn11  S    
C118  O46   A    
C58   C62   S    
C87   C88   S    
C88   C96   S    
C101  C102  S    
C98   C110  S    
C19   O59   S    
C48   O20   A    
C115  O11   A    
O75   H127  S    
C77   C78   S    
O4    Zn4   S    
C113  O9    A    
C122  O42   A    
C50   C54   S    
C3    O23   A    
C130  O78   S    
O26   Zn2   S    
C54   C58   S    
C30   H14   S    
C107  H75   S    
C126  C130  S    
C101  C109  S    
C6    C22   S    
C105  H73   S    
C103  C111  S    
C82   H110  S    
O18   Zn10  S    
C102  H78   S    
C126  H2    S    
C17   H133  S    
O80   H132  S    
C69   C73   T    
C19   H135  S    
C8    H88   S    
C117  O37   A    
O62   H102  S    
C113  O33   A    
C126  O62   S    
C33   H21   S    
C51   H99   S    
C28   H12   S    
C8    H140  S    
C129  H117  S    
O60   H96   S    
C61   O65   S    
C27   H39   S    
O54   H90   S    
C24   O56   S    
C53   C57   S    
C92   C112  S    
C125  H1    S    
C134  H82   S    
O49   Zn1   S    
C108  C112  S    
C35   H27   S    
O51   Zn3   S    
O56   H92   S    
C79   C95   S    
C36   C56   S    
C11   C135  S    
C134  H6    S    
C116  O12   A    
O33   Zn9   S    
C4    O16   A    
C93   C113  S    
O35   Zn11  S    
C92   O32   A    
C17   O57   S    
C100  C112  S    
O40   Zn8   S    
C31   C35   S    
C102  C110  S    
C46   O18   A    
C121  O41   A    
C82   O70   S    
C103  H79   S    
O72   H124  S    
C21   H141  S    
C28   H40   S    
C6    C10   S    
C100  O76   S    
C31   H19   S    
O47   Zn11  S    
C136  H84   S    
C105  C106  S    
C133  H5    S    
C58   H46   S    
O43   Zn15  S    
O28   Zn4   S    
O68   H108  S    
C136  H8    S    
C16   C117  S    
C47   O19   A    
C87   H115  S    
O61   H101  S    
O38   Zn6   S    
C77   C93   S    
C124  O44   A    
O10   Zn14  S    
C25   H37   S    
O67   H107  S    
C16   C132  S    
C25   C49   S    
C47   C75   S    
O64   H104  S    
C27   C43   S    
C4    C37   S    
O59   H95   S    
C40   C68   T    
C99   H63   S    
C103  C104  S    
C36   H28   S    
C30   C42   S    
O3    Zn3   S    
O1    Zn5   S    
C3    O15   A    
C123  O51   A    
C5    H85   S    
O70   H122  S    
C77   H49   S    
O55   H91   S    
C14   C18   S    
C78   H54   S    
C72   C76   T    
C57   H45   S    
C81   C82   S    
C94   C114  S    
O69   H121  S    
C7    C11   S    
C79   H51   S    
O45   Zn9   S    
C58   H34   S    
C97   O73   S    
C89   C109  S    
O39   Zn7   S    
C45   C73   S    
C84   C96   S    
C91   C111  S    
C22   H142  S    
C4    O24   A    
C86   C94   S    
C1    C40   S    
C5    H137  S    
C15   C19   S    
C2    C39   S    
C119  O39   A    
O76   H128  S    
C3    C38   S    
C95   C115  S    
C120  O40   A    
C80   C96   S    
O13   Zn5   S    
C23   O55   S    
O4    Zn8   S    
C15   C23   S    
C16   C24   S    
C89   O29   A    
C131  O79   S    
C84   H112  S    
C127  H3    S    
C49   H97   S    
C128  C132  S    
C57   H33   S    
C33   C53   S    
C24   H144  S    
O32   Zn8   S    
C35   C55   S    
C60   H36   S    
C38   C66   T    
C125  O61   S    
C101  H65   S    
C2    O14   A    
O15   Zn7   S    
C133  H81   S    
C87   C95   S    
O1    Zn9   S    
O16   Zn8   S    
C52   H44   S    
C81   C93   S    
C99   C100  S    
C12   C124  S    
C83   C95   S    
C32   C44   S    
O4    Zn16  S    
C114  O34   A    
C50   H98   S    
C88   H116  S    
C34   H22   S    
C23   H143  S    
C132  O80   S    
C90   C110  S    
C45   O17   A    
C46   C74   S    
C29   H17   S    
C106  C110  S    
C6    H138  S    
C13   C129  S    
O50   Zn2   S    
C39   C67   T    
C63   O67   S    
C116  O36   A    
C55   C67   S    
O48   Zn12  S    
O79   H131  S    
C132  H120  S    
O34   Zn10  S    
C86   H114  S    
C71   C75   T    
C28   C52   S    
C85   H57   S    
C118  O38   A    
C135  H7    S    
O2    Zn14  S    
C131  H119  S    
O63   H103  S    
C124  O52   A    
C35   H23   S    
C36   H24   S    
C79   C80   S    
C27   H11   S    
C25   H9    S    
C89   O5    A    
O71   H123  S    
C52   C56   S    
