data_mof_unit_16868.cif
_audit_creation_date              2012-10-26T20:19:35-0400
_audit_creation_method            fapswitch 2.2
_symmetry_space_group_name_H-M    P1
_symmetry_Int_Tables_number       1
_space_group_crystal_system       triclinic
_cell_length_a                    10.820186
_cell_length_b                    10.800328
_cell_length_c                    9.691006
_cell_angle_alpha                 89.726149
_cell_angle_beta                  89.856816
_cell_angle_gamma                 92.408433
_cell_volume                      1131.48860974

loop_
_atom_site_label
_atom_site_type_symbol
_atom_type_description
_atom_site_fract_x
_atom_site_fract_y
_atom_site_fract_z
_atom_type_partial_charge
C1    C     C_R   0.495609 0.263141 0.500205 0.527117
C2    C     C_R   0.395348 0.064246 0.582835 -0.018390
C3    C     C_R   0.484678 0.129347 0.500852 0.010841
C4    C     C_R   0.260444 0.497040 0.499393 0.536741
C5    C     C_R   0.569283 0.066800 0.422249 -0.159599
C6    C     C_R   0.568240 0.939450 0.425143 -0.181414
C7    C     C_R   0.483144 0.871078 0.506392 -0.000130
C8    C     C_R   0.591494 0.710871 0.139608 0.086171
C9    C     C_R   0.555337 0.823863 0.085171 -0.150037
C10   C     C_R   0.529196 0.829218 0.945445 -0.108484
C11   C     C_R   0.561611 0.727194 0.866238 0.121747
C12   C     C_3   0.879149 0.494285 0.504470 0.061326
C13   C     C_R   0.539475 0.606612 0.926238 0.095870
C14   C     C_R   0.545007 0.602835 0.073831 0.115190
C15   C     C_R   0.457920 0.400797 0.074599 0.016026
C16   C     C_R   0.491431 0.736746 0.501136 0.564920
C17   C     C_R   0.459255 0.400046 0.927796 0.465223
C18   C     C_R   0.740090 0.496897 0.500803 0.511528
C19   C     C_3   0.068208 0.377119 0.570758 -0.252361
C20   C     C_3   0.924645 0.369045 0.559463 -0.228480
C21   C     C_3   0.077764 0.615643 0.570310 -0.082129
C22   C     C_3   0.070723 0.492898 0.348311 -0.231359
C23   C     C_3   0.936368 0.600921 0.598862 -0.094201
C24   C     C_3   0.122688 0.496552 0.497213 0.048334
C25   C     C_3   0.109547 0.736866 0.489740 -0.398741
C26   C     C_3   0.719989 0.710787 0.198166 -0.369812
C27   C     C_3   0.680137 0.759502 0.789064 -0.387275
C28   C     C_3   0.918825 0.579935 0.757250 -0.432979
C29   C     C_3   0.930717 0.509851 0.354104 -0.246863
C30   C     C_R   0.302406 0.127447 0.653079 -0.071851
C31   C     C_R   0.220295 0.065007 0.741807 -0.162485
C32   C     C_R   0.227995 0.938519 0.761132 -0.096647
C33   C     C_R   0.313958 0.872286 0.687319 0.350076
C34   C     C_R   0.397832 0.933188 0.592748 0.016381
Cu1   Cu    Cu3+1 0.499990 0.499990 0.640660 1.038681
Cu2   Cu    Cu3+1 0.500010 0.500010 0.359340 0.919450
F1    F     F_    0.310959 0.749250 0.711382 -0.654233
F2    F     F_    0.413372 0.297479 0.863511 -0.649318
H1    H     H_    0.096859 0.375775 0.680740 0.130069
H2    H     H_    0.105711 0.293358 0.522268 0.094800
H3    H     H_    0.575981 0.910134 0.138067 0.120909
H4    H     H_    0.526925 0.920397 0.898404 0.136743
H5    H     H_    0.895629 0.293226 0.487592 0.108272
H6    H     H_    0.882764 0.344888 0.661435 0.130198
H7    H     H_    0.127976 0.624926 0.669789 0.218748
H8    H     H_    0.115264 0.566011 0.281434 0.141673
H9    H     H_    0.089523 0.402471 0.299404 0.124285
H10   H     H_    0.884649 0.442016 0.282743 0.133009
H11   H     H_    0.088619 0.817627 0.554730 0.131086
H12   H     H_    0.912728 0.604071 0.316678 0.107470
H13   H     H_    0.208885 0.743113 0.460935 0.173135
H14   H     H_    0.054411 0.745090 0.394369 0.112241
H15   H     H_    0.766690 0.627451 0.161661 0.123037
H16   H     H_    0.777113 0.792269 0.160971 0.083308
H17   H     H_    0.719462 0.713839 0.312034 0.152502
H18   H     H_    0.701834 0.692356 0.710647 0.175156
H19   H     H_    0.674353 0.849773 0.734209 0.115271
H20   H     H_    0.758014 0.767496 0.863288 0.092815
H21   H     H_    0.825000 0.548238 0.789052 0.164549
H22   H     H_    0.981195 0.509952 0.798390 0.133395
H23   H     H_    0.890562 0.688314 0.572189 0.113837
H24   H     H_    0.942675 0.667811 0.811899 0.116466
H25   H     H_    0.638673 0.117084 0.360600 0.120441
H26   H     H_    0.291760 0.225749 0.639896 0.168150
H27   H     H_    0.150804 0.115145 0.796276 0.123593
H28   H     H_    0.164530 0.890364 0.831609 0.128957
H29   H     H_    0.638315 0.894504 0.367159 0.107600
H30   H     H_    0.421567 0.319623 0.129208 0.143195
N1    N     N_R   0.501200 0.501210 0.147910 -0.281696
N2    N     N_R   0.501250 0.501290 0.852040 -0.223869
O1    O     O_R   0.499990 0.319640 0.618810 -0.435003
O2    O     O_R   0.500000 0.319660 0.381240 -0.524376
O3    O     O_R   0.317680 0.499970 0.618790 -0.447062
O4    O     O_R   0.317700 0.499990 0.381210 -0.515620
O5    O     O_R   0.500000 0.680340 0.618760 -0.441908
O6    O     O_R   0.500010 0.680360 0.381190 -0.509069
O7    O     O_R   0.682300 0.500010 0.618790 -0.536745
O8    O     O_R   0.682320 0.500030 0.381210 -0.518397

loop_
_geom_bond_atom_site_label_1
_geom_bond_atom_site_label_2
_ccdc_geom_bond_type
C22   C29   S    
C30   H26   S    
C12   C29   S    
C10   H4    S    
C16   O5    A    
C8    C26   S    
C19   C20   S    
C26   H17   S    
C12   C23   S    
Cu1   O5    S    
C1    O1    A    
C19   H1    S    
C30   C31   A    
C4    C24   S    
C13   N2    A    
C5    H25   S    
C31   H27   S    
Cu2   O6    S    
Cu1   O3    S    
Cu1   Cu2   S    
Cu1   N2    S    
C8    C9    A    
C9    C10   A    
C4    O4    A    
C2    C34   A    
C22   H9    S    
Cu1   O1    S    
C17   N2    A    
C13   C14   A    
C19   H2    S    
C26   H16   S    
C20   H6    S    
C21   H7    S    
C29   H12   S    
C28   H22   S    
C15   N1    A    
C1    O2    A    
C29   H10   S    
C27   H19   S    
C27   H18   S    
Cu1   O7    S    
C33   F1    S    
C1    C3    S    
C25   H13   S    
C31   C32   A    
C11   C27   S    
C18   O8    A    
C12   C20   S    
C33   C34   A    
C23   C28   S    
C4    O3    A    
Cu2   O4    S    
C6    H29   S    
C22   H8    S    
C21   C23   S    
C7    C34   A    
C22   C24   S    
C26   H15   S    
C20   H5    S    
Cu2   N1    S    
C32   H28   S    
C28   H21   S    
C15   C17   A    
C21   C25   S    
C7    C16   S    
C8    C14   A    
C16   O6    A    
C3    C5    A    
C27   H20   S    
C6    C7    A    
C9    H3    S    
C2    C30   A    
C32   C33   A    
C2    C3    A    
C25   H14   S    
Cu2   O8    S    
C11   C13   A    
C5    C6    A    
C18   O7    A    
C15   H30   S    
C14   N1    A    
C19   C24   S    
C17   F2    S    
C25   H11   S    
C10   C11   A    
C23   H23   S    
C21   C24   S    
C12   C18   S    
Cu2   O2    S    
C28   H24   S    
