data_mof_unit_43220.cif
_audit_creation_date              2012-10-26T20:02:29-0400
_audit_creation_method            fapswitch 2.2
_symmetry_space_group_name_H-M    P1
_symmetry_Int_Tables_number       1
_space_group_crystal_system       triclinic
_cell_length_a                    18.872157
_cell_length_b                    18.65797
_cell_length_c                    12.363734
_cell_angle_alpha                 90.488178
_cell_angle_beta                  129.051279
_cell_angle_gamma                 89.225623
_cell_volume                      3380.51969326

loop_
_atom_site_label
_atom_site_type_symbol
_atom_type_description
_atom_site_fract_x
_atom_site_fract_y
_atom_site_fract_z
_atom_type_partial_charge
C1    C     C_R   0.616763 0.901289 0.657919 0.535541
C2    C     C_R   0.669885 0.728289 0.018472 0.027622
C3    C     C_R   0.175455 0.762451 0.038219 0.025662
C4    C     C_R   0.177835 0.241839 0.041670 0.026585
C5    C     C_R   0.599201 0.230520 0.926020 -0.137333
C6    C     C_R   0.592912 0.751386 0.888194 -0.134144
C7    C     C_R   0.096576 0.738760 0.911093 -0.135798
C8    C     C_R   0.098397 0.266343 0.915519 -0.135351
C9    C     C_R   0.601738 0.201604 0.824776 -0.125332
C10   C     C_R   0.602078 0.787871 0.801138 -0.120219
C11   C     C_R   0.102393 0.706232 0.815616 -0.125410
C12   C     C_R   0.614845 0.099829 0.656199 0.532407
C13   C     C_R   0.102159 0.295300 0.816833 -0.121533
C14   C     C_R   0.334584 0.797134 0.174797 0.115286
C15   C     C_R   0.338136 0.205205 0.183444 0.127894
C16   C     C_R   0.834442 0.297340 0.173720 0.116237
C17   C     C_R   0.834238 0.704779 0.185368 0.125673
C18   C     C_R   0.243421 0.835920 0.242050 -0.172004
C19   C     C_R   0.243321 0.168099 0.243515 -0.174213
C20   C     C_R   0.748515 0.330347 0.253062 -0.173613
C21   C     C_R   0.729702 0.649610 0.212476 -0.176337
C22   C     C_R   0.690341 0.147832 0.758701 -0.014336
C23   C     C_R   0.115023 0.399633 0.655416 0.532071
C24   C     C_R   0.695381 0.855299 0.763384 -0.005819
C25   C     C_R   0.194487 0.642952 0.764911 -0.009548
C26   C     C_R   0.190503 0.349636 0.755139 -0.009515
C27   C     C_R   0.686417 0.997303 0.287320 -0.155523
C28   C     C_R   0.186130 0.492488 0.287006 -0.155255
C29   C     C_R   0.342241 0.999442 0.630292 0.293094
C30   C     C_R   0.842387 0.502518 0.630231 0.293434
C31   C     C_R   0.310411 0.001039 0.706720 -0.144508
C32   C     C_R   0.810272 0.504920 0.706128 -0.147325
C33   C     C_R   0.387823 0.102142 0.347702 0.559314
C34   C     C_R   0.116309 0.598393 0.658192 0.534080
C35   C     C_R   0.388204 0.898079 0.347141 0.544040
C36   C     C_R   0.885318 0.600086 0.344479 0.559488
C37   C     C_R   0.888458 0.397859 0.347499 0.541375
C38   C     C_R   0.370268 0.001715 0.850311 -0.175817
C39   C     C_R   0.870019 0.503942 0.849875 -0.175014
C40   C     C_R   0.464536 0.001619 0.923540 -0.016028
C41   C     C_R   0.964388 0.501791 0.923378 -0.016502
C42   C     C_R   0.496009 0.000448 0.843446 0.153278
C43   C     C_R   0.995928 0.499617 0.843398 0.152577
C44   C     C_R   0.528260 0.001915 0.073570 -0.011502
C45   C     C_R   0.261429 0.753283 0.069801 0.062713
C46   C     C_R   0.028177 0.501364 0.073470 -0.011794
C47   C     C_R   0.622612 0.999175 0.141347 0.039073
C48   C     C_R   0.122416 0.496118 0.141149 0.039037
C49   C     C_R   0.652705 0.998646 0.063214 -0.161397
C50   C     C_R   0.152526 0.495044 0.063060 -0.160782
C51   C     C_R   0.591104 0.999809 0.918177 -0.086163
C52   C     C_R   0.091010 0.497864 0.918140 -0.086164
C53   C     C_R   0.502599 0.004450 0.160321 0.031584
C54   C     C_R   0.002728 0.505588 0.160392 0.035737
C55   C     C_R   0.656676 0.997345 0.365834 0.022206
C56   C     C_R   0.263777 0.247202 0.071381 0.044161
C57   C     C_R   0.156441 0.493794 0.365578 0.024499
C58   C     C_R   0.674595 0.291081 0.145693 -0.156453
C59   C     C_R   0.656899 0.685961 0.097050 -0.150219
C60   C     C_R   0.168625 0.799432 0.129894 -0.155856
C61   C     C_R   0.170398 0.207237 0.133512 -0.150835
C62   C     C_R   0.323401 0.840750 0.257921 0.002267
C63   C     C_R   0.324124 0.161514 0.261819 0.016406
C64   C     C_R   0.825053 0.339271 0.260619 0.002272
C65   C     C_R   0.816872 0.655271 0.252166 0.022011
C66   C     C_R   0.775048 0.141949 0.784285 0.146621
C67   C     C_R   0.762613 0.251249 0.073112 0.061649
C68   C     C_R   0.782622 0.870472 0.804061 0.145724
C69   C     C_R   0.281411 0.628109 0.801880 0.140252
C70   C     C_R   0.274759 0.353973 0.779824 0.151830
C71   C     C_R   0.359457 0.642409 0.938874 -0.123997
C72   C     C_R   0.355042 0.340495 0.915369 -0.118314
C73   C     C_R   0.855254 0.154509 0.920323 -0.120082
C74   C     C_R   0.859242 0.856587 0.942354 -0.119937
C75   C     C_R   0.352104 0.676685 0.031283 -0.143966
C76   C     C_R   0.351002 0.313734 0.015637 -0.168584
C77   C     C_R   0.850951 0.182052 0.020569 -0.144195
C78   C     C_R   0.759353 0.742974 0.065388 0.042354
C79   C     C_R   0.850356 0.822075 0.032027 -0.170717
C80   C     C_R   0.767491 0.206853 0.983942 0.030150
C81   C     C_R   0.767501 0.790642 0.983401 0.025511
C82   C     C_R   0.268189 0.705984 0.985885 0.030472
C83   C     C_R   0.268424 0.289354 0.980043 0.025532
C84   C     C_R   0.685854 0.185539 0.854481 -0.014478
C85   C     C_R   0.688094 0.810739 0.848285 -0.004949
C86   C     C_R   0.187828 0.685455 0.853952 -0.015742
C87   C     C_R   0.186520 0.311054 0.849511 -0.006338
C88   C     C_3   0.192382 0.967368 0.411406 -0.344795
C89   C     C_R   0.678946 0.255986 0.049907 0.025804
C90   C     C_3   0.695296 0.470718 0.408968 -0.339277
C91   C     C_3   0.403347 0.843699 0.076854 -0.270622
C92   C     C_3   0.506189 0.219764 0.336946 -0.282919
C93   C     C_3   0.892527 0.350170 0.064157 -0.273968
C94   C     C_3   0.994624 0.738668 0.361591 -0.289245
C95   C     C_3   0.863724 0.121599 0.699506 -0.322532
C96   C     C_3   0.879913 0.922533 0.753124 -0.314625
C97   C     C_3   0.376012 0.571508 0.746793 -0.313049
C98   C     C_3   0.362539 0.371660 0.693824 -0.326111
Cu1   Cu    Cu3+1 0.526340 0.000000 0.421010 0.931904
Cu2   Cu    Cu3+1 0.026340 0.500000 0.421010 0.942411
Cu3   Cu    Cu3+1 0.473640 0.000000 0.578990 0.942236
Cu4   Cu    Cu3+1 0.973640 0.500000 0.578990 0.941890
H1    H     H_    0.235784 0.865911 0.308720 0.142720
H2    H     H_    0.932929 0.513157 0.117844 0.117503
H3    H     H_    0.340215 0.002456 0.900900 0.094649
H4    H     H_    0.839938 0.505466 0.900421 0.095024
H5    H     H_    0.238299 0.003086 0.655543 0.103212
H6    H     H_    0.738043 0.509163 0.653860 0.103830
H7    H     H_    0.621410 0.999798 0.868889 0.185490
H8    H     H_    0.121360 0.498660 0.868944 0.185574
H9    H     H_    0.533851 0.237993 0.903008 0.102462
H10   H     H_    0.524995 0.737463 0.849858 0.103290
H11   H     H_    0.029887 0.749638 0.881729 0.106246
H12   H     H_    0.232563 0.137685 0.305280 0.111670
H13   H     H_    0.032292 0.258760 0.889297 0.100092
H14   H     H_    0.612298 0.291506 0.133111 0.103984
H15   H     H_    0.588945 0.676303 0.062726 0.104307
H16   H     H_    0.104228 0.803196 0.110923 0.104351
H17   H     H_    0.105852 0.205953 0.114276 0.107499
H18   H     H_    0.413431 0.680496 0.138307 0.148180
H19   H     H_    0.413452 0.313315 0.120734 0.136305
H20   H     H_    0.914203 0.185602 0.125903 0.145043
H21   H     H_    0.909580 0.822215 0.139589 0.130687
H22   H     H_    0.426976 0.626588 0.977055 0.105316
H23   H     H_    0.742343 0.358931 0.322707 0.138032
H24   H     H_    0.421654 0.351605 0.946450 0.105479
H25   H     H_    0.922065 0.143254 0.951185 0.106470
H26   H     H_    0.926698 0.873774 0.984335 0.104909
H27   H     H_    0.536955 0.191759 0.723525 0.136997
H28   H     H_    0.540504 0.798606 0.696240 0.132320
H29   H     H_    0.039039 0.696435 0.712471 0.133092
H30   H     H_    0.037916 0.305738 0.714759 0.136996
H31   H     H_    0.705935 0.995980 0.478148 0.158010
H32   H     H_    0.205550 0.490097 0.477737 0.159864
H33   H     H_    0.267216 0.056785 0.452326 0.242487
H34   H     H_    0.715390 0.611171 0.260735 0.116869
H35   H     H_    0.157481 0.965285 0.298225 0.134901
H36   H     H_    0.146214 0.997089 0.423192 0.111664
H37   H     H_    0.203707 0.911905 0.451886 0.143403
H38   H     H_    0.765795 0.564373 0.458343 0.237729
H39   H     H_    0.663886 0.467717 0.297180 0.137757
H40   H     H_    0.645684 0.498164 0.415939 0.110562
H41   H     H_    0.708642 0.415551 0.451506 0.140547
H42   H     H_    0.475554 0.809614 0.284869 0.266019
H43   H     H_    0.470733 0.850813 0.102368 0.144977
H44   H     H_    0.371940 0.896730 0.064492 0.153371
H45   H     H_    0.725134 0.997343 0.114939 0.110522
H46   H     H_    0.358381 0.815438 0.975584 0.151160
H47   H     H_    0.420529 0.188427 0.121492 0.251343
H48   H     H_    0.533352 0.267900 0.322779 0.102146
H49   H     H_    0.557847 0.176430 0.377277 0.180318
H50   H     H_    0.496696 0.231994 0.415283 0.132515
H51   H     H_    0.973465 0.313284 0.272340 0.265722
H52   H     H_    0.956780 0.357405 0.079967 0.141884
H53   H     H_    0.863587 0.403051 0.060146 0.153376
H54   H     H_    0.842756 0.323745 0.961952 0.151156
H55   H     H_    0.932759 0.704643 0.153481 0.251230
H56   H     H_    0.224918 0.492432 0.114756 0.111062
H57   H     H_    0.061083 0.735321 0.382543 0.135715
H58   H     H_    0.001889 0.710669 0.446881 0.152337
H59   H     H_    0.977742 0.795765 0.362496 0.116083
H60   H     H_    0.725509 0.142264 0.579647 0.253201
H61   H     H_    0.852388 0.104091 0.603603 0.129909
H62   H     H_    0.913523 0.083721 0.783748 0.144027
H63   H     H_    0.891701 0.176710 0.726026 0.133291
H64   H     H_    0.750599 0.879628 0.610771 0.255375
H65   H     H_    0.872238 0.949343 0.666365 0.128336
H66   H     H_    0.923280 0.873837 0.783450 0.128805
H67   H     H_    0.759020 0.995481 0.340552 0.086923
H68   H     H_    0.913184 0.960764 0.841536 0.153901
H69   H     H_    0.248767 0.620655 0.607531 0.257428
H70   H     H_    0.366588 0.543545 0.658949 0.130586
H71   H     H_    0.408007 0.533026 0.834502 0.155117
H72   H     H_    0.421341 0.618045 0.777611 0.125272
H73   H     H_    0.223991 0.354729 0.574584 0.258996
H74   H     H_    0.350812 0.388683 0.597751 0.127517
H75   H     H_    0.390041 0.315939 0.719269 0.136451
H76   H     H_    0.412893 0.408791 0.778348 0.143125
H77   H     H_    0.258592 0.488138 0.340066 0.087123
H78   H     H_    0.432588 0.010089 0.117766 0.119126
N1    N     N_R   0.566260 0.000000 0.302220 -0.236995
N2    N     N_2   0.924295 0.705820 0.228082 -0.508876
N3    N     N_2   0.777948 0.120630 0.675243 -0.489328
N4    N     N_2   0.790850 0.903159 0.707944 -0.490769
N5    N     N_2   0.288180 0.595521 0.703198 -0.489229
N6    N     N_2   0.277161 0.375015 0.670769 -0.494239
N7    N     N_R   0.066260 0.500000 0.302220 -0.233846
N8    N     N_R   0.434410 0.000000 0.697680 -0.219898
N9    N     N_R   0.934410 0.500000 0.697680 -0.218206
N10   N     N_2   0.278450 0.004203 0.482624 -0.449889
N11   N     N_2   0.779242 0.510864 0.483430 -0.448532
N12   N     N_2   0.414438 0.803003 0.186153 -0.535040
N13   N     N_2   0.421632 0.197509 0.204912 -0.515447
N14   N     N_2   0.910354 0.307087 0.176188 -0.534272
O1    O     O_R   0.608610 0.924520 0.551740 -0.493194
O2    O     O_R   0.435880 0.924530 0.314850 -0.503763
O3    O     O_R   0.935880 0.575470 0.314850 -0.472406
O4    O     O_R   0.935880 0.424530 0.314850 -0.506835
O5    O     O_R   0.391380 0.075460 0.448260 -0.508520
O6    O     O_R   0.391380 0.924540 0.448260 -0.471526
O7    O     O_R   0.891380 0.575460 0.448260 -0.502354
O8    O     O_R   0.891380 0.424540 0.448260 -0.476294
O9    O     O_R   0.608610 0.075480 0.551740 -0.496900
O10   O     O_R   0.108610 0.424520 0.551740 -0.493145
O11   O     O_R   0.108610 0.575480 0.551740 -0.483690
O12   O     O_R   0.564110 0.924510 0.685150 -0.524095
O13   O     O_R   0.564110 0.075490 0.685150 -0.527879
O14   O     O_R   0.064110 0.424510 0.685150 -0.528052
O15   O     O_R   0.064110 0.575490 0.685150 -0.527383
O16   O     O_R   0.435880 0.075470 0.314850 -0.476243

loop_
_geom_bond_atom_site_label_1
_geom_bond_atom_site_label_2
_ccdc_geom_bond_type
C42   N8    A    
C39   H4    S    
C83   C87   A    
C66   N3    S    
C10   C85   A    
C94   H57   S    
C12   C22   S    
C23   O14   A    
C61   H17   S    
C93   N14   S    
C4    C8    A    
C94   N2    S    
Cu3   O6    S    
C82   C86   A    
C39   C41   A    
C28   C57   A    
C50   H56   S    
C88   N10   S    
C8    C13   A    
C97   H70   S    
C76   H19   S    
C54   H2    S    
C93   H52   S    
C1    O1    A    
Cu4   O7    S    
C97   N5    S    
C21   C59   A    
C3    C7    A    
C27   C55   A    
C43   C52   A    
C30   N9    A    
C33   O5    A    
C11   C86   A    
C68   C74   A    
C14   C62   A    
Cu1   O1    S    
C67   C89   A    
Cu4   N9    S    
C49   H45   S    
C23   C26   S    
C69   C71   A    
C73   C77   A    
C22   C66   A    
C77   H20   S    
Cu3   O13   S    
C8    H13   S    
H47   N13   S    
C17   N2    S    
C13   H30   S    
C74   H26   S    
H51   N14   S    
C45   C82   A    
C19   C63   A    
C26   C87   A    
C49   C51   A    
C92   H50   S    
C50   C52   A    
C41   C46   A    
C96   H66   S    
C60   H16   S    
C98   H76   S    
Cu3   N8    S    
C24   C85   A    
C27   H67   S    
C21   H34   S    
C90   H41   S    
C44   C47   A    
C80   C84   A    
C42   C51   A    
C14   N12   S    
Cu2   O3    S    
C40   C42   A    
C59   H15   S    
C96   H68   S    
C51   H7    S    
C4    C56   A    
C58   H14   S    
C41   C43   A    
C13   C87   A    
C2    C6    A    
C31   H5    S    
C96   N4    S    
C44   C53   A    
C76   C83   A    
C91   H46   S    
C58   C89   A    
C35   O6    A    
C14   C45   A    
C40   C44   A    
C90   N11   S    
C34   O11   A    
C46   C48   A    
C71   C75   A    
C97   H71   S    
H69   N5    S    
C30   C32   A    
C12   O13   A    
C71   H22   S    
C93   H53   S    
Cu2   N7    S    
H64   N4    S    
C36   O3    A    
C47   C49   A    
C92   N13   S    
C79   C81   A    
C24   C68   A    
C2    C59   A    
C18   C62   A    
H42   N12   S    
C19   H12   S    
C73   H25   S    
C66   C73   A    
C79   H21   S    
C4    C61   A    
C3    C45   A    
C72   H24   S    
C22   C84   A    
C20   C64   A    
C7    C11   A    
C10   H28   S    
H33   N10   S    
C5    C9    A    
C2    C78   A    
C34   O15   A    
C53   N1    A    
C98   H74   S    
C33   O16   A    
C52   H8    S    
C33   C63   S    
C46   C54   A    
C92   H49   S    
Cu2   Cu4   S    
C55   N1    A    
C96   H65   S    
C32   H6    S    
C72   C76   A    
Cu4   O15   S    
C16   C67   A    
C30   N11   S    
C98   H75   S    
C1    O12   A    
C94   H59   S    
C88   H36   S    
C90   H40   S    
C88   H37   S    
C35   O2    A    
C18   C60   A    
Cu1   Cu3   S    
C54   N7    A    
C12   O9    A    
C92   H48   S    
C26   C70   A    
C25   C86   A    
C57   H32   S    
C25   C69   A    
C36   O7    A    
C20   C58   A    
C53   H78   S    
C69   N5    S    
C91   H43   S    
C37   C64   S    
C56   C83   A    
C77   C80   A    
C27   C47   A    
H38   N11   S    
C68   N4    S    
C94   H58   S    
C97   H72   S    
C21   C65   A    
C36   C65   S    
C6    H10   S    
C93   H54   S    
C67   C80   A    
C11   H29   S    
C6    C10   A    
Cu2   O11   S    
Cu3   O5    S    
C75   C82   A    
C9    H27   S    
C5    H9    S    
C91   N12   S    
C25   C34   S    
C37   O8    A    
C17   C65   A    
C31   C38   A    
C23   O10   A    
C74   C79   A    
C15   C56   A    
C7    H11   S    
C38   H3    S    
Cu4   O8    S    
H60   N3    S    
C98   N6    S    
C55   H31   S    
C95   H62   S    
C3    C60   A    
H73   N6    S    
C38   C40   A    
Cu2   O10   S    
C78   C81   A    
C95   N3    S    
C19   C61   A    
C90   H39   S    
Cu1   O2    S    
C48   C50   A    
C17   C78   A    
C28   C48   A    
C29   N8    A    
C35   C62   S    
C18   H1    S    
C75   H18   S    
C28   H77   S    
C5    C89   A    
C88   H35   S    
C57   N7    A    
C37   O4    A    
C16   N14   S    
Cu3   O12   S    
C70   N6    S    
C9    C84   A    
C15   N13   S    
C20   H23   S    
C43   N9    A    
C1    C24   S    
C29   C31   A    
H55   N2    S    
Cu1   O9    S    
C95   H61   S    
C32   C39   A    
C95   H63   S    
C15   C63   A    
C29   N10   S    
Cu1   N1    S    
C70   C72   A    
C16   C64   A    
Cu4   O14   S    
C91   H44   S    
C81   C85   A    
Cu1   O16   S    
Cu2   O4    S    
