data_mof_unit_51474.cif
_audit_creation_date              2012-12-11T14:28:19-0500
_audit_creation_method            fapswitch 2.2
_symmetry_space_group_name_H-M    P1
_symmetry_Int_Tables_number       1
_space_group_crystal_system       triclinic
_cell_length_a                    11.093817
_cell_length_b                    19.059897
_cell_length_c                    18.397705
_cell_angle_alpha                 90.007821
_cell_angle_beta                  89.815492
_cell_angle_gamma                 89.705418
_cell_volume                      3890.06806896

loop_
_atom_site_label
_atom_site_type_symbol
_atom_type_description
_atom_site_fract_x
_atom_site_fract_y
_atom_site_fract_z
_atom_type_partial_charge
C1    C     C_R   0.321788 0.970275 0.647223 0.512119
C2    C     C_3   0.149572 0.752353 0.037564 -0.119294
C3    C     C_3   0.022618 0.202272 0.981187 -0.117237
C4    C     C_3   0.497591 0.291573 0.480295 -0.108287
C5    C     C_3   0.561197 0.313382 0.029760 -0.116951
C6    C     C_3   0.544700 0.686703 0.524201 -0.111266
C7    C     C_3   0.548276 0.687664 0.975004 -0.086429
C8    C     C_3   0.184283 0.823430 0.496978 -0.132887
C9    C     C_3   0.086388 0.802681 0.984584 -0.109884
C10   C     C_3   0.049986 0.196959 0.479576 -0.095041
C11   C     C_3   0.145946 0.172599 0.006115 -0.137610
C12   C     C_3   0.626674 0.284082 0.509331 -0.136626
C13   C     C_3   0.130995 0.231819 0.536574 -0.125996
C14   C     C_3   0.695255 0.310736 0.004295 -0.140858
C15   C     C_3   0.676708 0.673050 0.500087 -0.133987
C16   C     C_3   0.667054 0.706953 0.013071 -0.128014
C17   C     C_3   0.160443 0.770753 0.558604 0.049537
C18   C     C_3   0.085266 0.744570 0.927616 0.054695
C19   C     C_3   0.079031 0.256035 0.426462 0.037589
C20   C     C_3   0.154296 0.232991 0.060581 0.047117
C21   C     C_3   0.576550 0.243246 0.574430 0.046451
C22   C     C_3   0.655747 0.265522 0.940243 0.047212
C23   C     C_3   0.662483 0.729385 0.441135 0.048000
C24   C     C_3   0.212314 0.218583 0.949174 -0.141990
C25   C     C_3   0.594290 0.748828 0.069935 0.047841
C26   C     C_3   0.028093 0.765344 0.536431 -0.111224
C27   C     C_3   0.961538 0.719257 0.952204 -0.154081
C28   C     C_3   0.969891 0.299303 0.451683 -0.163479
C29   C     C_3   0.032440 0.262411 0.037018 -0.117528
C30   C     C_3   0.447522 0.251267 0.546674 -0.139297
C31   C     C_3   0.523901 0.267626 0.964584 -0.122246
C32   C     C_3   0.531867 0.742110 0.463835 -0.111860
C33   C     C_3   0.476050 0.728870 0.033488 -0.113065
C34   C     C_3   0.062313 0.702663 0.488153 -0.108937
C35   C     C_3   0.642430 0.214230 0.468656 -0.084147
C36   C     C_3   0.024870 0.668815 0.005638 -0.142344
C37   C     C_3   0.051703 0.334392 0.508945 -0.088627
C38   C     C_3   0.098969 0.307843 0.981337 -0.089920
C39   C     C_3   0.462361 0.181254 0.504324 -0.159271
C40   C     C_3   0.546055 0.200480 0.008829 -0.108395
C41   C     C_3   0.575590 0.799822 0.514859 -0.107190
C42   C     C_3   0.486165 0.796558 0.987599 -0.133777
C43   C     C_3   0.195859 0.708960 0.509637 -0.099740
C44   C     C_3   0.149817 0.694003 0.979938 -0.103167
C45   C     C_3   0.160650 0.290871 0.482984 -0.072461
C46   C     C_3   0.715196 0.243719 0.049258 -0.140929
C47   C     C_3   0.221535 0.278512 0.005637 -0.099886
C48   C     C_3   0.591829 0.173258 0.533867 -0.072220
C49   C     C_3   0.678898 0.198716 0.984039 -0.092956
C50   C     C_3   0.707665 0.786600 0.492588 -0.103993
C51   C     C_3   0.604778 0.816064 0.025211 -0.086797
C52   C     C_2   0.911324 0.040803 0.605980 0.563103
C53   C     C_2   0.890108 0.962530 0.934974 0.557636
C54   C     C_2   0.885746 0.032900 0.438281 0.532569
C55   C     C_2   0.914724 0.931997 0.107167 0.567579
C56   C     C_2   0.384649 0.463403 0.563183 0.552316
C57   C     C_3   0.720609 0.730804 0.553168 -0.136680
C58   C     C_2   0.380842 0.482747 0.933715 0.534351
C59   C     C_2   0.410471 0.457235 0.390810 0.540872
C60   C     C_2   0.402023 0.534010 0.098148 0.546324
C61   C     C_3   0.677460 0.774603 0.967845 -0.124400
C62   C     C_3   0.086117 0.753793 0.425814 0.046490
C63   C     C_3   0.025724 0.727130 0.062330 0.045163
C64   C     C_3   0.022631 0.275043 0.561935 0.046833
C65   C     C_R   0.318306 0.968957 0.853920 0.518248
C66   C     C_3   0.089616 0.247971 0.925719 0.053403
C67   C     C_3   0.514337 0.222202 0.439865 0.035812
C68   C     C_3   0.583722 0.246735 0.072823 0.051041
C69   C     C_3   0.589803 0.744981 0.574948 0.050427
C70   C     C_3   0.560556 0.755460 0.931067 0.045331
C71   C     C_R   0.320849 0.997645 0.425860 -0.035233
C72   C     C_R   0.337694 0.991580 0.078195 -0.037239
C73   C     C_R   0.336243 0.007479 0.577363 -0.041983
C74   C     C_R   0.319780 0.000771 0.926882 -0.030931
C75   C     C_R   0.836044 0.492428 0.422409 -0.040581
C76   C     C_R   0.318880 0.030498 0.353490 0.520998
C77   C     C_R   0.815521 0.476236 0.090691 -0.027039
C78   C     C_R   0.818724 0.501424 0.573787 -0.032493
C79   C     C_R   0.814186 0.473575 0.938054 -0.023462
C80   C     C_R   0.531783 0.961954 0.418721 -0.085845
C81   C     C_R   0.559117 0.011127 0.065934 -0.064563
C82   C     C_R   0.558295 0.989211 0.566611 -0.083524
C83   C     C_R   0.529407 0.034370 0.917614 -0.094877
C84   C     C_R   0.057446 0.512038 0.433694 -0.064053
C85   C     C_R   0.029024 0.455189 0.089911 -0.100142
C86   C     C_R   0.027804 0.538479 0.581526 -0.099747
C87   C     C_R   0.322227 0.029609 0.147418 0.516695
C88   C     C_R   0.028288 0.503740 0.946512 -0.126702
C89   C     C_R   0.641694 0.950218 0.452144 -0.100329
C90   C     C_R   0.655728 0.032883 0.023119 -0.066563
C91   C     C_R   0.655752 0.964936 0.525671 -0.078133
C92   C     C_R   0.640588 0.042824 0.948901 -0.118309
C93   C     C_R   0.153825 0.535978 0.475122 -0.065407
C94   C     C_R   0.134591 0.475610 0.057205 -0.080216
C95   C     C_R   0.138487 0.549310 0.548837 -0.107508
C96   C     C_R   0.129893 0.508597 0.989624 -0.104466
C97   C     C_R   0.442439 0.995062 0.535295 -0.012766
C98   C     C_R   0.818358 0.469245 0.646391 0.525670
C99   C     C_R   0.430868 0.012481 0.959640 -0.004347
C100  C     C_R   0.432087 0.985897 0.459395 -0.004635
C101  C     C_R   0.442887 0.004130 0.035522 -0.012483
C102  C     C_R   0.929336 0.514726 0.540427 -0.021780
C103  C     C_R   0.921883 0.478402 0.977378 -0.020951
C104  C     C_R   0.941122 0.505634 0.464647 -0.017720
C105  C     C_R   0.921166 0.465529 0.052715 -0.019626
C106  C     C_R   0.228084 0.024286 0.541980 -0.034756
C107  C     C_R   0.216059 0.992321 0.971217 -0.037418
C108  C     C_R   0.215663 0.005051 0.469437 -0.029744
C109  C     C_R   0.817130 0.460353 0.859033 0.527044
C110  C     C_R   0.230023 0.973507 0.043474 -0.041394
C111  C     C_R   0.714021 0.492538 0.530267 -0.026240
C112  C     C_R   0.703219 0.468267 0.977846 -0.032890
C113  C     C_R   0.727670 0.474739 0.457452 -0.032189
C114  C     C_R   0.704483 0.468888 0.053932 -0.018261
C115  C     C_R   0.126512 0.047975 0.581005 -0.105161
C116  C     C_R   0.098593 0.001135 0.944775 -0.118819
C117  C     C_R   0.098235 0.995405 0.441960 -0.115217
C118  C     C_R   0.130664 0.947783 0.082708 -0.112174
C119  C     C_R   0.595851 0.500437 0.557878 -0.102255
C120  C     C_R   0.821854 0.529681 0.352670 0.505742
C121  C     C_R   0.588790 0.459197 0.946273 -0.103177
C122  C     C_R   0.626719 0.451850 0.417930 -0.104771
C123  C     C_R   0.592376 0.467574 0.091356 -0.107559
C124  C     C_R   0.010977 0.039848 0.553279 0.056803
C125  C     C_R   0.997980 0.974045 0.981497 0.011120
C126  C     C_R   0.996458 0.017923 0.480602 -0.004852
C127  C     C_R   0.013193 0.950134 0.054724 0.024075
C128  C     C_R   0.494952 0.477243 0.519494 0.013629
C129  C     C_R   0.486743 0.483201 0.980222 0.033538
C130  C     C_R   0.509734 0.459757 0.445115 0.020187
C131  C     C_R   0.818394 0.524904 0.152869 0.517795
C132  C     C_R   0.489756 0.492188 0.055930 0.018823
C133  C     C_R   0.188405 0.773105 0.636532 0.551119
C134  C     C_R   0.131184 0.756488 0.855020 0.546666
C135  C     C_R   0.129723 0.243827 0.354509 0.540206
C136  C     C_R   0.186575 0.227547 0.136681 0.553144
C137  C     C_R   0.630089 0.256359 0.645312 0.544169
C138  C     C_R   0.686528 0.272151 0.863562 0.549235
C139  C     C_R   0.689030 0.726691 0.363059 0.553189
C140  C     C_R   0.632184 0.742760 0.144542 0.541202
C141  C     C_R   0.544751 0.767802 0.645878 0.536381
C142  C     C_3   0.218066 0.760910 0.446789 -0.137007
C143  C     C_R   0.540744 0.769263 0.855352 0.545365
C144  C     C_R   0.493216 0.210724 0.362431 0.567100
C145  C     C_R   0.542294 0.230188 0.144862 0.547972
C146  C     C_R   0.995838 0.288446 0.637635 0.561512
C147  C     C_R   0.045349 0.268032 0.853956 0.545893
C148  C     C_R   0.043254 0.731648 0.354706 0.550206
C149  C     C_R   0.997232 0.712403 0.137343 0.560356
C150  C     C_3   0.050831 0.816850 0.473399 -0.113360
C151  C     C_3   0.961366 0.777628 0.010811 -0.113021
C152  C     C_3   0.940163 0.239886 0.506546 -0.121287
Cr1   Cr    Cr6+3 0.488160 0.884660 0.750000 1.020903
Cr2   Cr    Cr6+3 0.333410 0.272740 0.250000 1.034840
Cr3   Cr    Cr6+3 0.833410 0.227260 0.750000 1.040279
Cr4   Cr    Cr6+3 0.833410 0.772740 0.250000 1.030078
Cr5   Cr    Cr6+3 0.488160 0.115340 0.250000 1.001470
Cr6   Cr    Cr6+3 0.988160 0.384660 0.750000 1.006614
Cr7   Cr    Cr6+3 0.988160 0.615340 0.250000 1.013981
Cr8   Cr    Cr6+3 0.173480 0.883120 0.750000 1.085173
Cr9   Cr    Cr6+3 0.173480 0.116880 0.250000 1.050962
Cr10  Cr    Cr6+3 0.673480 0.383120 0.750000 1.042958
Cr11  Cr    Cr6+3 0.673480 0.616880 0.250000 1.084974
Cr12  Cr    Cr6+3 0.333410 0.727260 0.750000 1.055935
H1    H     H_    0.239510 0.870973 0.504137 0.122830
H2    H     H_    0.885967 0.810998 0.029457 0.199117
H3    H     H_    0.854376 0.216963 0.524754 0.179048
H4    H     H_    0.943546 0.169181 0.969324 0.118570
H5    H     H_    0.452182 0.335534 0.454225 0.182362
H6    H     H_    0.500956 0.354195 0.051668 0.132669
H7    H     H_    0.478053 0.645833 0.538835 0.122157
H8    H     H_    0.525856 0.635564 0.951987 0.174300
H9    H     H_    0.955915 0.771343 0.577128 0.131063
H10   H     H_    0.889763 0.703346 0.913859 0.107774
H11   H     H_    0.904636 0.326340 0.415495 0.112589
H12   H     H_    0.119179 0.855066 0.969396 0.142744
H13   H     H_    0.964479 0.283748 0.075354 0.113681
H14   H     H_    0.371689 0.268446 0.581864 0.145615
H15   H     H_    0.448437 0.278787 0.926918 0.148584
H16   H     H_    0.462971 0.746368 0.421654 0.123760
H17   H     H_    0.396853 0.711335 0.064697 0.149729
H18   H     H_    0.005634 0.655316 0.482760 0.132819
H19   H     H_    0.991635 0.616607 0.021486 0.139397
H20   H     H_    0.055406 0.390261 0.524690 0.179133
H21   H     H_    0.078665 0.363218 0.968904 0.167254
H22   H     H_    0.393035 0.139882 0.499688 0.119071
H23   H     H_    0.054286 0.142782 0.460063 0.156613
H24   H     H_    0.482135 0.156115 0.012835 0.126062
H25   H     H_    0.523739 0.848864 0.522780 0.137888
H26   H     H_    0.411068 0.833273 0.974743 0.121209
H27   H     H_    0.262937 0.668335 0.524123 0.111347
H28   H     H_    0.228887 0.661340 0.964801 0.184877
H29   H     H_    0.251519 0.310925 0.471598 0.204759
H30   H     H_    0.300412 0.311128 0.019488 0.156229
H31   H     H_    0.628501 0.124086 0.556400 0.186027
H32   H     H_    0.742182 0.158452 0.965023 0.111915
H33   H     H_    0.777498 0.825862 0.479218 0.112958
H34   H     H_    0.167100 0.118175 0.022040 0.138499
H35   H     H_    0.623514 0.868694 0.047488 0.204563
H36   H     H_    0.282308 0.760915 0.401045 0.111858
H37   H     H_    0.221305 0.768274 0.075821 0.113967
H38   H     H_    0.193591 0.203312 0.573171 0.112337
H39   H     H_    0.283445 0.199325 0.911512 0.109487
H40   H     H_    0.720729 0.199424 0.434171 0.177825
H41   H     H_    0.788281 0.231081 0.087999 0.118218
H42   H     H_    0.788802 0.721522 0.595757 0.107791
H43   H     H_    0.754110 0.791277 0.933847 0.155327
H44   H     H_    0.715299 0.928200 0.421031 0.152451
H45   H     H_    0.694412 0.326638 0.512598 0.117942
H46   H     H_    0.742453 0.043120 0.047399 0.155028
H47   H     H_    0.741619 0.955494 0.551262 0.157241
H48   H     H_    0.713912 0.059576 0.914844 0.168780
H49   H     H_    0.240235 0.545556 0.449913 0.151194
H50   H     H_    0.215997 0.469762 0.087264 0.169951
H51   H     H_    0.211696 0.569444 0.580931 0.155553
H52   H     H_    0.200600 0.541428 0.971479 0.207028
H53   H     H_    0.523497 0.948678 0.361727 0.128513
H54   H     H_    0.577351 0.998845 0.122187 0.156869
H55   H     H_    0.575028 0.003442 0.622542 0.139575
H56   H     H_    0.772547 0.346497 0.000993 0.114788
H57   H     H_    0.520336 0.047446 0.860610 0.135686
H58   H     H_    0.075418 0.498308 0.377738 0.144881
H59   H     H_    0.030081 0.437874 0.146039 0.130227
H60   H     H_    0.018451 0.551421 0.638585 0.137047
H61   H     H_    0.029914 0.527778 0.893247 0.146602
H62   H     H_    0.085464 0.971648 0.389133 0.195162
H63   H     H_    0.145986 0.928130 0.137203 0.182001
H64   H     H_    0.136500 0.066975 0.636272 0.144563
H65   H     H_    0.085992 0.027267 0.893091 0.189011
H66   H     H_    0.638574 0.433222 0.362601 0.154201
H67   H     H_    0.723615 0.622934 0.489597 0.126518
H68   H     H_    0.587451 0.457022 0.149201 0.180191
H69   H     H_    0.581674 0.524473 0.610500 0.191863
H70   H     H_    0.570456 0.426838 0.899941 0.199192
H71   H     H_    0.766838 0.089010 0.647124 0.334706
H72   H     H_    0.735661 0.911526 0.915984 0.350069
H73   H     H_    0.798520 0.024142 0.342443 0.337855
H74   H     H_    0.868303 0.910109 0.211181 0.349016
H75   H     H_    0.298234 0.475770 0.659328 0.342046
H76   H     H_    0.251240 0.423580 0.888184 0.351288
H77   H     H_    0.246875 0.422584 0.361165 0.340226
H78   H     H_    0.741382 0.669756 0.025947 0.116010
H79   H     H_    0.277248 0.610842 0.098788 0.345984
H80   H     H_    0.989821 0.860089 0.456513 0.125213
O1    O     O_R   0.575450 0.828820 0.667950 -0.507618
O2    O     O_R   0.416860 0.942890 0.825320 -0.502607
O3    O     O_R   0.416860 0.057110 0.325320 -0.516039
O4    O     O_R   0.416860 0.057110 0.174680 -0.521921
O5    O     O_R   0.916860 0.442890 0.674680 -0.516575
O6    O     O_R   0.916860 0.442890 0.825320 -0.508879
O7    O     O_R   0.916860 0.557110 0.325320 -0.522830
O8    O     O_R   0.916860 0.557110 0.174680 -0.515042
O9    O     O_R   0.213790 0.953680 0.668330 -0.497265
O10   O     O_R   0.213790 0.953680 0.831670 -0.512466
O11   O     O_R   0.213790 0.046320 0.331670 -0.509342
O12   O     O_R   0.575450 0.828820 0.832050 -0.517066
O13   O     O_R   0.213790 0.046320 0.168330 -0.505407
O14   O     O_R   0.713790 0.453680 0.668330 -0.508822
O15   O     O_R   0.713790 0.453680 0.831670 -0.533380
O16   O     O_R   0.713790 0.546320 0.331670 -0.496906
O17   O     O_R   0.713790 0.546320 0.168330 -0.509723
O18   O     O_R   0.121360 0.817890 0.672660 -0.486424
O19   O     O_R   0.121360 0.817890 0.827340 -0.489953
O20   O     O_R   0.121360 0.182110 0.327340 -0.495172
O21   O     O_R   0.121360 0.182110 0.172660 -0.495817
O22   O     O_R   0.621360 0.317890 0.672660 -0.484908
O23   O     O_R   0.575450 0.171180 0.332050 -0.506240
O24   O     O_R   0.621360 0.317890 0.827340 -0.515868
O25   O     O_R   0.621360 0.682110 0.327340 -0.485430
O26   O     O_R   0.621360 0.682110 0.172660 -0.479754
O27   O     O_R   0.206850 0.711370 0.665820 -0.526621
O28   O     O_R   0.206850 0.711370 0.834180 -0.511172
O29   O     O_R   0.206850 0.288630 0.334180 -0.524269
O30   O     O_R   0.206850 0.288630 0.165820 -0.525945
O31   O     O_R   0.706850 0.211370 0.665820 -0.523786
O32   O     O_R   0.706850 0.211370 0.834180 -0.524914
O33   O     O_R   0.706850 0.788630 0.334180 -0.535900
O34   O     O_R   0.575450 0.171180 0.167950 -0.516162
O35   O     O_R   0.706850 0.788630 0.165820 -0.517466
O36   O     O_R   0.457710 0.733190 0.672630 -0.522470
O37   O     O_R   0.457710 0.733190 0.827370 -0.491980
O38   O     O_R   0.457710 0.266810 0.327370 -0.500734
O39   O     O_R   0.457710 0.266810 0.172630 -0.522200
O40   O     O_R   0.957710 0.233190 0.672630 -0.478647
O41   O     O_R   0.957710 0.233190 0.827370 -0.516803
O42   O     O_R   0.957710 0.766810 0.327370 -0.516455
O43   O     O_R   0.957710 0.766810 0.172630 -0.479152
O44   O     O_3   0.331690 0.831680 0.750000 -0.294240
O45   O     O_R   0.075450 0.328820 0.667950 -0.503132
O46   O     O_3   0.331690 0.168320 0.250000 -0.307092
O47   O     O_3   0.831690 0.331680 0.750000 -0.310540
O48   O     O_3   0.831690 0.668320 0.250000 -0.313540
O49   O     O_2   0.903357 0.993153 0.650244 -0.519350
O50   O     O_R   0.830294 0.096520 0.608180 -0.667928
O51   O     O_2   0.883434 0.991425 0.875638 -0.541322
O52   O     O_R   0.801908 0.914363 0.953715 -0.694521
O53   O     O_2   0.809412 0.073199 0.462110 -0.524193
O54   O     O_R   0.874118 0.006624 0.367587 -0.722877
O55   O     O_2   0.810306 0.927684 0.088171 -0.535234
O56   O     O_R   0.075450 0.328820 0.832050 -0.521420
O57   O     O_R   0.942048 0.921132 0.180607 -0.684080
O58   O     O_2   0.309676 0.421452 0.542496 -0.511168
O59   O     O_R   0.372715 0.492756 0.632641 -0.724387
O60   O     O_2   0.365275 0.530842 0.890634 -0.526296
O61   O     O_R   0.312911 0.421437 0.928671 -0.744236
O62   O     O_2   0.425100 0.485485 0.331728 -0.484825
O63   O     O_R   0.303514 0.421479 0.404250 -0.694028
O64   O     O_2   0.391647 0.524994 0.163734 -0.493046
O65   O     O_R   0.334923 0.586362 0.064126 -0.760364
O66   O     O_R   0.075450 0.671180 0.332050 -0.506549
O67   O     O_R   0.075450 0.671180 0.167950 -0.514704
O68   O     O_R   0.416860 0.942890 0.674680 -0.519173

loop_
_geom_bond_atom_site_label_1
_geom_bond_atom_site_label_2
_ccdc_geom_bond_type
C46   H41   S    
C6    C32   S    
C21   C137  S    
C110  C118  A    
C139  O25   A    
C64   C152  S    
C133  O27   A    
C72   C101  A    
C9    H12   S    
C76   O11   A    
C113  C122  A    
Cr8   O19   S    
Cr3   O41   S    
C117  C126  A    
C6    H7    S    
C21   C48   S    
C119  C128  A    
C98   O14   A    
C148  O42   A    
C71   C108  A    
C7    C33   S    
C14   H56   S    
Cr5   O23   S    
C11   C20   S    
C94   H50   S    
C79   C109  S    
Cr11  O26   S    
C25   C140  S    
Cr4   O35   S    
Cr10  O47   S    
C22   C31   S    
C26   H9    S    
C120  O16   A    
C137  O31   A    
C82   C91   A    
Cr8   O9    S    
C109  O15   A    
Cr2   O29   S    
C8    C150  S    
C17   C43   S    
C18   C44   S    
C42   H26   S    
C90   C92   A    
Cr1   O2    S    
Cr11  O17   S    
C111  C113  A    
C94   C96   A    
C22   C49   S    
C81   C90   A    
H77   O63   S    
C17   C133  S    
C118  H63   S    
C107  C110  A    
C36   C44   S    
C144  O23   A    
C37   C45   S    
C152  H3    S    
H73   O54   S    
C41   C69   S    
C21   C30   S    
H74   O57   S    
C16   C25   S    
C9    C151  S    
C60   C132  S    
C62   C150  S    
C64   C146  S    
C50   C57   S    
C139  O33   A    
Cr3   O32   S    
C98   O5    A    
C28   H11   S    
C8    C17   S    
C96   H52   S    
C41   H25   S    
C106  C115  A    
H72   O52   S    
Cr7   O7    S    
C44   H28   S    
C13   C45   S    
C52   C124  S    
C12   C21   S    
C84   C93   A    
C56   C128  S    
Cr5   O4    S    
C20   C47   S    
C3    C11   S    
C86   C95   A    
C83   H57   S    
Cr10  O14   S    
C121  H70   S    
C125  C127  A    
C32   H16   S    
C43   C142  S    
C69   C141  S    
C16   H78   S    
C6    C69   S    
C65   O2    A    
C134  O19   A    
C123  C132  A    
Cr6   O5    S    
C87   O13   A    
C59   O63   S    
C81   C101  A    
C31   C40   S    
C70   C143  S    
C33   C42   S    
C12   H45   S    
C56   O59   S    
C134  O28   A    
C40   C49   S    
C42   C70   S    
C111  C119  A    
C77   C131  S    
C3    C29   S    
Cr7   O48   S    
C74   C107  A    
C119  H69   S    
C82   H55   S    
C2    C44   S    
C29   C38   S    
C141  O1    A    
C5    H6    S    
C78   C111  A    
C75   C113  A    
C89   C91   A    
C54   O54   S    
Cr11  O48   S    
C135  O20   A    
C93   C95   A    
C62   C148  S    
Cr8   O18   S    
C79   C103  A    
C62   C142  S    
C27   H10   S    
C117  H62   S    
C143  O37   A    
C91   H47   S    
C80   H53   S    
C57   H42   S    
C65   C74   S    
C135  O29   A    
C46   C68   S    
C137  O22   A    
C35   C67   S    
C30   H14   S    
C103  C105  A    
C36   H19   S    
C20   C136  S    
C12   C35   S    
C19   C28   S    
Cr6   O56   S    
C53   C125  S    
H75   O59   S    
C114  C123  A    
C55   O55   D    
Cr12  O27   S    
C55   C127  S    
C116  C125  A    
C48   H31   S    
C84   C104  A    
C92   H48   S    
C4    C12   S    
C16   C61   S    
C86   C102  A    
C97   C100  A    
C146  O40   A    
C2    C63   S    
C124  C126  A    
C15   H67   S    
C108  C117  A    
C1    O68   A    
C75   C120  S    
C19   C45   S    
C40   H24   S    
C14   C22   S    
C11   H34   S    
C112  C121  A    
C84   H58   S    
C106  C108  A    
C28   C37   S    
Cr10  O24   S    
C30   C39   S    
C18   C134  S    
C107  C116  A    
C8    H1    S    
C147  O41   A    
C9    C18   S    
C118  C127  A    
H76   O61   S    
C29   H13   S    
C7    H8    S    
C2    C9    S    
Cr4   O43   S    
C58   O60   D    
C25   C33   S    
C131  O17   A    
C145  O39   A    
C61   C70   S    
C88   C96   A    
C24   H39   S    
C78   C102  A    
C149  O43   A    
C72   C87   S    
C7    C70   S    
C14   C46   S    
C54   C126  S    
C46   C49   S    
C79   C112  A    
Cr11  O25   S    
C58   O61   S    
Cr7   O66   S    
C71   C76   S    
C146  O45   A    
C35   H40   S    
C67   C144  S    
C19   C135  S    
C34   C62   S    
C13   H38   S    
Cr4   O48   S    
Cr8   O10   S    
C80   C89   A    
Cr2   O30   S    
C10   C152  S    
C39   H22   S    
C56   O58   D    
Cr1   O1    S    
C52   O49   D    
C53   O52   S    
C24   C66   S    
C129  C132  A    
C150  H80   S    
C83   C99   A    
Cr2   O39   S    
C2    H37   S    
Cr6   O47   S    
C5    C68   S    
C35   C48   S    
Cr5   O46   S    
C112  C114  A    
C50   H33   S    
C1    O9    A    
C45   H29   S    
C109  O6    A    
Cr12  O44   S    
C93   H49   S    
C26   C150  S    
Cr3   O31   S    
C60   O65   S    
C23   C50   S    
Cr10  O22   S    
C31   H15   S    
C10   C19   S    
C65   O10   A    
C85   H59   S    
C63   C151  S    
C5    C14   S    
C61   H43   S    
C7    C16   S    
Cr10  O15   S    
C33   H17   S    
C75   C104  A    
C82   C97   A    
C76   O3    A    
C77   C114  A    
C38   H21   S    
C41   C50   S    
C37   C64   S    
C27   C151  S    
C115  C124  A    
C142  H36   S    
C136  O30   A    
Cr6   O6    S    
C141  O36   A    
C121  C129  A    
C128  C130  A    
C74   C99   A    
C49   H32   S    
C27   C36   S    
C71   C100  A    
C22   C138  S    
C1    C73   S    
C23   C32   S    
C77   C105  A    
H71   O50   S    
C115  H64   S    
C13   C64   S    
C138  O24   A    
H79   O65   S    
C140  O26   A    
Cr12  O37   S    
C40   C68   S    
C8    C142  S    
C58   C129  S    
Cr6   O45   S    
C68   C145  S    
C39   C48   S    
C59   C130  S    
C116  H65   S    
C95   H51   S    
C47   H30   S    
C145  O34   A    
C51   C61   S    
C120  O7    A    
Cr4   O42   S    
C87   O4    A    
C73   C97   A    
C83   C92   A    
C17   C26   S    
C23   C139  S    
Cr7   O8    S    
C89   H44   S    
C11   C24   S    
Cr3   O40   S    
C63   C149  S    
Cr7   O67   S    
Cr5   O34   S    
C26   C34   S    
C38   C66   S    
C53   O51   D    
C78   C98   S    
C36   C63   S    
Cr1   O68   S    
C42   C51   S    
C15   C23   S    
C6    C15   S    
C43   H27   S    
C80   C100  A    
C15   C57   S    
C140  O35   A    
C86   H60   S    
C85   C105  A    
C3    H4    S    
C20   C29   S    
C133  O18   A    
C122  H66   S    
C72   C110  A    
C4    H5    S    
C123  H68   S    
Cr9   O21   S    
C90   H46   S    
C55   O57   S    
C37   H20   S    
Cr11  O16   S    
Cr2   O46   S    
C138  O32   A    
C136  O21   A    
Cr8   O44   S    
C25   C51   S    
C60   O64   D    
Cr5   O3    S    
C85   C94   A    
C88   H61   S    
C32   C41   S    
Cr1   O44   S    
C10   H23   S    
C66   C147  S    
C102  C104  A    
C54   O53   D    
C38   C47   S    
C51   H35   S    
Cr1   O12   S    
C28   C152  S    
C143  O12   A    
Cr9   O11   S    
C88   C103  A    
C131  O8    A    
C148  O66   A    
Cr9   O13   S    
C149  O67   A    
Cr3   O47   S    
C24   C47   S    
C39   C67   S    
C18   C27   S    
C10   C13   S    
C4    C67   S    
C151  H2    S    
C52   O50   S    
Cr9   O46   S    
Cr4   O33   S    
C144  O38   A    
Cr9   O20   S    
C73   C106  A    
C81   H54   S    
C122  C130  A    
C34   H18   S    
Cr12  O28   S    
Cr2   O38   S    
C3    C66   S    
C147  O56   A    
Cr12  O36   S    
C57   C69   S    
C34   C43   S    
C99   C101  A    
C59   O62   D    
C4    C30   S    
C5    C31   S    
