data_mof_unit_7288.cif
_audit_creation_date              2013-03-05T16:43:03-0500
_audit_creation_method            fapswitch 2.2
_symmetry_space_group_name_H-M    P1
_symmetry_Int_Tables_number       1
_space_group_crystal_system       triclinic
_cell_length_a                    10.914531
_cell_length_b                    10.707641
_cell_length_c                    10.025375
_cell_angle_alpha                 91.648093
_cell_angle_beta                  94.580147
_cell_angle_gamma                 93.257906
_cell_volume                      1165.3723662

loop_
_atom_site_label
_atom_site_type_symbol
_atom_site_description
_atom_site_fract_x
_atom_site_fract_y
_atom_site_fract_z
_atom_type_partial_charge
O1    O     O_R   0.500020 0.316790 0.614690 -0.612561
O2    O     O_R   0.500000 0.316760 0.385350 -0.558111
C1    C     C_R   0.514083 0.261275 0.498707 0.916023
O3    O     O_R   0.314800 0.500000 0.614670 -0.587718
O4    O     O_R   0.314790 0.499960 0.385330 -0.551002
C2    C     C_R   0.258886 0.510367 0.495448 1.042215
Zn1   Zn    Zn3+2 0.500010 0.500020 0.653130 1.119075
Zn2   Zn    Zn3+2 0.499990 0.499980 0.346870 1.093201
O5    O     O_R   0.500000 0.683240 0.614650 -0.540589
O6    O     O_R   0.499980 0.683210 0.385310 -0.623638
O7    O     O_R   0.685210 0.500040 0.614670 -0.527845
O8    O     O_R   0.685200 0.500000 0.385330 -0.632174
C3    C     C_R   0.514329 0.739059 0.502714 1.029405
C4    C     C_R   0.742123 0.496556 0.502561 0.965510
C5    C     C_3   0.078657 0.414269 0.590301 0.040903
H1    H     H_    0.120483 0.436730 0.692072 0.235618
C6    C     C_3   0.938012 0.404807 0.594399 0.186530
H2    H     H_    0.902585 0.310593 0.553679 0.186897
C7    C     C_3   0.080733 0.651530 0.541035 0.481375
C8    C     C_3   0.053835 0.469729 0.346977 0.270334
C9    C     C_3   0.122136 0.516638 0.488954 -0.433951
H3    H     H_    0.083463 0.373614 0.329659 0.218705
C10   C     C_3   0.879521 0.502522 0.500727 -0.296668
C11   C     C_3   0.934073 0.643538 0.520597 0.550238
C12   C     C_3   0.913901 0.455576 0.358749 -0.500065
H4    H     H_    0.881411 0.355720 0.338728 0.226711
H5    H     H_    0.864253 0.503816 0.276520 0.302053
C13   C     C_R   0.549906 0.070144 0.618721 0.093217
C14   C     C_R   0.550266 0.131847 0.498457 -0.270132
C15   C     C_R   0.586607 0.060985 0.386613 0.401876
C16   C     C_R   0.581161 0.930206 0.392829 -0.191030
H6    H     H_    0.598442 0.874269 0.305179 0.207224
C17   C     C_R   0.544807 0.871373 0.507206 -0.089794
C18   C     C_R   0.545546 0.943271 0.623842 0.082014
C19   C     C_3   0.469897 0.941835 0.741769 -0.374537
C20   C     C_3   0.479202 0.082983 0.737159 0.181064
H7    H     H_    0.374360 0.903006 0.717237 0.262369
H8    H     H_    0.515258 0.906927 0.835091 0.250654
H9    H     H_    0.388073 0.120283 0.711309 0.143835
C21   C     C_R   0.400741 0.451486 0.061156 0.199213
N1    N     N_R   0.499150 0.499140 0.142800 -0.156058
C22   C     C_R   0.594644 0.551069 0.085599 -0.114179
H10   H     H_    0.670805 0.591190 0.151604 0.225146
C23   C     C_R   0.592122 0.560964 0.945406 0.436467
N2    N     N_R   0.499150 0.499180 0.857150 -0.138475
C24   C     C_R   0.396455 0.460065 0.919361 0.060826
C25   C     C_3   0.330503 0.335803 0.898711 -0.452544
C26   C     C_3   0.360323 0.316130 0.046028 0.237581
H11   H     H_    0.230834 0.343379 0.870210 0.259069
H12   H     H_    0.376787 0.277152 0.831679 0.227127
H13   H     H_    0.439631 0.258134 0.064879 0.233739
S1    S     S_3+6 0.145582 0.788160 0.457963 0.140188
O9    O     O_2   0.279797 0.806683 0.498842 -0.375390
O10   O     O_2   0.130169 0.784151 0.308815 -0.159691
O11   O     O_3   0.077866 0.916332 0.509705 -0.406010
H14   H     H_    0.132436 0.988001 0.485778 0.414292
Cl1   Cl    Cl    0.871595 0.731852 0.382232 -0.430392
S2    S     S_3+6 0.630419 0.115924 0.232173 0.086798
O12   O     O_2   0.650748 0.255233 0.225225 -0.266305
O13   O     O_2   0.747679 0.057864 0.201338 -0.184054
O14   O     O_3   0.517339 0.061260 0.118295 -0.517012
H15   H     H_    0.538088 0.975232 0.093453 0.381825
Cl2   Cl    Cl    0.582330 0.157751 0.866371 -0.470430
Cl3   Cl    Cl    0.132929 0.260954 0.557306 -0.603020
S3    S     S_3+6 0.705777 0.674873 0.908500 0.111402
O15   O     O_2   0.731577 0.766195 0.025961 -0.286313
O16   O     O_2   0.821950 0.611623 0.890389 -0.118692
O17   O     O_3   0.665370 0.759134 0.778231 -0.531866
H16   H     H_    0.710602 0.841537 0.796975 0.413455
Cl4   Cl    Cl    0.234655 0.265004 0.136517 -0.415489
Cl5   Cl    Cl    0.892668 0.395769 0.760996 -0.358110
S4    S     S_3+6 0.136914 0.691844 0.719755 0.092296
O18   O     O_2   0.274072 0.689003 0.743888 -0.323074
O19   O     O_2   0.107216 0.823559 0.755238 -0.135841
O20   O     O_3   0.071864 0.600522 0.830810 -0.479442
H17   H     H_    0.140728 0.578005 0.894208 0.394693
Cl6   Cl    Cl    0.869708 0.725902 0.648433 -0.363109
S5    S     S_3+6 0.079904 0.539380 0.186344 0.112460
O21   O     O_2   0.209765 0.590972 0.178507 -0.264453
O22   O     O_2   0.051471 0.438341 0.079641 -0.200184
O23   O     O_3   0.982539 0.651355 0.146967 -0.414643
H18   H     H_    0.016366 0.694225 0.070525 0.440970

loop_
_geom_bond_atom_site_label_1
_geom_bond_atom_site_label_2
_geom_bond_distance
_ccdc_geom_bond_type
O11   H14   0.991285 S    
N1    C22   1.331275 A    
C19   C20   1.511289 S    
O23   H18   0.990202 S    
C23   S3    1.758022 S    
C25   H11   1.110555 S    
N2    C24   1.376249 A    
C23   N2    1.413113 A    
Zn1   O7    2.087830 S    
C6    C10   1.555918 S    
Zn1   N2    2.046424 S    
C13   C14   1.391590 A    
C19   H7    1.106592 S    
S4    O20   1.676250 S    
C15   C16   1.401608 A    
O7    C4    1.327484 A    
S5    O22   1.501123 D    
C8    C12   1.540487 S    
S2    O13   1.504188 D    
C5    H1    1.098304 S    
C5    C6    1.536574 S    
C18   C19   1.495076 S    
C1    C14   1.462452 S    
C21   C26   1.490701 S    
O5    C3    1.302697 A    
C7    S1    1.838869 S    
C26   H13   1.101079 S    
C25   C26   1.510133 S    
O17   H16   0.991817 S    
S3    O16   1.492221 D    
C5    Cl3   1.807182 S    
C16   C17   1.398201 A    
C20   Cl2   1.786331 S    
S1    O11   1.683583 S    
S2    O14   1.680389 S    
C13   C18   1.359226 A    
C7    S4    1.876863 S    
C22   C23   1.410714 A    
O3    Zn1   2.027442 S    
S1    O10   1.490390 D    
C17   C18   1.380601 A    
C25   H12   1.080376 S    
C19   H8    1.107846 S    
Zn2   N1    2.044925 S    
S4    O19   1.504074 D    
S5    O21   1.500526 D    
C11   Cl1   1.811385 S    
C12   H4    1.114661 S    
C2    C9    1.494192 S    
O1    C1    1.314559 A    
C4    C10   1.498973 S    
C21   C24   1.424364 A    
O20   H17   0.990026 S    
C3    C17   1.435370 S    
C14   C15   1.430600 A    
C16   H6    1.084210 S    
O8    C4    1.287294 A    
Zn2   O8    2.027440 S    
S3    O17   1.653837 S    
C6    H2    1.113836 S    
O3    C2    1.308510 A    
C21   N1    1.362816 A    
C8    H3    1.109237 S    
C6    Cl5   1.783180 S    
C22   H10   1.081037 S    
S1    O9    1.489843 D    
Zn1   O5    2.010284 S    
C24   C25   1.477462 S    
C7    C9    1.622202 S    
O1    Zn1   1.988553 S    
C20   H9    1.107212 S    
O2    Zn2   2.010284 S    
C26   Cl4   1.773666 S    
S4    O18   1.499424 D    
O6    C3    1.298825 A    
O4    Zn2   2.087833 S    
C12   H5    1.106810 S    
C8    S5    1.829954 S    
O2    C1    1.299781 A    
S2    O12   1.499996 D    
S5    O23   1.681595 S    
O4    C2    1.308326 A    
C15   S2    1.763708 S    
C7    C11   1.594575 S    
C10   C12   1.576419 S    
O14   H15   0.990635 S    
C10   C11   1.592387 S    
C11   Cl6   1.750154 S    
C5    C9    1.594042 S    
C8    C9    1.606502 S    
C13   C20   1.474216 S    
Zn2   O6    1.988554 S    
S3    O15   1.507216 D    
