data_mof_unit_47581.cif
_audit_creation_date              2012-12-10T16:52:38-0500
_audit_creation_method            fapswitch 2.2
_symmetry_space_group_name_H-M    P1
_symmetry_Int_Tables_number       1
_space_group_crystal_system       triclinic
_cell_length_a                    7.839835
_cell_length_b                    8.569238
_cell_length_c                    13.79345
_cell_angle_alpha                 93.312776
_cell_angle_beta                  93.175235
_cell_angle_gamma                 94.246098
_cell_volume                      920.917310546

loop_
_atom_site_label
_atom_site_type_symbol
_atom_type_description
_atom_site_fract_x
_atom_site_fract_y
_atom_site_fract_z
_atom_type_partial_charge
C1    C     C_R   0.045202 0.794685 0.497621 0.965849
C2    C     C_R   0.936896 0.489121 0.317988 0.867815
C3    C     C_R   0.100637 0.547363 0.785362 -0.069114
C4    C     C_R   0.907545 0.482065 0.212964 -0.058696
C5    C     C_R   0.079940 0.714868 0.930304 -0.191255
C6    C     C_R   0.966091 0.379209 0.052796 -0.189871
C7    C     C_R   0.013928 0.657879 0.838106 -0.189969
C8    C     C_R   0.014199 0.404388 0.151404 -0.194832
C9    C     C_R   0.247718 0.490562 0.825552 -0.278076
C10   C     C_R   0.762116 0.545601 0.175143 -0.275375
C11   C     C_R   0.326962 0.559217 0.912069 0.091660
C12   C     C_R   0.954816 0.205322 0.502452 0.964555
C13   C     C_R   0.711863 0.523520 0.076512 0.087233
C14   C     C_R   0.237640 0.668292 0.966984 0.174217
C15   C     C_R   0.812238 0.432814 0.015772 0.179708
C16   C     C_R   0.492880 0.522874 0.944466 0.062470
C17   C     C_R   0.557315 0.578607 0.038876 0.062523
C18   C     C_R   0.465280 0.687292 0.092393 -0.230456
C19   C     C_R   0.598352 0.436653 0.884428 -0.236633
C20   C     C_R   0.308628 0.731919 0.056425 -0.225605
C21   C     C_R   0.755949 0.393700 0.919616 -0.222258
C22   C     C_2   0.068665 0.958458 0.496262 -0.385365
C23   C     C_2   0.931378 0.041555 0.503910 -0.387930
C24   C     C_R   0.063768 0.513867 0.681892 0.866319
H1    H     H_    0.242911 0.816720 0.098835 0.146564
H2    H     H_    0.512900 0.625525 0.572371 0.189506
H3    H     H_    0.514356 0.745174 0.160808 0.148085
H4    H     H_    0.565130 0.404491 0.808670 0.157098
H5    H     H_    0.197954 0.010050 0.488962 0.179007
H6    H     H_    0.802093 0.989963 0.511219 0.179176
H7    H     H_    0.832484 0.326721 0.871799 0.149891
H8    H     H_    0.683417 0.602945 0.225637 0.159070
H9    H     H_    0.301748 0.396612 0.785113 0.149541
H10   H     H_    0.129213 0.356436 0.180140 0.157845
H11   H     H_    0.899314 0.703488 0.806979 0.159605
H12   H     H_    0.011637 0.799620 0.971097 0.138365
H13   H     H_    0.045661 0.313277 0.006264 0.140713
H14   H     H_    0.487104 0.374432 0.427664 0.188740
N1    N     N_2   0.440860 0.456490 0.474790 -0.173900
N2    N     N_2   0.559140 0.543510 0.525210 -0.174630
O1    O     O_R   0.891570 0.738930 0.506190 -0.611940
O2    O     O_R   0.108430 0.261070 0.493810 -0.611465
O3    O     O_R   0.174650 0.711050 0.490030 -0.624246
O4    O     O_R   0.825350 0.288950 0.509970 -0.625063
O5    O     O_R   0.909850 0.521900 0.644940 -0.618940
O6    O     O_R   0.090150 0.478100 0.355060 -0.615903
O7    O     O_R   0.192930 0.494020 0.628780 -0.616972
O8    O     O_R   0.807070 0.505980 0.371220 -0.622110
Zn1   Zn    Zn3+2 0.810990 0.518620 0.510790 0.930691
Zn2   Zn    Zn3+2 0.189010 0.481380 0.489210 0.934360

loop_
_geom_bond_atom_site_label_1
_geom_bond_atom_site_label_2
_ccdc_geom_bond_type
O4    Zn1   S    
C2    C4    S    
C5    H12   S    
O3    Zn2   S    
C3    C9    A    
C22   H5    S    
O5    Zn1   S    
C9    C11   A    
C11   C16   A    
O6    Zn2   S    
C18   C20   A    
C13   C17   A    
C4    C8    A    
C17   C18   A    
C5    C14   A    
C6    H13   S    
C1    C22   S    
C12   O4    A    
C8    H10   S    
C2    O6    A    
C9    H9    S    
C19   H4    S    
C21   H7    S    
C12   C23   S    
H2    N2    S    
C3    C24   S    
O2    Zn2   S    
C16   C19   A    
C6    C8    A    
C24   O5    A    
O1    Zn1   S    
O8    Zn1   S    
C19   C21   A    
O7    Zn2   S    
C3    C7    A    
C13   C15   A    
H14   N1    S    
C11   C14   A    
C20   H1    S    
C4    C10   A    
N2    Zn1   S    
C23   H6    S    
C10   H8    S    
C15   C21   A    
N1    Zn2   S    
C14   C20   A    
C1    O1    A    
N1    N2    D    
C5    C7    A    
C22   C23   D    
C12   O2    A    
C2    O8    A    
C6    C15   A    
C24   O7    A    
C7    H11   S    
C1    O3    A    
C18   H3    S    
C16   C17   A    
C10   C13   A    
