data_mof_unit_35996.cif
_audit_creation_date              2012-12-10T20:27:16-0500
_audit_creation_method            fapswitch 2.2
_symmetry_space_group_name_H-M    P1
_symmetry_Int_Tables_number       1
_space_group_crystal_system       triclinic
_cell_length_a                    10.770392
_cell_length_b                    10.684675
_cell_length_c                    9.904247
_cell_angle_alpha                 89.625742
_cell_angle_beta                  103.664932
_cell_angle_gamma                 90.778297
_cell_volume                      1107.39141976

loop_
_atom_site_label
_atom_site_type_symbol
_atom_type_description
_atom_site_fract_x
_atom_site_fract_y
_atom_site_fract_z
_atom_type_partial_charge
C1    C     C_R   0.503585 0.260147 0.501262 0.879460
C2    C     C_R   0.522734 0.128893 0.507253 -0.080716
C3    C     C_R   0.551716 0.066201 0.394658 -0.220852
C4    C     C_R   0.551119 0.936742 0.394060 -0.185990
C5    C     C_R   0.522012 0.871711 0.506256 -0.136496
C6    C     C_R   0.516612 0.935359 0.626944 0.042031
C7    C     C_3   0.418857 0.927437 0.712634 0.292760
C8    C     C_3   0.419440 0.069686 0.713127 -0.550535
C9    C     C_R   0.438951 0.406687 0.056102 0.104503
C10   C     C_R   0.569968 0.586441 0.086808 0.463728
C11   C     C_R   0.568537 0.585934 0.943597 -0.049209
C12   C     C_R   0.259201 0.504080 0.442119 0.939531
C13   C     C_R   0.439761 0.406190 0.914099 0.102252
C14   C     C_3   0.301467 0.371702 0.871693 -0.510640
C15   C     C_3   0.299991 0.373216 0.024823 0.236380
C16   C     C_R   0.503438 0.739954 0.500630 0.867727
C17   C     C_R   0.740975 0.504371 0.557774 0.929486
C18   C     C_2   0.122893 0.519916 0.409238 -0.352942
C19   C     C_2   0.068548 0.552647 0.510949 -0.164843
C20   C     C_2   0.877694 0.521587 0.589902 -0.363361
C21   C     C_2   0.932375 0.550631 0.486364 -0.145702
C22   C     C_R   0.516254 0.063234 0.627165 0.054346
H1    H     H_    0.877268 0.561863 0.379843 0.194203
H2    H     H_    0.459860 0.112060 0.816702 0.213983
H3    H     H_    0.622465 0.656198 0.901699 0.176810
H4    H     H_    0.242936 0.446052 0.809267 0.230694
H5    H     H_    0.285652 0.276703 0.825596 0.161999
H6    H     H_    0.280356 0.280815 0.068667 0.093515
H7    H     H_    0.123957 0.570116 0.616175 0.189117
H8    H     H_    0.933456 0.509483 0.695968 0.155344
H9    H     H_    0.067004 0.502835 0.304104 0.164743
H10   H     H_    0.566280 0.116076 0.303947 0.171121
H11   H     H_    0.565169 0.888643 0.303018 0.210575
H12   H     H_    0.326551 0.884295 0.656913 0.134927
N1    N     N_R   0.499160 0.499140 0.142600 -0.137664
N2    N     N_R   0.499160 0.499180 0.856960 -0.132006
O1    O     O_R   0.500020 0.316790 0.614700 -0.606298
O2    O     O_R   0.500000 0.316760 0.385350 -0.634388
O3    O     O_R   0.317820 0.500020 0.571850 -0.620356
O4    O     O_R   0.317800 0.499980 0.342510 -0.550407
O5    O     O_R   0.500000 0.683240 0.614650 -0.601387
O6    O     O_R   0.499980 0.683210 0.385300 -0.619844
O7    O     O_R   0.682200 0.500020 0.657490 -0.618220
O8    O     O_R   0.682180 0.499980 0.428150 -0.652686
Zn1   Zn    Zn3+2 0.500010 0.500020 0.653140 0.959573
Zn2   Zn    Zn3+2 0.499990 0.499980 0.346860 0.980288
O9    O     O_3   0.642290 0.678987 0.164863 -0.796207
H13   H     H_    0.656201 0.656071 0.263045 0.372569
O10   O     O_3   0.226485 0.471233 0.056230 -0.709842
H14   H     H_    0.136801 0.440065 0.032712 0.323178
O11   O     O_3   0.466422 0.874511 0.845069 -0.725218
H15   H     H_    0.552890 0.910183 0.885047 0.345678
H16   H     H_    0.327516 0.110092 0.655046 0.175288

loop_
_geom_bond_atom_site_label_1
_geom_bond_atom_site_label_2
_ccdc_geom_bond_type
C8    H16   S    
C2    C22   A    
C8    C22   S    
C17   O7    A    
C12   O4    A    
C6    C7    S    
C14   H5    S    
O9    H13   S    
C1    O1    A    
O3    Zn1   S    
C12   O3    A    
C21   H1    S    
C2    C3    A    
C9    C15   S    
C17   O8    A    
C7    O11   S    
N2    Zn1   S    
C20   H8    S    
C13   C14   S    
C14   H4    S    
O4    Zn2   S    
O7    Zn1   S    
C15   H6    S    
C5    C6    A    
C1    O2    A    
C11   N2    A    
C19   C21   S    
O8    Zn2   S    
C1    C2    S    
C15   O10   S    
C3    H10   S    
C7    H12   S    
O2    Zn2   S    
C10   C11   A    
C11   H3    S    
O1    Zn1   S    
C3    C4    A    
C6    C22   A    
C16   O6    A    
C7    C8    S    
C17   C20   S    
C20   C21   D    
C10   N1    A    
C13   N2    A    
O10   H14   S    
O6    Zn2   S    
C12   C18   S    
C10   O9    S    
C9    N1    A    
C9    C13   A    
C14   C15   S    
C18   C19   D    
C5    C16   S    
O5    Zn1   S    
C18   H9    S    
C8    H2    S    
C4    H11   S    
N1    Zn2   S    
C16   O5    A    
O11   H15   S    
C4    C5    A    
C19   H7    S    
