data_mof_unit_52527.cif
_audit_creation_date              2012-12-10T16:51:17-0500
_audit_creation_method            fapswitch 2.2
_symmetry_space_group_name_H-M    P1
_symmetry_Int_Tables_number       1
_space_group_crystal_system       triclinic
_cell_length_a                    27.777621
_cell_length_b                    8.717509
_cell_length_c                    7.418307
_cell_angle_alpha                 102.473729
_cell_angle_beta                  94.01477
_cell_angle_gamma                 92.439372
_cell_volume                      1746.57734086

loop_
_atom_site_label
_atom_site_type_symbol
_atom_type_description
_atom_site_fract_x
_atom_site_fract_y
_atom_site_fract_z
_atom_type_partial_charge
C1    C     C_R   0.497780 0.200323 0.454826 0.876469
C2    C     C_R   0.502220 0.799677 0.545174 0.876462
C3    C     C_R   0.102264 0.498889 0.515601 -0.042850
C4    C     C_R   0.897737 0.501303 0.484499 -0.042865
C5    C     C_R   0.125232 0.355673 0.480006 -0.021659
C6    C     C_R   0.874768 0.644521 0.519979 -0.021667
C7    C     C_R   0.097370 0.213789 0.439379 -0.150467
C8    C     C_R   0.902629 0.786409 0.560497 -0.150430
C9    C     C_R   0.130773 0.641518 0.557868 -0.023316
C10   C     C_R   0.869229 0.358670 0.442328 -0.023324
C11   C     C_R   0.354645 0.499216 0.509109 -0.030386
C12   C     C_R   0.645356 0.500815 0.490899 -0.030350
C13   C     C_R   0.971526 0.354778 0.456345 0.044027
C14   C     C_R   0.028476 0.645413 0.543826 0.044009
C15   C     C_R   0.977171 0.646031 0.535037 0.045215
C16   C     C_R   0.022830 0.354163 0.465035 0.045206
C17   C     C_R   0.949044 0.500704 0.491864 0.068730
C18   C     C_R   0.050957 0.499488 0.508252 0.068743
C19   C     C_R   0.941575 0.213913 0.412705 -0.214866
C20   C     C_R   0.058428 0.786272 0.587628 -0.214904
C21   C     C_R   0.891579 0.216232 0.406179 -0.142164
C22   C     C_R   0.108424 0.783952 0.594151 -0.142187
C23   C     C_R   0.407485 0.499767 0.502795 0.806956
C24   C     C_R   0.592515 0.500235 0.497205 0.806969
C25   C     C_R   0.047304 0.212635 0.432174 -0.213245
C26   C     C_R   0.952695 0.787562 0.567733 -0.213195
C27   C     C_2   0.490082 0.034973 0.435112 0.091812
C28   C     C_2   0.509918 0.965027 0.564887 0.091808
C29   C     C_R   0.175854 0.357785 0.484759 0.537023
C30   C     C_R   0.824145 0.642407 0.515213 0.537064
C31   C     C_R   0.181292 0.638335 0.561494 0.542279
C32   C     C_R   0.818711 0.361854 0.438674 0.542294
C33   C     C_R   0.283696 0.520052 0.684568 -0.092704
C34   C     C_R   0.725525 0.523732 0.650388 -0.099788
C35   C     C_R   0.333803 0.520652 0.679552 -0.192038
C36   C     C_R   0.675502 0.522580 0.655838 -0.174693
C37   C     C_R   0.324493 0.476821 0.344132 -0.174793
C38   C     C_R   0.666207 0.480076 0.320525 -0.191910
C39   C     C_R   0.274471 0.475739 0.349604 -0.099715
C40   C     C_R   0.716316 0.480755 0.315539 -0.092632
C41   C     C_R   0.254008 0.497459 0.519595 0.356890
C42   C     C_R   0.745995 0.502722 0.480471 0.357030
Cu1   Cu    Cu3+1 0.505380 0.517380 0.684380 1.042639
Cu2   Cu    Cu3+1 0.494620 0.482620 0.315620 1.042650
H1    H     H_    0.339473 0.459978 0.210815 0.165040
H2    H     H_    0.643881 0.463094 0.191303 0.171123
H3    H     H_    0.462435 0.378294 0.948526 0.238231
H4    H     H_    0.537565 0.621706 0.051474 0.238216
H5    H     H_    0.251533 0.458625 0.221847 0.137634
H6    H     H_    0.732116 0.464416 0.183839 0.138111
H7    H     H_    0.114177 0.102071 0.412101 0.186492
H8    H     H_    0.885821 0.898129 0.587655 0.186428
H9    H     H_    0.660516 0.538849 0.789102 0.165006
H10   H     H_    0.356135 0.538143 0.808797 0.171354
H11   H     H_    0.748459 0.540359 0.778112 0.137496
H12   H     H_    0.267903 0.536938 0.816315 0.138315
H13   H     H_    0.870441 0.104962 0.372710 0.193367
H14   H     H_    0.129563 0.895219 0.627731 0.193394
H15   H     H_    0.955305 0.098489 0.382166 0.137872
H16   H     H_    0.044699 0.901690 0.618344 0.137952
H17   H     H_    0.029087 0.097569 0.399910 0.134968
H18   H     H_    0.970912 0.902634 0.599842 0.134894
N1    N     N_R   0.202616 0.497823 0.524013 -0.474220
N2    N     N_R   0.797386 0.502367 0.476050 -0.474253
N3    N     N_2   0.486510 0.456430 0.038510 -0.185436
N4    N     N_2   0.513490 0.543570 0.961490 -0.185442
O1    O     O_R   0.503500 0.286120 0.619780 -0.565437
O2    O     O_R   0.496500 0.713880 0.380220 -0.565435
O3    O     O_R   0.494410 0.256780 0.308360 -0.536086
O4    O     O_R   0.505590 0.743220 0.691640 -0.536091
O5    O     O_R   0.434810 0.514700 0.655690 -0.598765
O6    O     O_R   0.565190 0.485300 0.344310 -0.598742
O7    O     O_R   0.425720 0.485350 0.344280 -0.575240
O8    O     O_R   0.574280 0.514650 0.655720 -0.575252
O9    O     O_2   0.198206 0.221218 0.450011 -0.509376
O10   O     O_2   0.801790 0.778972 0.549877 -0.509310
O11   O     O_2   0.791096 0.225805 0.399955 -0.503517
O12   O     O_2   0.208907 0.774384 0.600265 -0.503597
Cl1   Cl    Cl    0.447909 0.939696 0.248957 -0.568946
Cl2   Cl    Cl    0.552091 0.060304 0.751043 -0.568879

loop_
_geom_bond_atom_site_label_1
_geom_bond_atom_site_label_2
_ccdc_geom_bond_type
C29   N1    A    
C30   N2    A    
C8    C26   A    
C14   C18   A    
C34   C42   A    
C39   C41   A    
C3    C18   A    
C19   C21   A    
C2    O2    A    
C9    C22   A    
C14   C20   A    
C11   C37   A    
C36   H9    S    
C1    O1    A    
C32   O11   S    
C12   C36   A    
C8    H8    S    
C33   H12   S    
C40   C42   A    
C34   H11   S    
C35   H10   S    
Cu2   N3    S    
C23   O7    A    
C5    C29   A    
C10   C21   A    
C13   C19   A    
C31   N1    A    
C32   N2    A    
C4    C6    A    
C5    C7    A    
C15   C26   A    
C6    C8    A    
C19   H15   S    
C1    O3    A    
Cu1   Cu2   S    
C21   H13   S    
C3    C9    A    
C23   O5    A    
C30   O10   S    
Cu2   O3    S    
C25   H17   S    
C4    C17   A    
C16   C18   A    
C39   H5    S    
C20   C22   A    
Cu1   O4    S    
Cu2   O2    S    
C20   H16   S    
C41   N1    S    
C4    C10   A    
C42   N2    S    
C24   O6    A    
C31   O12   S    
C16   C25   A    
C15   C17   A    
Cu1   O5    S    
C6    C30   A    
C3    C5    A    
C22   H14   S    
C29   O9    S    
C12   C24   S    
C27   Cl1   S    
C7    C25   A    
C13   C17   A    
C33   C41   A    
C11   C35   A    
C26   H18   S    
C7    H7    S    
C37   C39   A    
C38   C40   A    
C24   O8    A    
Cu1   O8    S    
Cu1   N4    S    
C40   H6    S    
C11   C23   S    
C33   C35   A    
Cu2   O6    S    
C34   C36   A    
C12   C38   A    
Cu2   O7    S    
C28   Cl2   S    
C38   H2    S    
C9    C31   A    
C10   C32   A    
Cu1   O1    S    
N3    N4    D    
C13   C16   A    
C27   C28   D    
C1    C27   S    
C14   C15   A    
C2    C28   S    
H4    N4    S    
C2    O4    A    
C37   H1    S    
H3    N3    S    
