data_mof_unit_11972.cif
_audit_creation_date              2012-12-10T16:33:55-0500
_audit_creation_method            fapswitch 2.2
_symmetry_space_group_name_H-M    P1
_symmetry_Int_Tables_number       1
_space_group_crystal_system       monoclinic
_cell_length_a                    28.178646
_cell_length_b                    18.51541
_cell_length_c                    17.054451
_cell_angle_alpha                 90.0
_cell_angle_beta                  60.882947
_cell_angle_gamma                 90.0
_cell_volume                      7773.51538685

loop_
_atom_site_label
_atom_site_type_symbol
_atom_type_description
_atom_site_fract_x
_atom_site_fract_y
_atom_site_fract_z
_atom_type_partial_charge
C1    C     C_R   0.701516 0.268106 0.676034 0.962988
C2    C     C_R   0.298433 0.731807 0.324002 0.950353
C3    C     C_R   0.298517 0.268042 0.323950 0.989501
C4    C     C_R   0.701507 0.731909 0.676041 0.967709
C5    C     C_R   0.201483 0.768042 0.676050 0.989501
C6    C     C_R   0.798493 0.231909 0.323959 0.967709
C7    C     C_R   0.798484 0.768106 0.323966 0.962988
C8    C     C_R   0.201567 0.231807 0.675998 0.950353
C9    C     C_R   0.036707 0.377903 0.524589 0.422051
C10   C     C_R   0.984692 0.623479 0.381942 0.521280
C11   C     C_R   0.974347 0.369452 0.422288 0.438095
C12   C     C_R   0.076193 0.628249 0.428452 0.502381
C13   C     C_R   0.525653 0.869452 0.577712 0.438095
C14   C     C_R   0.423807 0.128249 0.571548 0.502381
C15   C     C_R   0.463293 0.877903 0.475411 0.422052
C16   C     C_R   0.515308 0.123479 0.618058 0.521280
C17   C     C_R   0.721505 0.264367 0.952280 -0.135686
C18   C     C_R   0.278003 0.734870 0.048211 -0.136239
C19   C     C_R   0.279093 0.263435 0.047126 -0.138732
C20   C     C_R   0.721303 0.735926 0.952491 -0.136423
C21   C     C_R   0.220907 0.763436 0.952874 -0.138732
C22   C     C_R   0.778697 0.235926 0.047509 -0.136423
C23   C     C_R   0.778495 0.764367 0.047719 -0.135686
C24   C     C_R   0.221997 0.234870 0.951789 -0.136239
C25   C     C_R   0.775842 0.287149 0.916927 0.270623
C26   C     C_R   0.223439 0.712913 0.084076 0.268356
C27   C     C_R   0.224579 0.285529 0.082847 0.270342
C28   C     C_R   0.775627 0.713108 0.917172 0.269297
C29   C     C_R   0.275421 0.785529 0.917153 0.270342
C30   C     C_R   0.724373 0.213108 0.082828 0.269296
C31   C     C_R   0.724158 0.787149 0.083073 0.270624
C32   C     C_R   0.276561 0.212914 0.915924 0.268356
C33   C     C_R   0.804095 0.272723 0.964821 0.531827
C34   C     C_R   0.195253 0.727341 0.036074 0.536302
C35   C     C_R   0.196385 0.271042 0.034906 0.531976
C36   C     C_R   0.803884 0.727552 0.965049 0.530093
C37   C     C_R   0.303615 0.771042 0.965094 0.531977
C38   C     C_R   0.696116 0.227552 0.034951 0.530092
C39   C     C_R   0.695905 0.772723 0.035179 0.531827
C40   C     C_R   0.304747 0.227341 0.963925 0.536302
C41   C     C_R   0.643799 0.325666 0.946419 0.622437
C42   C     C_R   0.355738 0.673596 0.054011 0.623226
C43   C     C_R   0.356544 0.325159 0.053302 0.620654
C44   C     C_R   0.643647 0.674560 0.946556 0.623379
C45   C     C_R   0.143456 0.825160 0.946698 0.620655
C46   C     C_R   0.856352 0.174560 0.053443 0.623379
C47   C     C_R   0.856201 0.825666 0.053581 0.622437
C48   C     C_R   0.144262 0.173596 0.945989 0.623226
C49   C     C_R   0.615444 0.344983 0.899875 -0.358534
C50   C     C_R   0.384290 0.654633 0.100340 -0.363961
C51   C     C_R   0.384692 0.344825 0.100054 -0.362529
C52   C     C_R   0.615375 0.655105 0.899925 -0.361326
C53   C     C_R   0.115308 0.844825 0.899946 -0.362529
C54   C     C_R   0.884625 0.155105 0.100074 -0.361326
C55   C     C_R   0.884556 0.844983 0.100125 -0.358534
C56   C     C_R   0.115710 0.154633 0.899660 -0.363961
C57   C     C_R   0.630471 0.316946 0.816127 0.515150
C58   C     C_R   0.369332 0.682788 0.183987 0.521651
C59   C     C_R   0.369575 0.316975 0.183921 0.522840
C60   C     C_R   0.630445 0.683064 0.816125 0.519721
C61   C     C_R   0.130425 0.816975 0.816079 0.522841
C62   C     C_R   0.869555 0.183064 0.183875 0.519721
C63   C     C_R   0.869529 0.816946 0.183873 0.515151
C64   C     C_R   0.130667 0.182788 0.816013 0.521651
C65   C     C_R   0.678616 0.279643 0.771658 -0.223440
C66   C     C_R   0.321164 0.720007 0.228508 -0.218615
C67   C     C_R   0.321533 0.279429 0.228254 -0.230638
C68   C     C_R   0.678564 0.720430 0.771695 -0.225471
C69   C     C_R   0.178466 0.779428 0.771746 -0.230638
C70   C     C_R   0.821436 0.220430 0.228305 -0.225471
C71   C     C_R   0.821384 0.779643 0.228342 -0.223440
C72   C     C_R   0.178835 0.220007 0.771492 -0.218615
C73   C     C_R   0.707914 0.260037 0.816481 -0.293748
C74   C     C_R   0.291703 0.739340 0.183881 -0.305117
C75   C     C_R   0.292471 0.259402 0.183182 -0.295250
C76   C     C_R   0.707787 0.740162 0.816603 -0.293193
C77   C     C_R   0.207529 0.759402 0.816818 -0.295249
C78   C     C_R   0.792212 0.240163 0.183397 -0.293193
C79   C     C_R   0.792086 0.760037 0.183519 -0.293748
C80   C     C_R   0.208296 0.239340 0.816119 -0.305117
C81   C     C_R   0.690006 0.281902 0.905089 0.127527
C82   C     C_R   0.309495 0.717294 0.095389 0.129145
C83   C     C_R   0.310474 0.281138 0.094474 0.128429
C84   C     C_R   0.689829 0.718371 0.905261 0.127325
C85   C     C_R   0.189525 0.781138 0.905526 0.128428
C86   C     C_R   0.810171 0.218371 0.094739 0.127326
C87   C     C_R   0.809994 0.781902 0.094911 0.127527
C88   C     C_R   0.190505 0.217294 0.904611 0.129144
C89   C     C_R   0.691300 0.129385 0.535194 0.875039
C90   C     C_R   0.307872 0.871364 0.469632 0.879493
C91   C     C_R   0.302347 0.128164 0.485764 0.890919
C92   C     C_R   0.691729 0.870644 0.533774 0.878891
C93   C     C_R   0.197653 0.628165 0.514236 0.890919
C94   C     C_R   0.808271 0.370644 0.466226 0.878891
C95   C     C_R   0.808700 0.629385 0.464806 0.875039
C96   C     C_R   0.192127 0.371364 0.530368 0.879493
C97   C     C_R   0.073677 0.100273 0.934439 0.967527
C98   C     C_R   0.926414 0.899611 0.065480 0.967308
C99   C     C_R   0.926435 0.100413 0.065462 0.968423
C100  C     C_R   0.073560 0.899590 0.934535 0.965853
C101  C     C_R   0.573565 0.600413 0.934538 0.968423
C102  C     C_R   0.426439 0.399590 0.065465 0.965853
C103  C     C_R   0.426323 0.600273 0.065560 0.967527
C104  C     C_R   0.573586 0.399611 0.934520 0.967308
C105  C     C_R   0.528717 0.999716 0.568270 -0.081304
C106  C     C_R   0.439755 0.000093 0.535948 -0.074520
C107  C     C_R   0.060245 0.500093 0.464052 -0.074520
C108  C     C_R   0.971283 0.499716 0.431730 -0.081304
C109  C     C_R   0.499296 0.064615 0.582138 0.042496
C110  C     C_R   0.469719 0.935952 0.524364 -0.074293
C111  C     C_R   0.453679 0.065018 0.566022 0.035449
C112  C     C_R   0.508155 0.934151 0.555113 -0.076627
C113  C     C_R   0.046321 0.565018 0.433978 0.035449
C114  C     C_R   0.991845 0.434151 0.444887 -0.076627
C115  C     C_R   0.000704 0.564615 0.417862 0.042496
C116  C     C_R   0.030281 0.435952 0.475636 -0.074293
C117  C     C_R   0.603985 0.933643 0.568112 -0.014434
C118  C     C_R   0.366095 0.062270 0.525783 0.038935
C119  C     C_R   0.384469 0.936883 0.480247 -0.002001
C120  C     C_R   0.602489 0.064735 0.574586 0.046022
C121  C     C_R   0.115531 0.436883 0.519753 -0.002001
C122  C     C_R   0.897510 0.564735 0.425414 0.046021
C123  C     C_R   0.896015 0.433643 0.431888 -0.014434
C124  C     C_R   0.133905 0.562270 0.474217 0.038935
C125  C     C_R   0.657962 0.934840 0.554813 -0.087449
C126  C     C_R   0.327516 0.062943 0.494170 -0.075423
C127  C     C_R   0.337882 0.936631 0.467091 -0.091632
C128  C     C_R   0.657436 0.064537 0.556931 -0.085471
C129  C     C_R   0.162118 0.436631 0.532909 -0.091631
C130  C     C_R   0.842564 0.564537 0.443069 -0.085471
C131  C     C_R   0.842038 0.434840 0.445187 -0.087449
C132  C     C_R   0.172484 0.562943 0.505830 -0.075423
C133  C     C_R   0.683437 0.999768 0.549465 -0.267654
C134  C     C_R   0.313293 0.000394 0.467625 -0.273636
C135  C     C_R   0.186707 0.500394 0.532375 -0.273635
C136  C     C_R   0.816563 0.499769 0.450535 -0.267654
C137  C     C_R   0.578456 0.999382 0.570240 0.066504
C138  C     C_R   0.396960 0.999797 0.513814 0.064973
C139  C     C_R   0.103040 0.499797 0.486186 0.064973
C140  C     C_R   0.921544 0.499382 0.429760 0.066504
C141  C     C_R   0.079742 0.378123 0.543004 -0.144483
C142  C     C_R   0.931253 0.625747 0.394899 -0.306210
C143  C     C_R   0.926906 0.369975 0.416037 -0.150566
C144  C     C_R   0.123630 0.622687 0.434803 -0.290778
C145  C     C_R   0.573094 0.869975 0.583963 -0.150565
C146  C     C_R   0.376370 0.122687 0.565197 -0.290778
C147  C     C_R   0.420258 0.878123 0.456996 -0.144483
C148  C     C_R   0.568747 0.125747 0.605101 -0.306211
H1    H     H_    0.725339 0.999922 0.535312 0.202313
H2    H     H_    0.281200 0.000816 0.449814 0.197680
H3    H     H_    0.218800 0.500816 0.550185 0.197680
H4    H     H_    0.774661 0.499922 0.464688 0.202313
H5    H     H_    0.081757 0.333873 0.582622 0.212000
H6    H     H_    0.918627 0.672572 0.371802 0.184136
H7    H     H_    0.916491 0.320365 0.394813 0.216029
H8    H     H_    0.150663 0.668398 0.411386 0.186402
H9    H     H_    0.583509 0.820365 0.605187 0.216029
H10   H     H_    0.349337 0.168398 0.588614 0.186402
H11   H     H_    0.418243 0.833873 0.417378 0.212000
H12   H     H_    0.581373 0.172572 0.628198 0.184136
H13   H     H_    0.745301 0.229417 0.782136 0.232956
H14   H     H_    0.254313 0.769951 0.218272 0.230829
H15   H     H_    0.255178 0.228578 0.217426 0.232893
H16   H     H_    0.745161 0.770811 0.782282 0.232494
H17   H     H_    0.244822 0.728578 0.782574 0.232893
H18   H     H_    0.754839 0.270811 0.217718 0.232494
H19   H     H_    0.754699 0.729417 0.217863 0.232956
H20   H     H_    0.245686 0.269951 0.781728 0.230829
O1    O     O_R   0.746490 0.236330 0.638080 -0.641477
O2    O     O_R   0.253510 0.763670 0.361920 -0.664983
O3    O     O_R   0.253510 0.236330 0.361920 -0.641282
O4    O     O_R   0.746490 0.763670 0.638080 -0.642072
O5    O     O_R   0.246490 0.736330 0.638080 -0.641282
O6    O     O_R   0.753510 0.263670 0.361920 -0.642072
O7    O     O_R   0.753510 0.736330 0.361920 -0.641477
O8    O     O_R   0.246490 0.263670 0.638080 -0.664983
O9    O     O_R   0.674170 0.186160 0.516270 -0.623525
O10   O     O_R   0.325830 0.813840 0.483730 -0.634773
O11   O     O_R   0.325830 0.186160 0.483730 -0.637553
O12   O     O_R   0.674170 0.813840 0.516270 -0.635938
O13   O     O_R   0.174170 0.686160 0.516270 -0.637553
O14   O     O_R   0.825830 0.313840 0.483730 -0.635938
O15   O     O_R   0.825830 0.686160 0.483730 -0.623525
O16   O     O_R   0.174170 0.313840 0.516270 -0.634773
O17   O     O_R   0.739960 0.127620 0.525000 -0.629497
O18   O     O_R   0.260040 0.872380 0.475000 -0.623676
O19   O     O_R   0.260040 0.127620 0.475000 -0.631417
O20   O     O_R   0.739960 0.872380 0.525000 -0.629141
O21   O     O_R   0.239960 0.627620 0.525000 -0.631417
O22   O     O_R   0.760040 0.372380 0.475000 -0.629141
O23   O     O_R   0.760040 0.627620 0.475000 -0.629497
O24   O     O_R   0.239960 0.372380 0.525000 -0.623676
O25   O     O_R   0.680700 0.294870 0.629350 -0.556548
O26   O     O_R   0.319300 0.705130 0.370650 -0.552307
O27   O     O_R   0.319300 0.294870 0.370650 -0.541630
O28   O     O_R   0.680700 0.705130 0.629350 -0.551479
O29   O     O_R   0.180700 0.794870 0.629350 -0.541630
O30   O     O_R   0.819300 0.205130 0.370650 -0.551479
O31   O     O_R   0.819300 0.794870 0.370650 -0.556548
O32   O     O_R   0.180700 0.205130 0.629350 -0.552307
O33   O     O_R   0.062020 0.072840 0.007170 -0.563651
O34   O     O_R   0.937980 0.927160 0.992830 -0.564369
O35   O     O_R   0.937980 0.072840 0.992830 -0.563955
O36   O     O_R   0.062020 0.927160 0.007170 -0.565369
O37   O     O_R   0.562020 0.572840 0.007170 -0.563954
O38   O     O_R   0.437980 0.427160 0.992830 -0.565369
O39   O     O_R   0.437980 0.572840 0.992830 -0.563651
O40   O     O_R   0.562020 0.427160 0.007170 -0.564369
O41   O     O_R   0.947860 0.073950 0.109290 -0.565553
O42   O     O_R   0.052140 0.926050 0.890710 -0.566447
O43   O     O_R   0.052140 0.073950 0.890710 -0.566325
O44   O     O_R   0.947860 0.926050 0.109290 -0.567465
O45   O     O_R   0.447860 0.573950 0.109290 -0.566325
O46   O     O_R   0.552140 0.426050 0.890710 -0.567465
O47   O     O_R   0.552140 0.573950 0.890710 -0.565553
O48   O     O_R   0.447860 0.426050 0.109290 -0.566446
Zn1   Zn    Zn3+2 0.792340 0.208750 0.507670 1.057479
Zn2   Zn    Zn3+2 0.207660 0.791250 0.492330 1.031683
Zn3   Zn    Zn3+2 0.207660 0.208750 0.492330 1.056061
Zn4   Zn    Zn3+2 0.792340 0.791250 0.507670 1.047519
Zn5   Zn    Zn3+2 0.292340 0.708750 0.507670 1.056061
Zn6   Zn    Zn3+2 0.707660 0.291250 0.492330 1.047519
Zn7   Zn    Zn3+2 0.707660 0.708750 0.492330 1.057479
Zn8   Zn    Zn3+2 0.292340 0.291250 0.507670 1.031683
Zn9   Zn    Zn3+2 0.505960 0.500000 0.080520 1.189485
Zn10  Zn    Zn3+2 0.494040 0.500000 0.919480 1.186927
Zn11  Zn    Zn3+2 0.005960 0.000000 0.080520 1.186927
Zn12  Zn    Zn3+2 0.994040 0.000000 0.919480 1.189485
O49   O     O_3   0.999374 0.322780 0.562433 -0.696212
H21   H     H_    0.963011 0.341955 0.578051 0.354308
O50   O     O_3   0.023007 0.671582 0.323270 -0.670921
H22   H     H_    0.005324 0.707375 0.302550 0.363432
O51   O     O_3   0.003876 0.306086 0.400449 -0.688666
H23   H     H_    0.042289 0.317941 0.381186 0.358636
O52   O     O_3   0.056124 0.696067 0.427287 -0.694531
H24   H     H_    0.080922 0.733905 0.427737 0.343482
O53   O     O_3   0.496123 0.806086 0.599551 -0.688667
H25   H     H_    0.457711 0.817941 0.618814 0.358637
O54   O     O_3   0.443875 0.196067 0.572714 -0.694531
H26   H     H_    0.419077 0.233905 0.572265 0.343482
O55   O     O_3   0.500626 0.822781 0.437567 -0.696213
H27   H     H_    0.536989 0.841955 0.421949 0.354308
O56   O     O_3   0.476993 0.171582 0.676731 -0.670921
H28   H     H_    0.494676 0.207375 0.697450 0.363432
F1    F     F_    0.643988 0.204745 0.068046 -0.613444
F2    F     F_    0.355907 0.793262 0.931641 -0.613794
F3    F     F_    0.357063 0.205210 0.930419 -0.608378
F4    F     F_    0.643773 0.795517 0.068282 -0.611900
F5    F     F_    0.142937 0.705210 0.069581 -0.608378
F6    F     F_    0.856227 0.295517 0.931718 -0.611900
F7    F     F_    0.856012 0.704745 0.931954 -0.613444
F8    F     F_    0.144093 0.293262 0.068359 -0.613794
O57   O     O_3   0.799757 0.324811 0.836806 -0.719825
H29   H     H_    0.837703 0.337007 0.820302 0.399496
O58   O     O_3   0.199224 0.676063 0.164801 -0.729000
H30   H     H_    0.161045 0.664776 0.181891 0.408622
O59   O     O_3   0.200427 0.322653 0.163366 -0.725816
H31   H     H_    0.162356 0.334331 0.180155 0.394907
O60   O     O_3   0.799522 0.675377 0.837104 -0.718267
H32   H     H_    0.837433 0.663060 0.820690 0.400126
O61   O     O_3   0.299572 0.822653 0.836634 -0.725816
H33   H     H_    0.337643 0.834332 0.819846 0.394907
O62   O     O_3   0.700477 0.175377 0.162896 -0.718267
H34   H     H_    0.662567 0.163059 0.179310 0.400126
O63   O     O_3   0.700242 0.824811 0.163194 -0.719826
H35   H     H_    0.662297 0.837008 0.179698 0.399496
O64   O     O_3   0.300776 0.176064 0.835199 -0.729001
H36   H     H_    0.338955 0.164777 0.818109 0.408623
F9    F     F_    0.628412 0.351983 0.029840 -0.597480
F10   F     F_    0.370995 0.647033 0.970742 -0.595827
F11   F     F_    0.371974 0.351427 0.969842 -0.598402
F12   F     F_    0.628215 0.648315 0.030026 -0.595822
F13   F     F_    0.128025 0.851427 0.030158 -0.598403
F14   F     F_    0.871785 0.148315 0.969974 -0.595823
F15   F     F_    0.871588 0.851983 0.970159 -0.597480
F16   F     F_    0.129004 0.147033 0.029258 -0.595827
F17   F     F_    0.600091 0.330182 0.775388 -0.618052
F18   F     F_    0.399842 0.669812 0.224555 -0.606517
F19   F     F_    0.399756 0.330637 0.224905 -0.605559
F20   F     F_    0.600137 0.669679 0.775295 -0.608161
F21   F     F_    0.100244 0.830637 0.775095 -0.605559
F22   F     F_    0.899863 0.169679 0.224705 -0.608161
F23   F     F_    0.899908 0.830182 0.224612 -0.618052
F24   F     F_    0.100157 0.169812 0.775444 -0.606517

loop_
_geom_bond_atom_site_label_1
_geom_bond_atom_site_label_2
_ccdc_geom_bond_type
C11   O51   S    
C12   O52   S    
O1    Zn1   S    
C122  C140  A    
C15   O55   S    
C6    C70   S    
O15   Zn4   S    
C91   C126  S    
C59   F19   S    
C70   C78   A    
C43   C83   A    
C124  C139  A    
C69   C77   A    
O54   H26   S    
O6    Zn6   S    
C127  C134  A    
C13   C145  A    
C63   C71   A    
C147  H11   S    
C92   C125  S    
C76   C84   A    
C49   C104  S    
C71   C79   A    
C46   C86   A    
C63   F23   S    
O62   H34   S    
O19   Zn3   S    
C51   C102  S    
C91   O11   A    
C42   C82   A    
O18   Zn2   S    
C120  C137  A    
C124  C132  A    
C46   F14   S    
O17   Zn1   S    
O12   Zn7   S    
C108  C115  A    
C47   C55   A    
C96   C129  S    
C18   C37   A    
C96   O16   A    
O59   H31   S    
C13   C112  A    
C26   O58   S    
O22   Zn6   S    
C119  C127  A    
C7    C71   S    
C14   O54   S    
O21   Zn5   S    
C106  C138  A    
C10   O50   S    
C31   O63   S    
C119  C147  A    
O56   H28   S    
C66   C74   A    
O58   H30   S    
C36   F7    S    
C49   C57   A    
C30   C38   A    
C32   O64   S    
C9    O49   S    
O55   H27   S    
C148  H12   S    
C73   C81   A    
C106  C110  A    
C11   C114  A    
C4    O28   A    
C107  C113  A    
C5    C69   S    
C52   C60   A    
C77   C85   A    
C59   C67   A    
C129  C135  A    
O44   Zn11  S    
C53   C61   A    
C26   C34   A    
O16   Zn3   S    
C58   F18   S    
C55   C63   A    
O38   Zn10  S    
C95   C130  S    
C1    C65   S    
O52   H24   S    
C48   C88   A    
O10   Zn5   S    
C10   C142  A    
O57   H29   S    
C104  O40   A    
C89   O9    A    
O9    Zn6   S    
C34   F5    S    
C93   C132  S    
C92   O12   A    
O63   H35   S    
C103  O45   A    
C43   F11   S    
C29   O61   S    
O4    Zn4   S    
C95   O23   A    
C44   F12   S    
C121  C129  A    
C44   C52   A    
C64   C72   A    
C60   C68   A    
O5    Zn5   S    
C50   C103  S    
C23   C87   S    
O53   H25   S    
C7    O31   A    
C9    C116  A    
C62   C70   A    
C89   O17   A    
C56   C97   S    
C74   C82   A    
O46   Zn10  S    
C18   C82   S    
O2    Zn2   S    
C41   C49   A    
O35   Zn12  S    
C136  H4    S    
C58   C66   A    
C16   C109  A    
C106  C111  A    
O20   Zn4   S    
C53   C100  S    
C14   C111  A    
C27   O59   S    
C94   C131  S    
C21   C85   S    
C52   C101  S    
C78   H18   S    
C24   C35   A    
C8    C72   S    
C4    O4    A    
C50   C58   A    
C121  C141  A    
C80   H20   S    
C118  C146  A    
C133  H1    S    
C11   C143  A    
O24   Zn8   S    
C131  C136  A    
C65   C73   A    
C97   O33   A    
C74   H14   S    
C20   C39   A    
C25   O57   S    
O29   Zn2   S    
C5    O29   A    
C21   C34   A    
C6    O6    A    
C27   C35   A    
C38   F1    S    
C4    C68   S    
C123  C140  A    
C130  C136  A    
O8    Zn8   S    
C3    O27   A    
C37   F2    S    
C12   C144  A    
C101  O47   A    
C7    O7    A    
C114  C116  A    
C2    O26   A    
C61   F21   S    
C144  H8    S    
C19   C83   S    
C45   C85   A    
C24   C32   A    
C76   H16   S    
C98   O34   A    
O49   H21   S    
O40   Zn9   S    
C145  H9    S    
C64   F24   S    
O39   Zn10  S    
C73   H13   S    
C95   O15   A    
C90   C127  S    
C28   O60   S    
C41   C81   A    
C18   C26   A    
C46   C54   A    
C25   C33   A    
C8    O8    A    
O33   Zn11  S    
C142  H6    S    
O36   Zn11  S    
O37   Zn9   S    
C102  O38   A    
C126  C134  A    
C79   C87   A    
C101  O37   A    
C2    O2    A    
O26   Zn5   S    
C48   F16   S    
C75   H15   S    
C102  O48   A    
O25   Zn6   S    
C105  C112  A    
C42   C50   A    
O34   Zn12  S    
C120  C148  A    
C93   O21   A    
O43   Zn12  S    
C20   C84   S    
C99   O35   A    
C100  O42   A    
O45   Zn9   S    
C117  C145  A    
C54   C99   S    
C8    O32   A    
O30   Zn1   S    
C51   C59   A    
C5    O5    A    
C122  C142  A    
C29   C37   A    
O60   H32   S    
C20   C28   A    
O23   Zn7   S    
C75   C83   A    
C40   F3    S    
C19   C27   A    
C47   C87   A    
C6    O30   A    
C12   C113  A    
C94   O22   A    
C61   C69   A    
C141  H5    S    
C22   C33   A    
C91   O19   A    
C9    C141  A    
C22   C30   A    
C134  H2    S    
C123  C131  A    
C104  O46   A    
C119  C138  A    
O42   Zn12  S    
C78   C86   A    
C24   C88   S    
C93   O13   A    
C117  C137  A    
O31   Zn4   S    
C62   F22   S    
C103  O39   A    
C44   C84   A    
C21   C29   A    
C13   O53   S    
O64   H36   S    
C120  C128  A    
C2    C66   S    
C96   O24   A    
C146  H10   S    
C48   C56   A    
C68   C76   A    
C54   C62   A    
C14   C146  A    
C77   H17   S    
C125  C133  A    
O48   Zn9   S    
C45   F13   S    
C57   F17   S    
C143  H7    S    
C16   C148  A    
O47   Zn10  S    
C108  C114  A    
C121  C139  A    
C105  C137  A    
C109  C111  A    
O41   Zn11  S    
C17   C25   A    
C80   C88   A    
C98   O44   A    
C128  C133  A    
C30   O62   S    
C15   C147  A    
C100  O36   A    
C3    O3    A    
C56   C64   A    
O27   Zn8   S    
C3    C67   S    
C43   C51   A    
C132  C135  A    
C135  H3    S    
C57   C65   A    
C55   C98   S    
C1    O1    A    
C35   F8    S    
O11   Zn8   S    
C31   C39   A    
C105  C109  A    
C17   C81   S    
C47   F15   S    
C32   C40   A    
C107  C139  A    
C33   F6    S    
C118  C126  A    
C97   O43   A    
C110  C112  A    
C107  C116  A    
C90   O18   A    
O28   Zn7   S    
C15   C110  A    
C19   C40   A    
C10   C115  A    
C45   C53   A    
C39   F4    S    
C16   O56   S    
C22   C86   S    
C67   C75   A    
C17   C38   A    
C28   C36   A    
O14   Zn1   S    
C72   C80   A    
C23   C36   A    
C60   F20   S    
C123  C143  A    
O50   H22   S    
O61   H33   S    
O32   Zn3   S    
O7    Zn7   S    
C1    O25   A    
C124  C144  A    
C41   F9    S    
C94   O14   A    
C79   H19   S    
C118  C138  A    
C117  C125  A    
C108  C140  A    
O13   Zn2   S    
C122  C130  A    
O3    Zn3   S    
C92   O20   A    
C42   F10   S    
O51   H23   S    
C23   C31   A    
C90   O10   A    
C113  C115  A    
C89   C128  S    
C99   O41   A    
