data_mof_unit_5598.cif
_audit_creation_date              2012-12-11T16:19:18-0500
_audit_creation_method            fapswitch 2.2
_symmetry_space_group_name_H-M    P1
_symmetry_Int_Tables_number       1
_space_group_crystal_system       triclinic
_cell_length_a                    6.914287
_cell_length_b                    31.314077
_cell_length_c                    35.079144
_cell_angle_alpha                 90.003551
_cell_angle_beta                  89.972175
_cell_angle_gamma                 90.024297
_cell_volume                      7595.14227491

loop_
_atom_site_label
_atom_site_type_symbol
_atom_type_description
_atom_site_fract_x
_atom_site_fract_y
_atom_site_fract_z
_atom_type_partial_charge
O1    O     O_R   0.417270 0.211480 0.210950 -0.544849
O2    O     O_R   0.582730 0.788520 0.789050 -0.549396
O3    O     O_R   0.582730 0.788520 0.710950 -0.538601
O4    O     O_R   0.417270 0.211480 0.289050 -0.550955
O5    O     O_R   0.917270 0.288520 0.289050 -0.536778
O6    O     O_R   0.082730 0.711480 0.710950 -0.553418
O7    O     O_R   0.082730 0.711480 0.789050 -0.542920
O8    O     O_R   0.917270 0.288520 0.210950 -0.545398
O9    O     O_R   0.746940 0.206370 0.288750 -0.509802
O10   O     O_R   0.253060 0.793630 0.711250 -0.542562
O11   O     O_R   0.253060 0.793630 0.788750 -0.511313
O12   O     O_R   0.746940 0.206370 0.211250 -0.540689
O13   O     O_R   0.246940 0.293630 0.211250 -0.539206
O14   O     O_R   0.753060 0.706370 0.788750 -0.542137
O15   O     O_R   0.753060 0.706370 0.711250 -0.511353
O16   O     O_R   0.246940 0.293630 0.288750 -0.540270
C1    C     C_R   0.578203 0.196294 0.302224 0.781017
C2    C     C_R   0.421616 0.803556 0.697617 0.748511
C3    C     C_R   0.421707 0.803649 0.802283 0.757598
C4    C     C_R   0.578446 0.196461 0.197608 0.732449
C5    C     C_R   0.078491 0.303569 0.197629 0.736115
C6    C     C_R   0.921469 0.696479 0.802404 0.740924
C7    C     C_R   0.921754 0.696291 0.697777 0.773733
C8    C     C_R   0.078425 0.303563 0.302378 0.756670
O17   O     O_3   0.583760 0.276950 0.250000 -0.372794
O18   O     O_3   0.416240 0.723050 0.750000 -0.369404
O19   O     O_3   0.083760 0.223050 0.250000 -0.364109
O20   O     O_3   0.916240 0.776950 0.750000 -0.365786
V1    V     V_3+5 0.858600 0.245000 0.250000 1.475151
V2    V     V_3+5 0.141400 0.755000 0.750000 1.479372
V3    V     V_3+5 0.358600 0.255000 0.250000 1.441445
V4    V     V_3+5 0.641400 0.745000 0.750000 1.482823
C9    C     C_R   0.073375 0.583737 0.543400 0.648296
C10   C     C_R   0.921225 0.414896 0.457578 0.620358
C11   C     C_R   0.919455 0.416366 0.043352 0.655029
C12   C     C_R   0.075062 0.585203 0.957766 0.619548
C13   C     C_R   0.572569 0.916107 0.956811 0.648632
C14   C     C_R   0.422427 0.085232 0.042302 0.621694
C15   C     C_R   0.426680 0.083730 0.456620 0.648281
C16   C     C_R   0.578626 0.914873 0.542374 0.620946
N1    N     N_R   0.972104 0.573561 0.575542 -0.531090
N2    N     N_R   0.020211 0.425459 0.425239 -0.549554
N3    N     N_R   0.020874 0.426391 0.075494 -0.532345
N4    N     N_R   0.976719 0.574699 0.925356 -0.549452
N5    N     N_R   0.472687 0.926366 0.924545 -0.530128
N6    N     N_R   0.520566 0.074635 0.074708 -0.549751
N7    N     N_R   0.527695 0.073554 0.424449 -0.531075
N8    N     N_R   0.479917 0.925437 0.574742 -0.549351
C17   C     C_R   0.876858 0.535580 0.578911 0.716065
C18   C     C_R   0.112935 0.463726 0.421861 0.724685
C19   C     C_R   0.116263 0.464342 0.078968 0.710985
C20   C     C_R   0.883493 0.536501 0.921911 0.725692
C21   C     C_R   0.378574 0.964449 0.921039 0.715652
C22   C     C_R   0.612584 0.036316 0.078175 0.724849
C23   C     C_R   0.622737 0.035569 0.421049 0.716223
C24   C     C_R   0.387421 0.963711 0.578153 0.724586
C25   C     C_R   0.879571 0.505240 0.548770 -0.148706
C26   C     C_R   0.111120 0.493619 0.452232 -0.102999
C27   C     C_R   0.113901 0.494774 0.048911 -0.147625
C28   C     C_R   0.884087 0.506622 0.952288 -0.103086
C29   C     C_R   0.381275 0.994836 0.951142 -0.148870
C30   C     C_R   0.610614 0.006361 0.047856 -0.103044
C31   C     C_R   0.620053 0.005222 0.451183 -0.148669
C32   C     C_R   0.389197 0.993611 0.547790 -0.103039
C33   C     C_R   0.990791 0.514486 0.515714 -0.066698
C34   C     C_R   0.001240 0.484262 0.485338 -0.089601
C35   C     C_R   0.003005 0.485637 0.015810 -0.066357
C36   C     C_R   0.993473 0.515891 0.985456 -0.089310
C37   C     C_R   0.491287 0.985514 0.984313 -0.066598
C38   C     C_R   0.501723 0.015774 0.014659 -0.089703
C39   C     C_R   0.509137 0.014473 0.484273 -0.066686
C40   C     C_R   0.498763 0.984247 0.514648 -0.089559
C41   C     C_R   0.091210 0.554004 0.512983 -0.077039
C42   C     C_R   0.902103 0.444643 0.488001 -0.134065
C43   C     C_R   0.902087 0.446187 0.013002 -0.080841
C44   C     C_R   0.093100 0.555443 0.988194 -0.134219
C45   C     C_R   0.590479 0.945878 0.987192 -0.076538
C46   C     C_R   0.403572 0.055483 0.011874 -0.134489
C47   C     C_R   0.408948 0.053999 0.487040 -0.077068
C48   C     C_R   0.597661 0.944620 0.511949 -0.133980
C49   C     C_R   0.774788 0.466160 0.550432 0.218781
C50   C     C_R   0.216286 0.532315 0.450327 0.206402
C51   C     C_R   0.218933 0.533816 0.050680 0.218626
C52   C     C_R   0.778178 0.468030 0.950329 0.206509
C53   C     C_R   0.277638 0.034035 0.949332 0.218976
C54   C     C_R   0.714659 0.967547 0.049902 0.206460
C55   C     C_R   0.724579 0.966129 0.449480 0.218805
C56   C     C_R   0.284291 0.032320 0.549737 0.206297
C57   C     C_R   0.786251 0.436412 0.520685 0.221359
C58   C     C_R   0.206790 0.562184 0.480173 0.143724
C59   C     C_R   0.208311 0.563600 0.020958 0.221136
C60   C     C_R   0.786701 0.438139 0.980162 0.142483
C61   C     C_R   0.288944 0.063802 0.979066 0.221106
C62   C     C_R   0.704985 0.937622 0.020105 0.143644
C63   C     C_R   0.713183 0.936379 0.479225 0.221303
C64   C     C_R   0.293705 0.062189 0.519891 0.143749
O21   O     O_2   0.156035 0.622645 0.541345 -0.527772
O22   O     O_2   0.841560 0.375697 0.459782 -0.518073
O23   O     O_2   0.836419 0.377504 0.041214 -0.519325
O24   O     O_2   0.155142 0.624356 0.960035 -0.518685
O25   O     O_2   0.653816 0.877080 0.959018 -0.529129
O26   O     O_2   0.343323 0.124466 0.040037 -0.516275
O27   O     O_2   0.344176 0.122637 0.458699 -0.527736
O28   O     O_2   0.658094 0.875671 0.540142 -0.518120
O29   O     O_2   0.781720 0.527515 0.611653 -0.469178
O30   O     O_2   0.205343 0.472651 0.388939 -0.422089
O31   O     O_2   0.211508 0.472251 0.111713 -0.471357
O32   O     O_2   0.791792 0.527628 0.888918 -0.421383
O33   O     O_2   0.284451 0.972552 0.888211 -0.470315
O34   O     O_2   0.704462 0.027404 0.111137 -0.422006
O35   O     O_2   0.717662 0.027508 0.388284 -0.469198
O36   O     O_2   0.295264 0.972634 0.611101 -0.422183
C65   C     C_R   0.889682 0.392990 0.365679 0.483677
C66   C     C_R   0.107063 0.606423 0.634555 0.494983
C67   C     C_R   0.108857 0.607131 0.865897 0.483872
C68   C     C_R   0.889441 0.393199 0.134693 0.509561
C69   C     C_R   0.389631 0.107113 0.134236 0.483268
C70   C     C_R   0.608761 0.892979 0.865876 0.494487
C71   C     C_R   0.610577 0.892959 0.634274 0.483713
C72   C     C_R   0.392668 0.106428 0.365460 0.494934
C73   C     C_R   0.908051 0.362945 0.336109 -0.280907
C74   C     C_R   0.091755 0.636806 0.663915 -0.337999
C75   C     C_R   0.091249 0.637157 0.836300 -0.284566
C76   C     C_R   0.907640 0.362930 0.164065 -0.291652
C77   C     C_R   0.407953 0.137134 0.163824 -0.282118
C78   C     C_R   0.593339 0.862521 0.836610 -0.308135
C79   C     C_R   0.592189 0.862919 0.663850 -0.280981
C80   C     C_R   0.408016 0.136813 0.336101 -0.337390
H1    H     H_    0.798604 0.361618 0.314071 0.186000
H2    H     H_    0.203158 0.638406 0.685551 0.196002
H3    H     H_    0.201112 0.638436 0.814320 0.186613
H4    H     H_    0.797658 0.361309 0.186002 0.189110
H5    H     H_    0.298351 0.138453 0.185853 0.187357
H6    H     H_    0.705843 0.860593 0.815198 0.203563
H7    H     H_    0.701711 0.861595 0.685872 0.186177
H8    H     H_    0.296574 0.138412 0.314474 0.196533
C81   C     C_R   0.067865 0.335159 0.334105 -0.174672
C82   C     C_R   0.932127 0.664555 0.666240 -0.113539
C83   C     C_R   0.931596 0.664972 0.834191 -0.174996
C84   C     C_R   0.067993 0.335306 0.166023 -0.174954
C85   C     C_R   0.567920 0.164900 0.165860 -0.172276
C86   C     C_R   0.432043 0.835243 0.833972 -0.141140
C87   C     C_R   0.432257 0.835138 0.665880 -0.172195
C88   C     C_R   0.567739 0.164565 0.333765 -0.115343
C89   C     C_R   0.210771 0.337534 0.363080 0.195035
C90   C     C_R   0.786594 0.661905 0.638077 0.198096
C91   C     C_R   0.788196 0.662686 0.863107 0.196593
C92   C     C_R   0.211572 0.338050 0.137173 0.200987
C93   C     C_R   0.711004 0.162545 0.136893 0.198616
C94   C     C_R   0.284459 0.838338 0.861823 0.217345
C95   C     C_R   0.289274 0.837508 0.636919 0.195214
C96   C     C_R   0.713319 0.161916 0.361917 0.197934
C97   C     C_R   0.190136 0.366991 0.392851 -0.035685
C98   C     C_R   0.803526 0.632039 0.608376 -0.130778
C99   C     C_R   0.808060 0.633244 0.892894 -0.037009
C100  C     C_R   0.191079 0.367734 0.107578 -0.042933
C101  C     C_R   0.690440 0.133106 0.107107 -0.033099
C102  C     C_R   0.302307 0.868298 0.891530 -0.117469
C103  C     C_R   0.309919 0.866962 0.607146 -0.036291
C104  C     C_R   0.696358 0.132046 0.391614 -0.130529
H9    H     H_    0.298353 0.368224 0.415136 0.186564
H10   H     H_    0.693049 0.630605 0.586542 0.176153
H11   H     H_    0.699420 0.632062 0.915121 0.186740
H12   H     H_    0.299859 0.369276 0.085393 0.186306
H13   H     H_    0.798834 0.131873 0.084836 0.187095
H14   H     H_    0.191740 0.870303 0.913320 0.171974
H15   H     H_    0.201624 0.868194 0.584877 0.186713
H16   H     H_    0.806891 0.130611 0.413436 0.176138
C105  C     C_R   0.032313 0.394960 0.394373 0.188362
C106  C     C_R   0.961651 0.604146 0.606398 0.235857
C107  C     C_R   0.965603 0.605214 0.894500 0.188390
C108  C     C_R   0.032739 0.395568 0.106127 0.191806
C109  C     C_R   0.532492 0.105147 0.105562 0.187635
C110  C     C_R   0.462091 0.895720 0.893740 0.223728
C111  C     C_R   0.467840 0.894931 0.605603 0.188350
C112  C     C_R   0.538147 0.104149 0.393601 0.235916
N9    N     N_3   0.650270 0.455414 0.581776 -0.586465
H17   H     H_    0.732116 0.452217 0.606645 0.288847
H18   H     H_    0.543694 0.478845 0.584743 0.277958
N10   N     N_3   0.337732 0.541401 0.418084 -0.541918
H19   H     H_    0.479978 0.545277 0.427607 0.252205
H20   H     H_    0.291749 0.569972 0.405610 0.277272
N11   N     N_3   0.342822 0.544493 0.082119 -0.586513
H21   H     H_    0.260485 0.547613 0.106949 0.288747
H22   H     H_    0.449440 0.521076 0.085095 0.277311
N12   N     N_3   0.656972 0.459078 0.918043 -0.541211
H23   H     H_    0.514530 0.455332 0.927520 0.252444
H24   H     H_    0.702556 0.430470 0.905568 0.277776
N13   N     N_3   0.154502 0.044898 0.917837 -0.585917
H25   H     H_    0.237279 0.047945 0.893056 0.288698
H26   H     H_    0.047278 0.021609 0.914779 0.277527
N14   N     N_3   0.835054 0.958379 0.082252 -0.541424
H27   H     H_    0.977415 0.954308 0.072843 0.252557
H28   H     H_    0.787934 0.929892 0.094740 0.277105
N15   N     N_3   0.848745 0.955368 0.418091 -0.586489
H29   H     H_    0.766661 0.952194 0.393248 0.288776
H30   H     H_    0.955478 0.978779 0.415096 0.278022
N16   N     N_3   0.163207 0.041422 0.582025 -0.541894
H31   H     H_    0.020897 0.045317 0.572554 0.252311
H32   H     H_    0.209496 0.069986 0.594486 0.277358
N17   N     N_3   0.672455 0.398290 0.524653 -0.587451
H33   H     H_    0.763616 0.371738 0.526151 0.280878
H34   H     H_    0.576133 0.395844 0.501790 0.270076
N18   N     N_3   0.321056 0.600223 0.476138 -0.655537
H35   H     H_    0.230338 0.626861 0.474843 0.285389
H36   H     H_    0.418500 0.602493 0.498828 0.280949
N19   N     N_3   0.322321 0.601675 0.025034 -0.587618
H37   H     H_    0.231341 0.628262 0.026475 0.280729
H38   H     H_    0.419236 0.604093 0.002248 0.270059
N20   N     N_3   0.671718 0.400214 0.976080 -0.653482
H39   H     H_    0.761926 0.373494 0.974736 0.287159
H40   H     H_    0.574179 0.397995 0.998776 0.282063
N21   N     N_3   0.176368 0.102055 0.974935 -0.586178
H41   H     H_    0.268321 0.128499 0.973546 0.281845
H42   H     H_    0.079228 0.104624 0.997669 0.270669
N22   N     N_3   0.818019 0.899449 0.024294 -0.655591
H43   H     H_    0.726479 0.872929 0.025576 0.285248
H44   H     H_    0.915922 0.897000 0.001679 0.280947
N23   N     N_3   0.826695 0.898243 0.475209 -0.587497
H45   H     H_    0.735348 0.871703 0.473742 0.280788
H46   H     H_    0.923220 0.895784 0.498037 0.270158
N24   N     N_3   0.179723 0.100242 0.523973 -0.655430
H47   H     H_    0.270624 0.126869 0.525235 0.285417
H48   H     H_    0.082061 0.102522 0.501322 0.280981
S1    S     S_3+6 0.691477 0.428733 0.365569 0.081625
O37   O     O_2   0.765339 0.473079 0.357884 -0.286731
O38   O     O_2   0.548448 0.416872 0.335095 -0.287060
O39   O     O_3   0.579314 0.427721 0.408135 -0.503858
H49   H     H_    0.588106 0.457200 0.418231 0.353016
S2    S     S_3+6 0.304708 0.570563 0.634257 0.033938
O40   O     O_2   0.407079 0.572885 0.596544 -0.352096
O41   O     O_2   0.444864 0.581198 0.665616 -0.307277
O42   O     O_3   0.220618 0.520700 0.640659 -0.471001
H50   H     H_    0.337500 0.502468 0.641714 0.383097
S3    S     S_3+6 0.306929 0.571356 0.865946 0.081785
O43   O     O_2   0.233046 0.526990 0.858371 -0.286631
O44   O     O_2   0.450393 0.583080 0.835484 -0.286379
O45   O     O_3   0.418515 0.572522 0.908547 -0.504078
H51   H     H_    0.409300 0.543097 0.918752 0.352548
S4    S     S_3+6 0.690609 0.428741 0.134856 0.045154
O46   O     O_2   0.587798 0.426691 0.097195 -0.346138
O47   O     O_2   0.551202 0.417516 0.166205 -0.308542
O48   O     O_3   0.773155 0.478660 0.141666 -0.472363
H52   H     H_    0.655861 0.496789 0.142299 0.382188
S5    S     S_3+6 0.191190 0.071394 0.134303 0.081531
O49   O     O_2   0.264646 0.027054 0.142086 -0.286530
O50   O     O_2   0.047745 0.083325 0.164698 -0.287030
O51   O     O_3   0.079721 0.072337 0.091685 -0.504085
H53   H     H_    0.088457 0.042837 0.081638 0.352794
S6    S     S_3+6 0.807461 0.928602 0.866201 0.041520
O52   O     O_2   0.906530 0.927097 0.904267 -0.353060
O53   O     O_2   0.950019 0.917091 0.835498 -0.299234
O54   O     O_3   0.725222 0.978384 0.858595 -0.471479
H54   H     H_    0.842570 0.996512 0.857831 0.382752
S7    S     S_3+6 0.808959 0.928689 0.634346 0.081578
O55   O     O_2   0.735355 0.973035 0.642067 -0.286648
O56   O     O_2   0.952150 0.916810 0.664774 -0.286937
O57   O     O_3   0.920783 0.927685 0.591745 -0.504231
H55   H     H_    0.913155 0.957232 0.581776 0.353271
S8    S     S_3+6 0.194896 0.070566 0.365770 0.033924
O58   O     O_2   0.092713 0.072856 0.403504 -0.352094
O59   O     O_2   0.054628 0.081223 0.334445 -0.307207
O60   O     O_3   0.278781 0.020709 0.359316 -0.471050
H56   H     H_    0.161818 0.002486 0.358204 0.383063
N25   N     N_3   0.375361 0.309748 0.363844 -0.627906
H57   H     H_    0.327887 0.278114 0.361917 0.220356
H58   H     H_    0.463921 0.316757 0.340526 0.260808
N26   N     N_3   0.624087 0.690265 0.638852 -0.647186
H59   H     H_    0.498167 0.671796 0.639762 0.261724
H60   H     H_    0.622892 0.707562 0.613360 0.230740
N27   N     N_3   0.623834 0.690545 0.863795 -0.633872
H61   H     H_    0.671580 0.722157 0.861832 0.217420
H62   H     H_    0.535396 0.683522 0.840478 0.258733
N28   N     N_3   0.376778 0.310443 0.136365 -0.627269
H63   H     H_    0.329941 0.278747 0.138076 0.221370
H64   H     H_    0.464638 0.317374 0.159788 0.259242
N29   N     N_3   0.875726 0.190328 0.136154 -0.628391
H65   H     H_    0.828386 0.221962 0.138105 0.221341
H66   H     H_    0.964130 0.183297 0.159469 0.258330
N30   N     N_3   0.119127 0.810528 0.860371 -0.620670
H67   H     H_    0.166506 0.779751 0.867163 0.210278
H68   H     H_    0.017649 0.819113 0.881117 0.246106
N31   N     N_3   0.124577 0.809721 0.636172 -0.628115
H69   H     H_    0.171934 0.778087 0.638100 0.219887
H70   H     H_    0.036086 0.816736 0.659496 0.260186
N32   N     N_3   0.875916 0.190281 0.361136 -0.646794
H71   H     H_    0.001776 0.171817 0.360212 0.261885
H72   H     H_    0.877218 0.207576 0.386630 0.230772

loop_
_geom_bond_atom_site_label_1
_geom_bond_atom_site_label_2
_ccdc_geom_bond_type
O17   V3    S    
C57   N17   S    
C56   C64   A    
S5    O50   D    
O18   V4    S    
N24   H47   S    
C13   N5    A    
O12   V1    S    
C38   C46   A    
C104  C112  A    
N17   H33   S    
C7    C82   S    
C52   N12   S    
C10   N2    A    
C11   N3    A    
C84   C92   A    
S7    O56   D    
N17   H34   S    
C85   C93   A    
O60   H56   S    
N21   H41   S    
N10   H19   S    
O16   V3    S    
C101  C109  A    
C30   C54   A    
C52   C60   A    
C83   C91   A    
N28   H64   S    
C49   N9    S    
O3    C2    A    
C1    C88   S    
C101  H13   S    
O8    V1    S    
C42   C57   A    
C81   C89   A    
C2    C87   S    
N30   H68   S    
C41   C58   A    
C78   C86   A    
N11   H22   S    
O54   H54   S    
C96   N32   S    
C96   C104  A    
C32   C56   A    
O19   V1    S    
C16   C48   A    
C46   C61   A    
C53   N13   S    
O48   H52   S    
C34   C42   A    
C75   C83   A    
C45   C62   A    
O1    V3    S    
S1    O39   S    
C17   C25   A    
C98   C106  A    
S2    O42   S    
O2    V4    S    
N28   H63   S    
C56   N16   S    
N13   H26   S    
N7    C23   A    
C16   N8    A    
O11   C3    A    
C91   N27   S    
C54   C62   A    
C71   C111  A    
C37   C45   A    
C102  C110  A    
C68   C76   A    
O11   V2    S    
N10   H20   S    
C69   S5    S    
N9    H18   S    
C94   N30   S    
C23   C31   A    
C63   N23   S    
S3    O43   D    
C24   C32   A    
C65   C73   A    
N16   H31   S    
C93   N29   S    
C20   C28   A    
N25   H57   S    
C73   H1    S    
O5    V1    S    
N7    C112  S    
C66   C106  A    
C14   O26   S    
N8    C111  S    
C49   C57   A    
N4    C20   A    
S6    O54   S    
O15   C7    A    
N27   H61   S    
S7    O57   S    
N5    C21   A    
O16   C8    A    
O7    V2    S    
C103  C111  A    
N29   H65   S    
C93   C101  A    
N18   H35   S    
S3    O44   D    
C30   C38   A    
O12   C4    A    
O3    V4    S    
C21   C29   A    
C76   C84   A    
S8    O60   S    
C11   O23   S    
C78   H6    S    
C67   S3    S    
O39   H49   S    
C76   H4    S    
C26   C34   A    
S1    O37   D    
C89   N25   S    
C58   N18   S    
N21   H42   S    
O17   V1    S    
S1    O38   D    
C64   N24   S    
C67   C75   A    
C77   C85   A    
C61   N21   S    
C35   C36   A    
C18   C26   A    
O20   V4    S    
N22   H43   S    
C74   C82   A    
C26   C50   A    
C67   C107  A    
C70   S6    S    
C33   C41   A    
O14   V4    S    
N23   H45   S    
C17   O29   S    
C14   C46   A    
C99   H11   S    
S6    O52   D    
C72   S8    S    
O19   V3    S    
C6    C83   S    
C100  C108  A    
S4    O48   S    
C65   C105  A    
C39   C47   A    
N19   H37   S    
C55   C63   A    
C22   O34   S    
N14   H28   S    
O9    C1    A    
S2    O41   D    
N11   H21   S    
C27   C51   A    
N2    C105  S    
C95   N31   S    
C16   O28   S    
C68   C108  A    
N25   H58   S    
O10   V2    S    
C27   C35   A    
C65   S1    S    
C53   C61   A    
C90   C98   A    
C62   N22   S    
N2    C18   A    
N32   H72   S    
C25   C33   A    
C75   H3    S    
N6    C22   A    
S8    O59   D    
S4    O47   D    
O8    C5    A    
N6    C109  S    
C51   N11   S    
C12   O24   S    
C79   C87   A    
N30   H67   S    
C48   C63   A    
C90   N26   S    
C80   C88   A    
C28   C36   A    
C15   C47   A    
C29   C53   A    
C43   C60   A    
C10   C42   A    
O4    C1    A    
O18   V2    S    
C9    C41   A    
O6    V2    S    
C80   H8    S    
N18   H36   S    
C33   C34   A    
C3    C86   S    
N20   H40   S    
N29   H66   S    
S2    O40   D    
O14   C6    A    
S3    O45   S    
C92   N28   S    
C12   N4    A    
C23   O35   S    
C35   C43   A    
C60   N20   S    
N12   H24   S    
S7    O55   D    
O7    C6    A    
N27   H62   S    
C18   O30   S    
C91   C99   A    
O51   H53   S    
C102  H14   S    
C73   C81   A    
C15   N7    A    
O42   H50   S    
C29   C37   A    
N13   H25   S    
N8    C24   A    
O45   H51   S    
N24   H48   S    
O1    C4    A    
C69   C109  A    
C94   C102  A    
S4    O46   D    
C31   C55   A    
O2    C3    A    
N26   H60   S    
C54   N14   S    
C4    C85   S    
O13   V3    S    
C11   C43   A    
C25   C49   A    
N22   H44   S    
S8    O58   D    
O15   V4    S    
C98   H10   S    
C66   S2    S    
N16   H32   S    
N3    C108  S    
C72   C80   A    
C15   O27   S    
O9    V1    S    
C8    C81   S    
C36   C44   A    
N1    C17   A    
C92   C100  A    
N1    C106  S    
C68   S4    S    
C77   H5    S    
C50   C58   A    
C82   C90   A    
C9    N1    A    
N14   H27   S    
C86   C94   A    
O20   V2    S    
O57   H55   S    
N4    C107  S    
C89   C97   A    
C47   C64   A    
C40   C48   A    
C24   O36   S    
N5    C110  S    
O13   C5    A    
C100  H12   S    
C13   O25   S    
C28   C52   A    
N3    C19   A    
N32   H71   S    
O5    C8    A    
C13   C45   A    
O10   C2    A    
C97   H9    S    
O6    C7    A    
C51   C59   A    
C87   C95   A    
C59   N19   S    
C10   O22   S    
C103  H15   S    
C9    O21   S    
N23   H46   S    
C32   C40   A    
C97   C105  A    
C37   C38   A    
C79   H7    S    
C72   C112  A    
C104  H16   S    
C14   N6    A    
O4    V3    S    
N9    H17   S    
C44   C59   A    
C55   N15   S    
N15   H29   S    
C66   C74   A    
C99   C107  A    
C12   C44   A    
C19   C27   A    
N26   H59   S    
C70   C110  A    
C19   O31   S    
N20   H39   S    
S5    O51   S    
C50   N10   S    
N31   H69   S    
N19   H38   S    
C22   C30   A    
C20   O32   S    
C21   O33   S    
C70   C78   A    
C5    C84   S    
C39   C40   A    
N12   H23   S    
S5    O49   D    
C69   C77   A    
S6    O53   D    
C31   C39   A    
C74   H2    S    
C88   C96   A    
C95   C103  A    
N31   H70   S    
N15   H30   S    
C71   S7    S    
C71   C79   A    
