data_mof_unit_47325.cif
_audit_creation_date              2013-03-05T15:56:47-0500
_audit_creation_method            fapswitch 2.2
_symmetry_space_group_name_H-M    P1
_symmetry_Int_Tables_number       1
_space_group_crystal_system       triclinic
_cell_length_a                    6.936087
_cell_length_b                    14.739059
_cell_length_c                    15.949479
_cell_angle_alpha                 90.08742
_cell_angle_beta                  89.343001
_cell_angle_gamma                 90.395083
_cell_volume                      1630.38983154

loop_
_atom_site_label
_atom_site_type_symbol
_atom_site_description
_atom_site_fract_x
_atom_site_fract_y
_atom_site_fract_z
_atom_type_partial_charge
O1    O     O_R   0.638180 0.333920 0.163320 -0.616151
O2    O     O_R   0.361820 0.666080 0.836680 -0.616150
O3    O     O_R   0.308470 0.344960 0.336080 -0.585295
O4    O     O_R   0.691530 0.655040 0.663920 -0.585298
O5    O     O_R   0.138140 0.166110 0.336680 -0.585544
O6    O     O_R   0.861860 0.833890 0.663320 -0.585546
C1    C     C_R   0.477437 0.368716 0.363740 0.994311
C2    C     C_R   0.522563 0.631284 0.636260 0.994316
O7    O     O_R   0.308460 0.344950 0.163930 -0.611699
O8    O     O_R   0.691540 0.655050 0.836070 -0.611699
O9    O     O_R   0.138140 0.166100 0.163310 -0.611800
O10   O     O_R   0.861860 0.833900 0.836690 -0.611800
C3    C     C_R   0.478330 0.367162 0.134992 0.893059
C4    C     C_R   0.521669 0.632838 0.865008 0.893057
O11   O     O_R   0.638180 0.333930 0.336700 -0.558477
O12   O     O_R   0.361820 0.666070 0.663300 -0.558475
O13   O     O_3   0.471670 0.191340 0.250000 -0.262265
O14   O     O_3   0.528330 0.808660 0.750000 -0.262264
V1    V     V_3+5 0.196830 0.260900 0.250000 1.221808
V2    V     V_3+5 0.803170 0.739100 0.750000 1.221807
O15   O     O_R   0.808420 0.155070 0.163920 -0.583193
O16   O     O_R   0.191580 0.844930 0.836080 -0.583194
C5    C     C_R   0.977753 0.133239 0.134620 1.015843
C6    C     C_R   0.022246 0.866761 0.865380 1.015846
O17   O     O_R   0.808420 0.155080 0.336070 -0.534199
O18   O     O_R   0.191580 0.844920 0.663930 -0.534193
C7    C     C_R   0.975198 0.133915 0.365670 1.132642
C8    C     C_R   0.024802 0.866085 0.634330 1.132639
V3    V     V_3+5 0.696830 0.239130 0.250000 1.260223
V4    V     V_3+5 0.303170 0.760870 0.750000 1.260225
O19   O     O_3   0.971850 0.308690 0.250010 -0.281714
O20   O     O_3   0.028150 0.691310 0.749990 -0.281717
C9    C     C_R   0.964604 0.186061 0.545248 0.264121
C10   C     C_R   0.035395 0.813939 0.454752 0.264120
C11   C     C_R   0.001629 0.214044 0.627008 -0.454821
C12   C     C_R   0.998366 0.785956 0.372992 -0.454829
C13   C     C_R   0.053064 0.151899 0.687285 0.707866
C14   C     C_R   0.946931 0.848101 0.312716 0.707868
C15   C     C_R   0.060219 0.060089 0.667823 0.497720
C16   C     C_R   0.939778 0.939911 0.332177 0.497720
C17   C     C_R   0.025002 0.028553 0.584741 -0.163381
C18   C     C_R   0.974997 0.971447 0.415259 -0.163382
C19   C     C_R   0.990272 0.093878 0.520541 -0.098133
C20   C     C_R   0.009728 0.906122 0.479459 -0.098127
C21   C     C_R   0.023054 0.934412 0.565032 -0.150338
C22   C     C_R   0.976946 0.065588 0.434968 -0.150342
H1    H     H_    0.983071 0.284516 0.644583 0.210824
H2    H     H_    0.016923 0.715484 0.355418 0.210824
C23   C     C_R   0.179184 0.975279 0.966463 -0.047009
C24   C     C_R   0.820815 0.024721 0.033537 -0.047008
H3    H     H_    0.319810 0.957345 0.941646 0.119502
H4    H     H_    0.680190 0.042655 0.058354 0.119502
C25   C     C_R   0.168375 0.039075 0.031497 -0.109396
C26   C     C_R   0.831625 0.960925 0.968503 -0.109396
H5    H     H_    0.301085 0.068430 0.054626 0.121761
H6    H     H_    0.698915 0.931569 0.945374 0.121761
C27   C     C_R   0.989036 0.064713 0.065963 -0.111178
C28   C     C_R   0.010964 0.935287 0.934037 -0.111177
C29   C     C_R   0.321060 0.467156 0.474361 -0.130425
C30   C     C_R   0.678940 0.532843 0.525639 -0.130426
H7    H     H_    0.180531 0.444068 0.455300 0.175060
H8    H     H_    0.819469 0.555931 0.544701 0.175060
C31   C     C_R   0.333030 0.527062 0.542266 -0.038409
C32   C     C_R   0.666970 0.472938 0.457734 -0.038403
H9    H     H_    0.201565 0.545376 0.574882 0.160444
H10   H     H_    0.798436 0.454623 0.425119 0.160443
C33   C     C_R   0.511903 0.562217 0.567972 -0.128598
C34   C     C_R   0.488097 0.437783 0.432028 -0.128593
C35   C     C_R   0.321120 0.473899 0.033423 -0.114089
C36   C     C_R   0.678879 0.526101 0.966577 -0.114088
H11   H     H_    0.180541 0.454840 0.058088 0.121463
H12   H     H_    0.819459 0.545160 0.941912 0.121463
C37   C     C_R   0.331268 0.537462 0.968233 -0.120163
C38   C     C_R   0.668732 0.462537 0.031767 -0.120163
H13   H     H_    0.198387 0.565507 0.944906 0.121955
H14   H     H_    0.801612 0.434493 0.055094 0.121955
C39   C     C_R   0.510289 0.564486 0.933829 -0.116514
C40   C     C_R   0.489711 0.435514 0.066170 -0.116514
F1    F     F_    0.912327 0.819584 0.233340 -0.650452
F2    F     F_    0.087665 0.180415 0.766661 -0.650452
N1    N     N_R   0.871325 0.249492 0.492719 0.223562
O21   O     O_R   0.972899 0.311169 0.454238 -0.461593
O22   O     O_R   0.685067 0.257443 0.498198 -0.418727
N2    N     N_R   0.128677 0.750509 0.507280 0.223565
O23   O     O_R   0.027109 0.688827 0.545757 -0.461596
O24   O     O_R   0.314937 0.742569 0.501810 -0.418724
F3    F     F_    0.106846 0.003810 0.731332 -0.698607
F4    F     F_    0.893150 0.996190 0.268668 -0.698607

loop_
_geom_bond_atom_site_label_1
_geom_bond_atom_site_label_2
_geom_bond_distance
_ccdc_geom_bond_type
C14   C16   1.388969 A    
C31   H9    1.080305 S    
O13   V3    1.708795 S    
C15   F3    1.353691 S    
O4    C2    1.302483 A    
V1    O19   1.716509 S    
N1    O21   1.297067 A    
C15   C17   1.426744 A    
O9    V1    2.007229 S    
C24   C26   1.400688 A    
C38   H14   1.082752 S    
C32   C34   1.406421 A    
C11   C13   1.380418 A    
N2    O24   1.299931 A    
O3    C1    1.302484 A    
C26   C28   1.407992 A    
C14   F1    1.356837 S    
O12   V4    2.004760 S    
C10   N2    1.420466 S    
C30   H8    1.077135 S    
C18   C22   1.422253 A    
C4    C39   1.492092 S    
C35   H11   1.082678 S    
O7    C3    1.300427 A    
C9    C11   1.393251 A    
C1    C34   1.491790 S    
O5    C7    1.302904 A    
O7    V1    1.996563 S    
O6    C8    1.302903 A    
C30   C33   1.404891 A    
O8    V2    1.996561 S    
C23   H3    1.082735 S    
C36   C38   1.401476 A    
C24   H4    1.082735 S    
O3    V1    2.006375 S    
O14   V4    1.708795 S    
C10   C12   1.393250 A    
C16   C18   1.426747 A    
C11   H1    1.083581 S    
C2    O12   1.299274 A    
C36   C39   1.408660 A    
C17   C19   1.430187 A    
C35   C40   1.408660 A    
C18   C20   1.430183 A    
N1    O22   1.299941 A    
O11   V3    2.004759 S    
C26   H6    1.082770 S    
C25   H5    1.082769 S    
O17   V3    2.015198 S    
C13   C15   1.388970 A    
C13   F2    1.356837 S    
C31   C33   1.406420 A    
C8    C21   1.496606 S    
C29   H7    1.077135 S    
C9    C19   1.425874 A    
C10   C20   1.425873 A    
N2    O23   1.297063 A    
O8    C4    1.300428 A    
C25   C27   1.407992 A    
C1    O11   1.299275 A    
O15   V3    2.000678 S    
C23   C28   1.407035 A    
C32   H10   1.080305 S    
C29   C34   1.404891 A    
O10   V2    2.007232 S    
O1    V3    2.013793 S    
C35   C37   1.401476 A    
C7    C22   1.496603 S    
O18   V4    2.015199 S    
O15   C5    1.301374 A    
O16   C6    1.301373 A    
O1    C3    1.301204 A    
C37   H13   1.082752 S    
C20   C21   1.430334 A    
V2    O20   1.716508 S    
C5    C27   1.490332 S    
C3    C40   1.492093 S    
C17   C21   1.422252 A    
O16   V4    2.000679 S    
C24   C27   1.407035 A    
C29   C31   1.399143 A    
O5    V1    2.003520 S    
O17   C7    1.294724 A    
O6    V2    2.003522 S    
O10   C6    1.298115 A    
O18   C8    1.294724 A    
O2    V4    2.013790 S    
C30   C32   1.399143 A    
C16   F4    1.353690 S    
C12   C14   1.380418 A    
V3    O19   2.159391 S    
V4    O20   2.159389 S    
C23   C25   1.400688 A    
O9    C5    1.298116 A    
O13   V1    2.170742 S    
C12   H2    1.083581 S    
O14   V2    2.170742 S    
O2    C4    1.301205 A    
C19   C22   1.430333 A    
O4    V2    2.006376 S    
C2    C33   1.491791 S    
C6    C28   1.490332 S    
C38   C40   1.407045 A    
C37   C39   1.407045 A    
C36   H12   1.082678 S    
C9    N1    1.420466 S    
