data_mof_unit_49329.cif
_audit_creation_date              2012-12-10T17:02:12-0500
_audit_creation_method            fapswitch 2.2
_symmetry_space_group_name_H-M    P1
_symmetry_Int_Tables_number       1
_space_group_crystal_system       triclinic
_cell_length_a                    10.580615
_cell_length_b                    10.645118
_cell_length_c                    10.131243
_cell_angle_alpha                 94.165204
_cell_angle_beta                  90.117961
_cell_angle_gamma                 91.11734
_cell_volume                      1137.86388075

loop_
_atom_site_label
_atom_site_type_symbol
_atom_type_description
_atom_site_fract_x
_atom_site_fract_y
_atom_site_fract_z
_atom_type_partial_charge
C1    C     C_R   0.500815 0.262467 0.493461 0.907750
C2    C     C_2   0.504931 0.128401 0.469645 0.342583
C3    C     C_2   0.586735 0.555476 0.929173 -0.198070
C4    C     C_R   0.261079 0.479232 0.499570 0.863390
C5    C     C_2   0.571801 0.574174 0.078938 0.451009
C6    C     C_R   0.506704 0.738021 0.506205 0.905910
C7    C     C_R   0.739561 0.482940 0.498828 0.978545
C8    C     C_R   0.126391 0.355787 0.727477 -0.018886
C9    C     C_R   0.059125 0.340624 0.843761 -0.158260
C10   C     C_R   0.927270 0.326142 0.837765 -0.126348
C11   C     C_R   0.863995 0.345882 0.718037 0.475058
C12   C     C_R   0.064372 0.400401 0.616307 0.022242
C13   C     C_R   0.930608 0.399568 0.613016 0.002626
C14   C     C_2   0.122196 0.303437 0.291380 0.508989
C15   C     C_2   0.474152 0.375892 0.093637 0.518401
C16   C     C_2   0.242939 0.282146 0.711951 0.443219
C17   C     C_2   0.129658 0.322918 0.966048 0.418187
C18   C     C_2   0.857345 0.282197 0.953143 0.415674
C19   C     C_2   0.882027 0.435931 0.243114 0.565616
C20   C     C_2   0.712977 0.870469 0.371254 0.477546
C21   C     C_2   0.468348 0.930951 0.651355 0.489251
C22   C     C_R   0.129623 0.431749 0.500519 -0.205765
C23   C     C_R   0.067855 0.403740 0.381174 -0.004635
C24   C     C_R   0.939381 0.427788 0.375571 -0.043497
C25   C     C_R   0.870528 0.438212 0.496113 -0.175087
C26   C     C_2   0.618180 0.933556 0.459877 -0.115397
C27   C     C_2   0.531278 0.871399 0.530298 -0.165863
C28   C     C_2   0.617296 0.072019 0.469530 0.336705
H1    H     H_    0.670733 0.593829 0.884370 0.187038
H2    H     H_    0.732129 0.219794 0.742173 0.377881
H3    H     H_    0.793663 0.386976 0.217446 0.095049
H4    H     H_    0.751371 0.919215 0.289379 0.090220
H5    H     H_    0.377021 0.894819 0.681532 0.087528
H6    H     H_    0.799913 0.085706 0.485987 0.343583
H7    H     H_    0.414443 0.485604 0.893909 0.165360
H8    H     H_    0.222715 0.289396 0.290319 0.135152
H9    H     H_    0.332018 0.121973 0.402615 0.361992
H10   H     H_    0.684651 0.719729 0.082003 0.326577
H11   H     H_    0.520071 0.334920 0.006002 0.103576
H12   H     H_    0.316270 0.290330 0.787223 0.093826
H13   H     H_    0.134458 0.230092 0.002675 0.112674
H14   H     H_    0.904463 0.229123 0.025297 0.109664
N1    N     N_2   0.501340 0.501330 0.852150 -0.206821
N2    N     N_2   0.501380 0.501360 0.147810 -0.144319
O1    O     O_R   0.499980 0.319060 0.613040 -0.561047
O2    O     O_3   0.399055 0.061657 0.420333 -0.775283
O3    O     O_3   0.636650 0.672223 0.146675 -0.687128
O4    O     O_2   0.399107 0.309311 0.148217 -0.565197
O5    O     O_2   0.252378 0.203556 0.619218 -0.616462
O6    O     O_2   0.186119 0.412100 0.022985 -0.530454
O7    O     O_2   0.746344 0.306604 0.970272 -0.610727
O8    O     O_3   0.743425 0.297774 0.695397 -0.680446
O9    O     O_2   0.934955 0.496423 0.160733 -0.525604
O10   O     O_2   0.754549 0.767878 0.393221 -0.535688
O11   O     O_2   0.520450 0.014955 0.721312 -0.566302
O12   O     O_R   0.500020 0.319100 0.386900 -0.629093
O13   O     O_3   0.728271 0.143048 0.476749 -0.792396
O14   O     O_R   0.316750 0.499980 0.613090 -0.627949
O15   O     O_R   0.316790 0.500020 0.386950 -0.589979
O16   O     O_R   0.499980 0.680900 0.613100 -0.638872
O17   O     O_R   0.500020 0.680940 0.386960 -0.512178
O18   O     O_R   0.683210 0.499980 0.613050 -0.562240
O19   O     O_R   0.683250 0.500020 0.386910 -0.607216
O20   O     O_2   0.053945 0.226164 0.229685 -0.627658
Zn1   Zn    Zn3+2 0.499970 0.499970 0.650990 1.010035
Zn2   Zn    Zn3+2 0.500030 0.500030 0.349010 1.082009

loop_
_geom_bond_atom_site_label_1
_geom_bond_atom_site_label_2
_ccdc_geom_bond_type
C17   O6    D    
C14   C23   S    
H6    O13   S    
C23   C24   A    
C7    O18   A    
C6    O16   A    
H7    N1    S    
C9    C10   A    
O14   Zn1   S    
C26   C28   S    
C6    C27   S    
C7    C25   S    
C8    C12   A    
N1    Zn1   S    
C19   H3    S    
C19   O9    D    
C19   C24   S    
C21   C27   S    
O19   Zn2   S    
C14   O20   D    
C8    C16   S    
C28   O13   S    
C2    O2    S    
O1    Zn1   S    
C12   C13   A    
C11   C13   A    
C15   H11   S    
H10   O3    S    
C20   C26   S    
C15   O4    D    
C16   H12   S    
C20   H4    S    
O12   Zn2   S    
C3    N1    D    
C4    O15   A    
C9    C17   S    
C5    O3    S    
C5    N2    D    
C10   C18   S    
C18   O7    D    
C18   H14   S    
O15   Zn2   S    
C14   H8    S    
C15   N2    S    
C17   H13   S    
C21   H5    S    
C10   C11   A    
C16   O5    D    
C12   C22   A    
C3    H1    S    
C4    C22   S    
C24   C25   A    
C6    O17   A    
C20   O10   D    
C1    C2    S    
C7    O19   A    
C1    O1    A    
C4    O14   A    
C21   O11   D    
H2    O8    S    
C22   C23   A    
C26   C27   D    
C2    C28   D    
C11   O8    S    
O18   Zn1   S    
C3    C5    S    
H9    O2    S    
N2    Zn2   S    
O17   Zn2   S    
C1    O12   A    
C13   C25   A    
C8    C9    A    
O16   Zn1   S    
