data_mof_unit_25386.cif
_audit_creation_date              2012-12-10T17:15:51-0500
_audit_creation_method            fapswitch 2.2
_symmetry_space_group_name_H-M    P1
_symmetry_Int_Tables_number       1
_space_group_crystal_system       triclinic
_cell_length_a                    10.112307
_cell_length_b                    10.730709
_cell_length_c                    10.654941
_cell_angle_alpha                 89.876865
_cell_angle_beta                  95.266225
_cell_angle_gamma                 81.372483
_cell_volume                      1138.13452808

loop_
_atom_site_label
_atom_site_type_symbol
_atom_type_description
_atom_site_fract_x
_atom_site_fract_y
_atom_site_fract_z
_atom_type_partial_charge
C1    C     C_R   0.443850 0.514026 0.266318 0.942240
C2    C     C_R   0.631464 0.043809 0.519597 0.100999
C3    C     C_R   0.508889 0.125972 0.525982 -0.134382
C4    C     C_R   0.386851 0.079617 0.521828 -0.215465
C5    C     C_R   0.384371 0.953614 0.505233 -0.221626
C6    C     C_R   0.502206 0.873867 0.483378 -0.128984
C7    C     C_2   0.412229 0.540404 0.132811 -0.371694
C8    C     C_2   0.507623 0.576485 0.068780 -0.173277
C9    C     C_2   0.590285 0.503180 0.870362 -0.062950
C10   C     C_2   0.495165 0.571386 0.933148 -0.206535
C11   C     C_2   0.068696 0.498665 0.483961 -0.042529
C12   C     C_R   0.503392 0.259970 0.512377 0.877880
C13   C     C_2   0.924581 0.512595 0.509714 -0.156635
C14   C     C_R   0.556792 0.492885 0.734556 0.896984
C15   C     C_R   0.499159 0.740408 0.490907 0.873571
C16   C     C_R   0.759725 0.079624 0.551009 -0.145487
C17   C     C_R   0.875358 0.006091 0.515231 -0.157351
C18   C     C_R   0.864709 0.896942 0.447643 -0.159357
C19   C     C_R   0.740734 0.854849 0.427703 -0.152718
C20   C     C_R   0.624774 0.922128 0.475855 0.102465
H1    H     H_    0.292535 0.140782 0.529682 0.167533
H2    H     H_    0.315803 0.525194 0.086339 0.151419
H3    H     H_    0.886067 0.578991 0.579078 0.203081
H4    H     H_    0.100130 0.444712 0.402985 0.121482
H5    H     H_    0.880895 0.386678 0.382711 0.163635
H6    H     H_    0.772047 0.163706 0.603777 0.148001
H7    H     H_    0.972476 0.036000 0.536294 0.127987
H8    H     H_    0.952801 0.843528 0.412433 0.138535
H9    H     H_    0.737178 0.772196 0.370629 0.162672
H10   H     H_    0.289365 0.919081 0.508578 0.165864
H11   H     H_    0.399604 0.614727 0.885585 0.171665
H12   H     H_    0.603600 0.592179 0.115953 0.179897
N1    N     N_2   0.157290 0.551390 0.551110 -0.023313
N2    N     N_2   0.842740 0.448550 0.448960 -0.217330
O1    O     O_R   0.568950 0.489660 0.307530 -0.606352
O2    O     O_R   0.348880 0.522640 0.340350 -0.615096
O3    O     O_R   0.610060 0.300270 0.483590 -0.615784
O4    O     O_R   0.389990 0.333260 0.516410 -0.619176
O5    O     O_R   0.651120 0.477360 0.659650 -0.620624
O6    O     O_R   0.431050 0.510340 0.692470 -0.623165
O7    O     O_R   0.610010 0.666740 0.483590 -0.627678
O8    O     O_R   0.389940 0.699730 0.516410 -0.615021
Zn1   Zn    Zn3+2 0.646940 0.477980 0.478090 0.915713
Zn2   Zn    Zn3+2 0.353060 0.522020 0.521910 0.934107
N3    N     N_2   0.121070 0.596971 0.665909 -0.252364
H13   H     H_    0.161179 0.536240 0.739447 0.229517
C21   C     C_3   0.146852 0.724057 0.688470 -0.704429
H14   H     H_    0.097077 0.761049 0.772255 0.207541
H15   H     H_    0.105915 0.786025 0.606200 0.230816
H16   H     H_    0.256183 0.725927 0.706999 0.249785
C22   C     C_3   0.721808 0.437736 0.940107 -0.424849
C23   C     C_3   0.814019 0.348685 0.861478 -0.324683
C24   C     C_3   0.930186 0.274199 0.944788 -0.915764
H17   H     H_    0.990801 0.339374 0.996283 0.261301
H18   H     H_    0.891531 0.214194 0.013785 0.266117
H19   H     H_    0.996034 0.212357 0.885225 0.252413
H20   H     H_    0.755828 0.280911 0.811075 0.216029
H21   H     H_    0.857775 0.404140 0.792049 0.245266
H22   H     H_    0.779107 0.511092 0.980884 0.201611
H23   H     H_    0.695772 0.381113 0.019357 0.228489

loop_
_geom_bond_atom_site_label_1
_geom_bond_atom_site_label_2
_ccdc_geom_bond_type
O3    Zn1   S    
O5    Zn1   S    
C9    C14   S    
O4    Zn2   S    
C22   H23   S    
C2    C16   A    
C7    H2    S    
N1    N3    S    
C9    C10   D    
C15   O8    A    
C19   C20   A    
C9    C22   S    
O6    Zn2   S    
H5    N2    S    
O1    Zn1   S    
C24   H18   S    
C2    C3    A    
C14   O5    A    
C7    C8    D    
C21   H15   S    
C24   H17   S    
C12   O4    A    
C4    H1    S    
O7    Zn1   S    
C15   O7    A    
C22   C23   S    
C8    H12   S    
O8    Zn2   S    
C6    C20   A    
C17   C18   A    
C21   H16   S    
N3    C21   S    
C16   H6    S    
C5    C6    A    
C23   H21   S    
O2    Zn2   S    
C11   C13   S    
C22   H22   S    
C23   H20   S    
C2    C20   A    
C3    C4    A    
C17   H7    S    
N3    H13   S    
C11   H4    S    
C11   N1    D    
C18   H8    S    
C23   C24   S    
C13   H3    S    
C8    C10   S    
C18   C19   A    
C5    H10   S    
C24   H19   S    
C12   O3    A    
C1    O1    A    
C4    C5    A    
C13   N2    D    
C3    C12   S    
C6    C15   S    
C1    C7    S    
N1    Zn2   S    
C14   O6    A    
C10   H11   S    
N2    Zn1   S    
C21   H14   S    
C1    O2    A    
C16   C17   A    
C19   H9    S    
