data_mof_unit_67064.cif
_audit_creation_date              2013-03-05T15:58:16-0500
_audit_creation_method            fapswitch 2.2
_symmetry_space_group_name_H-M    P1
_symmetry_Int_Tables_number       1
_space_group_crystal_system       triclinic
_cell_length_a                    8.378358
_cell_length_b                    12.885619
_cell_length_c                    14.341087
_cell_angle_alpha                 93.150579
_cell_angle_beta                  90.158976
_cell_angle_gamma                 98.844001
_cell_volume                      1527.44931358

loop_
_atom_site_label
_atom_site_type_symbol
_atom_site_description
_atom_site_fract_x
_atom_site_fract_y
_atom_site_fract_z
_atom_type_partial_charge
P1    P     P_3+3 0.054400 0.427280 0.286870 0.476844
O1    O     O_2   0.887370 0.460630 0.272300 -0.318144
O2    O     O_3   0.129410 0.451380 0.388510 -0.432901
O3    O     O_3   0.670210 0.653170 0.329170 -0.336464
O4    O     O_2   0.719515 0.545231 0.172603 -0.305243
O5    O     O_3   0.017148 0.290437 0.266423 -0.518004
O6    O     O_3   0.775644 0.739676 0.152252 -0.503703
H1    H     H_    0.574529 0.819580 0.163851 -0.057031
C1    C     C_3   0.802035 0.920940 0.196723 -0.735890
H2    H     H_    0.832208 0.894725 0.266185 0.249416
H3    H     H_    0.916816 0.948388 0.160826 0.246152
P2    P     P_3+3 0.668300 0.742890 0.573060 0.471079
P3    P     P_3+3 0.141543 0.840962 0.380928 0.436373
O7    O     O_2   0.845380 0.761330 0.544970 -0.402844
O8    O     O_3   0.088930 0.704860 0.376040 -0.391613
O9    O     O_2   0.006268 0.888239 0.433543 -0.385804
O10   O     O_3   0.654260 0.762823 0.693929 -0.570957
O11   O     O_3   0.129067 0.880508 0.266895 -0.535422
C2    C     C_3   0.196321 0.809048 0.207189 0.480034
H4    H     H_    0.122325 0.729654 0.206657 0.134444
H5    H     H_    0.322289 0.804827 0.228947 0.012012
C3    C     C_3   0.197664 0.844521 0.107969 -1.011151
H6    H     H_    0.073004 0.833485 0.079696 0.308567
H7    H     H_    0.250724 0.928517 0.106393 0.254882
C4    C     C_3   0.224137 0.754208 0.647865 0.455088
H8    H     H_    0.320000 0.717452 0.612149 0.104653
H9    H     H_    0.115362 0.744103 0.602322 0.120346
C5    C     C_3   0.281437 0.871303 0.666554 -1.003066
H10   H     H_    0.414586 0.886030 0.672579 0.251977
H11   H     H_    0.242551 0.916213 0.609321 0.249448
H12   H     H_    0.229776 0.900443 0.732023 0.306036
Ba1   Ba    Ba6+2 0.855630 0.555280 0.454520 1.585311
C6    C     C_3   0.957084 0.241506 0.347215 0.458057
H13   H     H_    0.825765 0.239984 0.347779 0.122549
H14   H     H_    0.008655 0.280874 0.413697 0.094095
C7    C     C_3   0.993395 0.129050 0.344576 -0.918390
H15   H     H_    0.012243 0.099715 0.272138 0.287917
H16   H     H_    0.893009 0.076387 0.375862 0.226677
H17   H     H_    0.104364 0.125087 0.384820 0.253437
C8    C     C_3   0.770304 0.720779 0.743838 0.362627
H18   H     H_    0.824967 0.659687 0.702959 0.036651
C9    C     C_3   0.897412 0.812263 0.776399 -0.806677
H19   H     H_    0.958160 0.848677 0.715408 0.238092
H20   H     H_    0.986925 0.787288 0.824106 0.283059
H21   H     H_    0.836657 0.872179 0.813985 0.263699
P4    P     P_3+3 0.135310 0.572810 0.713130 0.489356
O12   O     O_2   0.302330 0.539400 0.727760 -0.288569
O13   O     O_3   0.060300 0.548700 0.611500 -0.434089
O14   O     O_3   0.519500 0.346920 0.670840 -0.375955
O15   O     O_3   0.187663 0.708584 0.732930 -0.558609
P5    P     P_3+3 0.054678 0.157039 0.621572 0.465607
O16   O     O_3   0.614310 0.373510 0.452640 -0.375417
O17   O     O_3   0.100780 0.295230 0.623970 -0.344019
O18   O     O_2   0.190966 0.110609 0.569454 -0.409719
O19   O     O_3   0.068838 0.119190 0.736379 -0.527568
Ba2   Ba    Ba6+2 0.334200 0.444810 0.545490 1.594916
P6    P     P_3+3 0.644988 0.642412 0.206162 0.516724
C10   C     C_3   0.702080 0.829192 0.140690 0.213582
O20   O     O_3   0.575400 0.626570 0.547370 -0.375351
C11   C     C_3   0.414762 0.229367 0.257077 0.206647
H22   H     H_    0.307264 0.246885 0.295815 0.076419
C12   C     C_3   0.356921 0.134823 0.189038 -0.664545
H23   H     H_    0.280416 0.073131 0.226903 0.202563
H24   H     H_    0.461707 0.101265 0.161952 0.264842
P7    P     P_3+3 0.526879 0.239442 0.431188 0.436141
O21   O     O_2   0.344320 0.238700 0.455090 -0.410305
O22   O     O_3   0.536914 0.200683 0.312734 -0.538441
H25   H     H_    0.269239 0.797026 0.062664 0.239628
C13   C     C_3   0.974707 0.177429 0.794584 0.313868
H26   H     H_    0.889538 0.217670 0.755214 -0.015630
C14   C     C_3   0.867361 0.104611 0.857566 -0.758251
H27   H     H_    0.786086 0.151897 0.896260 0.196618
H28   H     H_    0.793075 0.043488 0.812165 0.177475
P8    P     P_3+3 0.546237 0.357351 0.792974 0.507545
C15   C     C_3   0.491994 0.156046 0.777533 0.398850
H29   H     H_    0.617491 0.168569 0.751240 0.019971
O23   O     O_2   0.444231 0.438457 0.833979 -0.318706
O24   O     O_3   0.459989 0.239225 0.838657 -0.493260
H30   H     H_    0.407543 0.146632 0.716759 0.163318
H31   H     H_    0.527239 0.068150 0.899085 0.316523
C16   C     C_3   0.468267 0.055349 0.829339 -0.887737
H32   H     H_    0.520838 0.993053 0.789716 0.226636
H33   H     H_    0.338569 0.029042 0.838892 0.300929
C17   C     C_R   0.980176 0.452212 0.061750 -0.039347
C18   C     C_R   0.173934 0.504648 0.196272 0.215801
C19   C     C_R   0.318420 0.565813 0.227461 -0.410814
C20   C     C_R   0.432651 0.610063 0.164886 0.233866
C21   C     C_R   0.391545 0.609563 0.070229 -0.313114
C22   C     C_R   0.238063 0.561214 0.037066 0.082327
C23   C     C_R   0.128939 0.504789 0.099214 -0.052343
H34   H     H_    0.349836 0.570543 0.300944 0.165657
C24   C     C_R   0.049876 0.511078 0.903818 0.032669
C25   C     C_R   0.939499 0.456003 0.966043 0.089449
C26   C     C_R   0.009186 0.506820 0.805737 0.294670
C27   C     C_R   0.862021 0.450604 0.774229 -0.476670
C28   C     C_R   0.751606 0.402439 0.835901 0.191345
C29   C     C_R   0.790052 0.403000 0.931065 -0.237133
C30   C     C_R   0.196447 0.565330 0.941653 -0.125364
H35   H     H_    0.479843 0.645804 0.022467 0.155162
H36   H     H_    0.701842 0.364291 0.977817 0.211007
H37   H     H_    0.828356 0.449255 0.701180 0.161463
H38   H     H_    0.896204 0.405473 0.105581 0.204706
H39   H     H_    0.279396 0.610801 0.897024 0.217614
C31   C     C_R   0.758412 0.175449 0.542100 -0.539514
C32   C     C_R   0.435491 0.813748 0.462975 -0.518074
C33   C     C_R   0.399299 0.993979 0.445399 -0.107837
C34   C     C_R   0.341799 0.886697 0.433928 0.178842
C35   C     C_R   0.579989 0.846302 0.512802 0.314833
C36   C     C_R   0.640732 0.956924 0.525216 -0.087562
C37   C     C_R   0.549219 0.031285 0.489379 -0.028443
C38   C     C_R   0.610664 0.140964 0.497841 0.289617
C39   C     C_R   0.852072 0.104335 0.573642 0.238554
C40   C     C_R   0.791591 0.996183 0.569012 -0.200453
H40   H     H_    0.326480 0.047019 0.417554 0.178908
H41   H     H_    0.865979 0.944364 0.597408 0.180602
H42   H     H_    0.806223 0.258584 0.546345 0.160079
H43   H     H_    0.389669 0.730706 0.452243 0.163080
C41   C     C_2   0.690404 0.673136 0.828460 1.010952
O25   O     O_2   0.545532 0.670446 0.839445 -0.596497
O26   O     O_R   0.783112 0.637168 0.897005 -0.822238
H44   H     H_    0.716729 0.610035 0.951959 0.335381
C42   C     C_2   0.703496 0.852255 0.038743 1.029195
O27   O     O_2   0.811446 0.828093 0.989386 -0.605642
O28   O     O_R   0.587593 0.904756 0.000032 -0.781722
H45   H     H_    0.513139 0.930621 0.048336 0.285422
C43   C     C_2   0.708267 0.009255 0.213203 1.034509
O29   O     O_2   0.748748 0.092499 0.176714 -0.506526
O30   O     O_R   0.575871 0.997118 0.272001 -0.786924
H46   H     H_    0.556803 0.925058 0.298171 0.275417
C44   C     C_2   0.488617 0.327153 0.212033 1.006420
O31   O     O_2   0.535219 0.325124 0.131442 -0.603041
O32   O     O_R   0.516550 0.420623 0.266404 -0.733598
H47   H     H_    0.453983 0.417628 0.326608 0.292234
C45   C     C_2   0.268579 0.159540 0.105378 1.077070
O33   O     O_2   0.144774 0.198007 0.113265 -0.545584
O34   O     O_R   0.332000 0.137215 0.018060 -0.773496
H48   H     H_    0.263600 0.151920 0.964215 0.362455
C46   C     C_2   0.084444 0.262578 0.847571 0.944293
O35   O     O_2   0.172199 0.325728 0.803732 -0.538603
O36   O     O_R   0.085977 0.272232 0.944706 -0.808562
H49   H     H_    0.178368 0.326796 0.970011 0.344521
C47   C     C_2   0.956820 0.050879 0.926229 1.255688
O37   O     O_2   0.927640 0.060598 0.009264 -0.578212
O38   O     O_R   0.069144 0.987831 0.895395 -0.818433
H50   H     H_    0.118974 0.954417 0.948312 0.333730

loop_
_geom_bond_atom_site_label_1
_geom_bond_atom_site_label_2
_geom_bond_distance
_ccdc_geom_bond_type
C8    C41   1.502594 S    
C20   C21   1.398991 A    
P5    C39   1.844706 S    
C17   H38   1.080092 S    
C41   O25   1.219849 D    
C2    H4    1.111357 S    
P3    C34   1.838405 S    
O30   H46   1.010740 S    
C16   H32   1.105087 S    
C24   C30   1.407755 A    
O8    Ba1   2.809741 S    
C18   C19   1.396980 A    
C4    C5    1.520203 S    
C32   C34   1.393355 A    
C43   O29   1.220768 D    
C17   C23   1.413426 A    
P3    O11   1.746997 S    
C33   H40   1.075015 S    
O1    Ba1   2.853146 S    
C5    H10   1.104781 S    
C2    H5    1.109912 S    
O11   C2    1.405032 S    
C19   H34   1.081677 S    
C33   C34   1.392818 A    
C30   H39   1.074429 S    
C6    C7    1.524266 S    
C35   C36   1.439138 A    
C11   C12   1.535011 S    
P1    O1    1.542701 D    
C13   C14   1.530788 S    
C37   C38   1.426264 A    
P7    C38   1.849380 S    
C12   H24   1.099457 S    
H1    C10   1.110634 S    
C31   H42   1.082805 S    
P2    O20   1.602221 S    
Ba1   O16   2.848025 S    
C27   C28   1.382592 A    
C11   O22   1.401904 S    
O32   H47   1.010790 S    
P7    O22   1.750079 S    
P8    O23   1.542193 D    
O3    P6    1.771400 S    
C1    H2    1.110039 S    
O6    C10   1.406031 S    
C36   C40   1.418459 A    
C8    C9    1.514107 S    
P2    C35   1.869767 S    
P2    Ba1   3.453592 S    
Ba1   Ba2   4.662140 S    
Ba1   O13   2.839045 S    
C32   H43   1.082285 S    
C13   H26   1.113807 S    
C9    H20   1.108913 S    
C3    H6    1.105049 S    
C39   C40   1.405635 A    
C16   H33   1.098707 S    
C7    H17   1.102261 S    
P1    C18   1.878183 S    
C32   C35   1.399411 A    
P4    O13   1.581407 S    
C10   C42   1.507567 S    
P1    O5    1.751021 S    
P8    C28   1.823353 S    
C2    C3    1.517816 S    
O36   H49   1.014046 S    
C11   C44   1.496604 S    
C14   H28   1.105565 S    
C19   C20   1.392698 A    
C15   C16   1.517426 S    
C45   O34   1.394375 S    
C4    H8    1.106503 S    
P1    Ba1   3.421307 S    
P6    C20   1.851519 S    
C11   H22   1.105567 S    
P1    O2    1.581527 S    
C9    H21   1.105606 S    
P2    O10   1.745268 S    
C44   O32   1.386528 S    
C15   H29   1.109278 S    
C12   H23   1.109226 S    
C4    O15   1.397458 S    
O2    Ba2   2.839634 S    
P4    C26   1.859872 S    
C28   C29   1.400762 A    
C24   C26   1.442510 A    
C6    H13   1.097451 S    
O2    Ba1   2.960956 S    
O3    Ba1   2.841185 S    
C1    H3    1.110459 S    
C3    H25   1.107974 S    
O19   C13   1.413753 S    
C46   O36   1.391587 S    
C14   C47   1.497066 S    
C8    H18   1.111196 S    
O12   Ba2   2.853657 S    
P2    O7    1.524916 D    
P3    O8    1.738828 S    
C3    H7    1.106523 S    
C9    H19   1.103819 S    
C42   O28   1.396123 S    
C25   C29   1.407756 A    
C29   H36   1.081985 S    
O26   H44   1.012710 S    
C31   C39   1.387379 A    
C33   C37   1.408275 A    
O17   Ba2   2.810336 S    
C13   C46   1.490264 S    
O13   Ba2   2.961735 S    
P4    O12   1.543078 D    
C1    C10   1.527140 S    
C43   O30   1.390059 S    
C47   O37   1.219890 D    
C5    H12   1.106045 S    
O7    Ba1   2.903722 S    
H31   C16   1.107184 S    
C31   C38   1.388592 A    
C18   C23   1.441224 A    
Ba2   O20   2.847347 S    
C45   O33   1.219436 D    
C4    H9    1.106785 S    
O14   Ba2   2.840568 S    
P4    O15   1.744313 S    
C1    C43   1.488110 S    
O5    C6    1.406846 S    
O4    P6    1.538008 D    
C22   C30   1.416938 A    
O38   H50   1.012437 S    
P5    O18   1.544696 D    
C12   C45   1.482666 S    
C7    H16   1.108718 S    
C44   O31   1.221157 D    
C42   O27   1.217329 D    
C14   H27   1.111488 S    
C36   C37   1.431076 A    
Ba2   O21   2.903942 S    
C5    H11   1.106071 S    
C24   C25   1.423928 A    
C6    H14   1.109142 S    
O6    P6    1.748191 S    
P5    O19   1.751501 S    
C17   C25   1.418553 A    
C26   C27   1.391221 A    
C15   O24   1.405526 S    
C41   O26   1.393195 S    
C21   H35   1.079953 S    
C46   O35   1.213605 D    
O16   Ba2   2.944622 S    
C21   C22   1.409123 A    
C7    H15   1.105936 S    
P7    O21   1.567116 D    
P8    O24   1.744212 S    
P3    O9    1.546457 D    
P4    Ba2   3.421776 S    
O14   P8    1.760338 S    
O34   H48   1.003806 S    
Ba1   O20   2.945420 S    
P5    O17   1.761503 S    
C22   C23   1.424878 A    
C15   H30   1.110648 S    
O10   C8    1.397075 S    
C47   O38   1.392524 S    
O16   P7    1.779567 S    
C27   H37   1.082679 S    
O28   H45   1.010467 S    
C40   H41   1.075434 S    
