data_mof_unit_38075.cif
_audit_creation_date              2012-12-10T18:09:57-0500
_audit_creation_method            fapswitch 2.2
_symmetry_space_group_name_H-M    P1
_symmetry_Int_Tables_number       1
_space_group_crystal_system       triclinic
_cell_length_a                    10.811859
_cell_length_b                    12.628718
_cell_length_c                    12.984256
_cell_angle_alpha                 81.563395
_cell_angle_beta                  92.503778
_cell_angle_gamma                 102.14511
_cell_volume                      1714.28291789

loop_
_atom_site_label
_atom_site_type_symbol
_atom_type_description
_atom_site_fract_x
_atom_site_fract_y
_atom_site_fract_z
_atom_type_partial_charge
C1    C     C_R   0.479506 0.438683 0.691518 0.866716
C2    C     C_R   0.483751 0.456306 0.973952 0.071961
C3    C     C_R   0.531155 0.457769 0.874943 0.032815
C4    C     C_R   0.741323 0.502091 0.497007 0.840831
C5    C     C_R   0.546094 0.533486 0.037127 0.090579
C6    C     C_R   0.672638 0.589178 0.014692 0.074071
C7    C     C_R   0.726177 0.580797 0.920011 -0.020625
C8    C     C_R   0.654390 0.517958 0.850098 -0.248512
C9    C     C_R   0.486821 0.556237 0.123288 0.111576
C10   C     C_R   0.688806 0.649113 0.184780 -0.242756
C11   C     C_R   0.453120 0.400945 0.802138 -0.108322
C12   C     C_3   0.119856 0.502123 0.496914 -0.052583
C13   C     C_R   0.463696 0.141907 0.295253 -0.070482
C14   C     C_R   0.617537 0.784426 0.651783 0.034731
C15   C     C_R   0.647363 0.883859 0.689905 -0.242278
C16   C     C_R   0.520134 0.561213 0.308982 0.871426
C17   C     C_R   0.619241 0.976439 0.630305 -0.162613
C18   C     C_R   0.562269 0.970225 0.531332 -0.004187
C19   C     C_R   0.547055 0.869730 0.490019 0.206489
C20   C     C_R   0.521263 0.060090 0.469203 -0.065834
C21   C     C_R   0.517903 0.062496 0.359171 0.039336
C22   C     C_R   0.555890 0.976538 0.319667 -0.074092
C23   C     C_3   0.066070 0.503573 0.380449 -0.012135
C24   C     C_R   0.526447 0.874410 0.380341 0.090214
C25   C     C_R   0.477634 0.143823 0.510335 0.088105
C26   C     C_R   0.419159 0.218882 0.340969 -0.014263
C27   C     C_R   0.257643 0.499644 0.500566 0.826238
C28   C     C_3   0.905438 0.409862 0.575273 -0.459365
C29   C     C_3   0.042672 0.396013 0.566521 -0.014860
C30   C     C_3   0.918179 0.493781 0.382172 -0.206582
C31   C     C_3   0.954224 0.616597 0.525953 -0.059583
C32   C     C_3   0.877720 0.505704 0.493796 0.023090
C33   C     C_1   0.177504 0.715640 0.514780 0.261153
C34   C     C_3   0.095150 0.606947 0.547140 -0.042379
C35   C     C_1   0.122180 0.605453 0.313294 0.084479
C36   C     C_1   0.852499 0.638713 0.890639 0.135884
C37   C     C_3   0.346526 0.553128 0.126149 -0.913143
C38   C     C_3   0.246184 0.265400 0.762716 -0.886918
C39   C     C_1   0.198547 0.229090 0.982609 0.194456
C40   C     C_1   0.596535 0.982904 0.213596 0.214466
C41   C     C_1   0.444755 0.142998 0.184409 0.160451
C42   C     C_1   0.468394 0.144107 0.620555 0.192452
C43   C     C_3   0.420504 0.800523 0.331198 -0.742964
C44   C     C_3   0.040150 0.280638 0.537207 -0.846594
C45   C     C_R   0.741940 0.649985 0.088755 -0.179047
C46   C     C_1   0.844081 0.393231 0.344464 0.211665
C47   C     C_1   0.100559 0.416545 0.328644 0.200372
C48   C     C_3   0.936789 0.720511 0.447624 -0.857831
C49   C     C_1   0.119449 0.591004 0.661382 0.108173
C50   C     C_R   0.562225 0.598329 0.202923 -0.052673
C51   C     C_R   0.339214 0.325567 0.835703 0.155341
C52   C     C_R   0.308204 0.308719 0.941813 0.063470
C53   C     C_R   0.379317 0.374077 0.009328 -0.264348
H1    H     H_    0.837097 0.332216 0.566547 0.215565
H2    H     H_    0.650217 0.053354 0.659864 0.155178
H3    H     H_    0.692484 0.889077 0.765617 0.165030
H4    H     H_    0.084914 0.392330 0.645850 0.166337
H5    H     H_    0.913955 0.627818 0.600472 0.176143
H6    H     H_    0.332062 0.632401 0.145118 0.257119
H7    H     H_    0.298841 0.542949 0.049789 0.265074
H8    H     H_    0.301739 0.487088 0.186689 0.248290
H9    H     H_    0.149172 0.274795 0.777937 0.224425
H10   H     H_    0.263018 0.295366 0.679696 0.261252
H11   H     H_    0.247149 0.176820 0.777369 0.262911
H12   H     H_    0.890617 0.561104 0.326758 0.126629
H13   H     H_    0.344401 0.845836 0.304922 0.231202
H14   H     H_    0.453163 0.774755 0.260745 0.231607
H15   H     H_    0.376323 0.730176 0.385298 0.284221
H16   H     H_    0.982673 0.265236 0.466313 0.263614
H17   H     H_    0.134275 0.262672 0.528730 0.269832
H18   H     H_    0.994416 0.218060 0.601072 0.227497
H19   H     H_    0.997817 0.734919 0.378964 0.249717
H20   H     H_    0.840568 0.718436 0.415034 0.254746
H21   H     H_    0.961296 0.794198 0.487782 0.244563
H22   H     H_    0.747514 0.684009 0.246031 0.148553
H23   H     H_    0.839584 0.691317 0.076165 0.167165
H24   H     H_    0.353173 0.359107 0.090468 0.168290
H25   H     H_    0.890057 0.426678 0.655091 0.149095
H26   H     H_    0.696947 0.513932 0.777045 0.145075
H27   H     H_    0.380822 0.281673 0.292258 0.152102
H28   H     H_    0.640054 0.713434 0.699393 0.153262
N1    N     N_R   0.433240 0.222190 0.444680 -0.139621
N2    N     N_1   0.786211 0.315203 0.314911 -0.183422
N3    N     N_1   0.126138 0.348063 0.288518 -0.218487
N4    N     N_1   0.138886 0.578454 0.750268 -0.181406
N5    N     N_R   0.566070 0.776970 0.554790 -0.125454
N6    N     N_1   0.237841 0.802863 0.493704 -0.219066
N7    N     N_1   0.163133 0.684781 0.258524 -0.227282
N8    N     N_1   0.953511 0.685331 0.867054 -0.182216
N9    N     N_1   0.110895 0.165439 0.015331 -0.182784
N10   N     N_1   0.629612 0.987253 0.129203 -0.175266
N11   N     N_1   0.430221 0.142676 0.095680 -0.177683
N12   N     N_1   0.461597 0.142874 0.709447 -0.197045
O1    O     O_R   0.468120 0.366740 0.627160 -0.604955
O2    O     O_R   0.510770 0.544830 0.662520 -0.619825
O3    O     O_R   0.663880 0.410950 0.482330 -0.609573
O4    O     O_R   0.706530 0.589040 0.517700 -0.631081
O5    O     O_R   0.489230 0.455170 0.337480 -0.613404
O6    O     O_R   0.531880 0.633260 0.372840 -0.623799
O7    O     O_R   0.293470 0.410960 0.482300 -0.614455
O8    O     O_R   0.336120 0.589050 0.517670 -0.629634
Zn1   Zn    Zn3+2 0.471520 0.381090 0.476390 0.950703
Zn2   Zn    Zn3+2 0.528480 0.618910 0.523610 0.935692

loop_
_geom_bond_atom_site_label_1
_geom_bond_atom_site_label_2
_ccdc_geom_bond_type
C36   N8    T    
O6    Zn2   S    
C6    C45   A    
O3    Zn1   S    
C12   C29   S    
C42   N12   T    
C7    C36   S    
C1    C11   S    
C19   N5    A    
C13   C41   S    
C7    C8    A    
C12   C23   S    
C45   H23   S    
C31   H5    S    
C28   C29   S    
C16   C50   S    
C5    C6    A    
C20   C25   A    
C44   H18   S    
C18   C19   A    
C10   H22   S    
C4    O3    A    
C43   H15   S    
C8    H26   S    
C44   H17   S    
C28   H25   S    
C17   H2    S    
C39   N9    T    
C37   H6    S    
C39   C52   S    
O8    Zn2   S    
C4    O4    A    
C48   H19   S    
N5    Zn2   S    
O7    Zn1   S    
O2    Zn2   S    
C17   C18   A    
C38   H11   S    
C27   O7    A    
C23   C47   S    
C12   C27   S    
C51   C52   A    
C30   H12   S    
C23   C30   S    
C48   H21   S    
C28   C32   S    
C11   C51   A    
C14   N5    A    
C3    C8    A    
C28   H1    S    
C1    O1    A    
C38   C51   S    
O5    Zn1   S    
C27   O8    A    
C26   H27   S    
C53   H24   S    
C5    C9    A    
C49   N4    T    
C35   N7    T    
C31   C32   S    
C1    O2    A    
C22   C40   S    
C10   C45   A    
C9    C37   S    
C33   C34   S    
N1    Zn1   S    
C31   C34   S    
C13   C21   A    
C44   H16   S    
O4    Zn2   S    
C47   N3    T    
C4    C32   S    
C43   H14   S    
C29   H4    S    
C23   C35   S    
C31   C48   S    
C29   C44   S    
C25   N1    A    
C22   C24   A    
C13   C26   A    
C2    C5    A    
C12   C34   S    
C10   C50   A    
C52   C53   A    
C38   H10   S    
C15   C17   A    
C34   C49   S    
C48   H20   S    
C30   C46   S    
C9    C50   A    
C2    C53   A    
C25   C42   S    
C37   H8    S    
C16   O6    A    
C6    C7    A    
C15   H3    S    
C2    C3    A    
C33   N6    T    
C30   C32   S    
C16   O5    A    
C43   H13   S    
C19   C24   A    
C18   C20   A    
C40   N10   T    
C37   H7    S    
C3    C11   A    
C46   N2    T    
C41   N11   T    
C20   C21   A    
O1    Zn1   S    
C26   N1    A    
C24   C43   S    
C14   C15   A    
C14   H28   S    
C21   C22   A    
C38   H9    S    
