data_mof_unit_24613.cif
_audit_creation_date              2013-03-05T15:53:42-0500
_audit_creation_method            fapswitch 2.2
_symmetry_space_group_name_H-M    P1
_symmetry_Int_Tables_number       1
_space_group_crystal_system       triclinic
_cell_length_a                    15.025788
_cell_length_b                    14.750848
_cell_length_c                    17.026571
_cell_angle_alpha                 109.061605
_cell_angle_beta                  106.687158
_cell_angle_gamma                 107.677145
_cell_volume                      3069.89021207

loop_
_atom_site_label
_atom_site_type_symbol
_atom_site_description
_atom_site_fract_x
_atom_site_fract_y
_atom_site_fract_z
_atom_type_partial_charge
C1    C     C_R   0.089551 0.273500 0.044075 -0.250870
H1    H     H_    0.166704 0.290622 0.086031 0.164433
N1    N     N_R   0.055640 0.348550 0.045600 -0.068214
C2    C     C_R   0.936015 0.520545 0.747386 -0.078767
H2    H     H_    0.858709 0.501462 0.703777 0.177193
N2    N     N_R   0.960830 0.507850 0.823710 -0.050958
C3    C     C_R   0.717747 0.219988 0.827048 -0.203562
H3    H     H_    0.685780 0.174513 0.858884 0.194049
N3    N     N_R   0.811290 0.303400 0.871650 -0.073735
C4    C     C_R   0.263465 0.539310 0.953953 -0.128261
H4    H     H_    0.272067 0.571721 0.907048 0.115483
N4    N     N_R   0.205180 0.552990 0.997660 -0.048113
C5    C     C_R   0.726843 0.309965 0.746655 0.356361
N5    N     N_R   0.814810 0.361830 0.823710 -0.099955
C6    C     C_R   0.263064 0.446880 0.034618 -0.069928
H5    H     H_    0.276716 0.397260 0.065625 0.150627
N6    N     N_R   0.201660 0.494570 0.045600 -0.050978
C7    C     C_R   0.107111 0.604910 0.824726 -0.134668
H6    H     H_    0.186116 0.663803 0.853278 0.094433
N7    N     N_R   0.068420 0.560530 0.871650 -0.048059
C8    C     C_R   0.919343 0.190166 0.961640 0.521870
N8    N     N_R   0.948050 0.295860 0.997660 -0.078288
C9    C     C_R   0.006795 0.171870 0.986363 -0.036940
C10   C     C_R   0.025878 0.582351 0.746603 0.037015
C11   C     C_R   0.661251 0.221556 0.748179 -0.097639
C12   C     C_R   0.303212 0.473295 0.976640 0.088938
C13   C     C_R   0.239706 0.703628 0.265691 -0.105610
H7    H     H_    0.262246 0.678821 0.317862 0.095323
N9    N     N_R   0.185190 0.638170 0.176290 -0.041680
C14   C     C_R   0.706031 0.501623 0.917085 -0.128073
H8    H     H_    0.684860 0.527500 0.865074 0.157260
N10   N     N_R   0.798340 0.505430 0.954400 -0.075479
C15   C     C_R   0.890072 0.458820 0.187943 -0.073710
H9    H     H_    0.808773 0.431570 0.169666 0.148646
N11   N     N_R   0.931580 0.439470 0.128350 -0.040882
C16   C     C_R   0.079260 0.808232 0.026066 -0.157340
H10   H     H_    0.157282 0.868729 0.054655 0.135017
N12   N     N_R   0.051950 0.704140 0.002340 -0.053183
C17   C     C_R   0.908055 0.723399 0.952382 -0.075091
H11   H     H_    0.827952 0.704224 0.915675 0.155123
N13   N     N_R   0.944360 0.651450 0.954400 -0.053236
C18   C     C_R   0.061999 0.535841 0.266048 -0.112546
H12   H     H_    0.137677 0.570833 0.320836 0.094659
N14   N     N_R   0.039170 0.492150 0.176290 -0.046430
C19   C     C_R   0.238883 0.800438 0.189399 -0.106354
H13   H     H_    0.255306 0.866299 0.172978 0.111679
N15   N     N_R   0.188710 0.696600 0.128350 -0.043476
C20   C     C_R   0.698779 0.407918 0.995304 0.488692
N16   N     N_R   0.794820 0.447010 0.002340 -0.078874
Ni1   Ni    Ni4+2 0.119330 0.493420 0.109950 0.245144
Ni2   Ni    Ni4+2 0.880670 0.506580 0.890050 0.256653
Ni3   Ni    Ni4+2 0.872590 0.372590 0.000000 0.285397
Ni4   Ni    Ni4+2 0.127410 0.627410 0.000000 0.215382
C21   C     C_R   0.266217 0.806788 0.276801 0.062249
C22   C     C_R   0.639788 0.438758 0.939092 -0.018845
C23   C     C_R   0.970366 0.522307 0.275223 0.065153
C24   C     C_R   0.990816 0.824160 0.998078 0.161774
C25   C     C_R   0.403939 0.477752 0.884829 0.084239
C26   C     C_R   0.369502 0.436023 0.939867 -0.040440
C27   C     C_R   0.404305 0.362181 0.958793 0.288119
C28   C     C_R   0.465553 0.331550 0.917760 -0.299320
H14   H     H_    0.484963 0.269211 0.924973 0.207918
C29   C     C_R   0.528937 0.406472 0.900844 0.045664
C30   C     C_R   0.489427 0.471114 0.873488 0.008522
C31   C     C_3   0.536540 0.585061 0.889650 0.199546
C32   C     C_3   0.440071 0.590143 0.896154 -0.566013
H15   H     H_    0.546467 0.593747 0.829804 0.085236
H16   H     H_    0.454583 0.649884 0.964244 0.235843
H17   H     H_    0.390458 0.594779 0.836363 0.168633
C33   C     C_R   0.960697 0.565604 0.361498 0.102438
C34   C     C_R   0.032766 0.624502 0.680363 0.083740
C35   C     C_R   0.134695 0.691573 0.607278 -0.167000
C36   C     C_R   0.129286 0.678652 0.683225 -0.150890
C37   C     C_R   0.942085 0.598245 0.606561 -0.196508
C38   C     C_R   0.946332 0.603833 0.527584 0.066426
C39   C     C_R   0.043934 0.646362 0.527012 0.108230
C40   C     C_R   0.049959 0.631233 0.444277 -0.255136
C41   C     C_R   0.863231 0.535289 0.362842 -0.326859
C42   C     C_R   0.855200 0.555974 0.446243 0.517029
H18   H     H_    0.125423 0.661576 0.444761 0.122216
H19   H     H_    0.793206 0.490314 0.299535 0.147707
H20   H     H_    0.209909 0.726691 0.608153 0.121934
H21   H     H_    0.200938 0.703975 0.740663 0.117674
H22   H     H_    0.867449 0.561970 0.605648 0.188128
C43   C     C_R   0.552058 0.147873 0.685799 0.136206
C44   C     C_R   0.307539 0.901523 0.364508 0.111003
C45   C     C_R   0.386075 0.093516 0.455102 -0.145272
C46   C     C_R   0.333111 0.003803 0.369623 -0.138407
C47   C     C_R   0.323772 0.889577 0.445137 -0.249988
C48   C     C_R   0.384130 0.978141 0.529999 0.185573
C49   C     C_R   0.418482 0.080925 0.534978 0.129374
C50   C     C_R   0.496054 0.167154 0.616801 -0.205534
C51   C     C_R   0.508811 0.048458 0.685121 -0.146691
C52   C     C_R   0.422265 0.964457 0.608236 -0.216524
H23   H     H_    0.519612 0.245706 0.620779 0.184154
H24   H     H_    0.546652 0.031730 0.739325 0.134773
H25   H     H_    0.410803 0.172171 0.458115 0.169207
H26   H     H_    0.394677 0.886159 0.605819 0.128699
H27   H     H_    0.316679 0.015213 0.308361 0.162996
H28   H     H_    0.299136 0.811666 0.443148 0.110605
C53   C     C_R   0.103205 0.056988 0.987008 0.032129
C54   C     C_R   0.013041 0.067989 0.949393 0.048951
C55   C     C_R   0.932890 0.978771 0.866656 -0.130659
H29   H     H_    0.859617 0.977597 0.833813 0.149832
C56   C     C_R   0.950228 0.893003 0.818002 -0.208438
H30   H     H_    0.890380 0.829758 0.751824 0.153270
C57   C     C_R   0.047643 0.894257 0.850081 0.070376
C58   C     C_R   0.119871 0.972993 0.937813 0.034671
C59   C     C_3   0.232806 0.037146 0.974506 -0.507780
C60   C     C_3   0.215837 0.130454 0.028566 0.246760
H31   H     H_    0.278152 0.009741 0.017415 0.219290
H32   H     H_    0.256414 0.046759 0.920418 0.194779
H33   H     H_    0.231233 0.194609 0.006840 0.077367
O1    O     O_3   0.663404 0.329506 0.020227 -0.769223
H34   H     H_    0.623706 0.351153 0.054018 0.341475
N17   N     N_R   0.411488 0.347399 0.039235 0.214957
O2    O     O_R   0.454216 0.432061 0.118004 -0.360449
O3    O     O_R   0.416253 0.261151 0.040251 -0.411224
N18   N     N_R   0.627513 0.657592 0.977894 0.252871
O4    O     O_R   0.631488 0.649449 0.052624 -0.360766
O5    O     O_R   0.699311 0.739244 0.983962 -0.398970
O6    O     O_3   0.759986 0.521873 0.448663 -0.728156
H35   H     H_    0.704621 0.489491 0.385612 0.348870
N19   N     N_R   0.265428 0.168419 0.128170 0.268459
O7    O     O_R   0.327683 0.268934 0.182002 -0.326799
O8    O     O_R   0.247826 0.102912 0.163936 -0.412811
N20   N     N_R   0.700348 0.353229 0.684708 0.198027
O9    O     O_R   0.686814 0.304846 0.600246 -0.400093
O10   O     O_R   0.689951 0.441034 0.712218 -0.473437
O11   O     O_3   0.819421 0.115166 0.924788 -0.745826
H36   H     H_    0.794007 0.090759 0.857655 0.286494

loop_
_geom_bond_atom_site_label_1
_geom_bond_atom_site_label_2
_geom_bond_distance
_ccdc_geom_bond_type
C20   C22   1.396698 A    
C32   H16   1.113104 S    
C45   C46   1.392851 A    
C51   C52   1.387240 A    
C45   C49   1.400295 A    
C13   N9    1.328136 A    
C35   C39   1.397965 A    
O1    H34   0.990735 S    
C13   C21   1.382238 A    
C3    H3    1.079758 S    
C17   N13   1.337829 A    
C19   H13   1.074407 S    
C58   C59   1.481619 S    
C56   C57   1.399642 A    
C53   C54   1.405375 A    
N9    N15   1.366949 A    
C7    C10   1.379026 A    
N8    Ni3   1.828688 S    
C16   H10   1.077445 S    
C7    H6    1.080123 S    
N19   O8    1.302369 A    
C59   H31   1.111639 S    
C14   H8    1.078829 S    
C2    C10   1.387537 A    
C44   C46   1.405118 A    
C9    C54   1.498100 S    
C33   C41   1.404801 A    
C52   H26   1.084372 S    
C6    H5    1.066747 S    
C17   C24   1.388320 A    
N17   O2    1.301961 A    
C6    N6    1.337322 A    
C1    H1    1.070889 S    
C28   C29   1.391976 A    
C60   N19   1.464738 S    
C43   C51   1.406693 A    
C25   C32   1.504951 S    
C31   H15   1.112613 S    
C22   C29   1.455314 S    
N4    N6    1.366832 A    
C57   C58   1.388673 A    
N2    Ni2   1.873071 S    
C12   C26   1.467077 S    
N4    Ni4   1.830137 S    
N15   Ni4   1.866040 S    
C18   C23   1.391756 A    
C4    C12   1.385839 A    
C15   C23   1.384274 A    
C19   N15   1.343006 A    
C26   C27   1.429043 A    
C5    N5    1.337178 A    
C33   C40   1.399013 A    
C5    C11   1.388879 A    
C54   C55   1.420946 A    
N3    Ni3   1.866043 S    
C18   N14   1.337896 A    
C43   C50   1.401797 A    
C48   C52   1.396806 A    
N9    Ni1   1.820363 S    
N18   O5    1.300304 A    
C25   C30   1.379621 A    
C8    O11   1.366992 S    
C42   O6    1.382689 S    
C37   C38   1.391976 A    
C47   H28   1.080732 S    
C39   C40   1.386571 A    
N12   N13   1.395908 A    
C2    N2    1.336404 A    
C16   C24   1.395513 A    
C59   H32   1.111939 S    
C17   H11   1.079383 S    
C21   C44   1.464892 S    
N3    N5    1.366951 A    
C41   C42   1.400694 A    
N7    Ni4   1.866292 S    
C6    C12   1.393083 A    
C53   C60   1.495598 S    
C50   H23   1.076284 S    
C27   C28   1.398160 A    
C1    N1    1.348049 A    
C5    N20   1.425156 S    
C38   C39   1.413459 A    
N20   O10   1.299994 A    
N10   Ni2   1.873208 S    
N5    Ni2   1.820365 S    
N16   Ni3   1.830135 S    
C11   C43   1.470902 S    
C15   H9    1.073522 S    
C31   N18   1.467330 S    
C55   C56   1.412189 A    
N11   N14   1.395904 A    
C60   H33   1.109396 S    
C4    N4    1.320996 A    
C20   N16   1.334015 A    
C19   C21   1.388036 A    
C1    C9    1.401145 A    
C51   H24   1.080978 S    
C23   C33   1.467299 S    
C8    C9    1.395936 A    
C27   N17   1.435123 S    
C18   H12   1.072164 S    
N1    Ni1   1.819184 S    
C47   C48   1.382716 A    
C49   C50   1.388151 A    
C20   O1    1.370105 S    
C56   H30   1.081955 S    
C40   H18   1.081737 S    
N14   Ni1   1.873073 S    
C3    N3    1.338877 A    
C37   H22   1.079049 S    
C35   C36   1.388177 A    
C44   C47   1.402510 A    
N6    Ni1   1.873206 S    
C34   C37   1.401398 A    
N18   O4    1.302889 A    
N13   Ni2   1.819183 S    
N2    N7    1.395904 A    
C14   C22   1.368082 A    
C3    C11   1.379120 A    
C30   C31   1.505127 S    
C16   N12   1.343938 A    
O11   H36   0.989468 S    
C25   C26   1.409473 A    
C59   C60   1.525486 S    
C14   N10   1.324357 A    
N11   Ni3   1.866289 S    
C41   H19   1.080165 S    
C48   C49   1.409973 A    
N12   Ni4   1.828688 S    
C53   C58   1.389413 A    
C15   N11   1.335051 A    
N17   O3    1.301134 A    
C7    N7    1.334963 A    
C28   H14   1.077853 S    
N10   N16   1.366830 A    
C46   H27   1.081341 S    
C4    H4    1.074360 S    
C29   C30   1.397744 A    
C32   H17   1.112395 S    
C2    H2    1.072113 S    
C31   C32   1.507231 S    
C34   C36   1.405070 A    
C55   H29   1.074104 S    
N1    N8    1.395906 A    
C45   H25   1.084054 S    
O6    H35   0.991748 S    
C8    N8    1.344624 A    
C38   C42   1.405961 A    
C36   H21   1.080541 S    
C35   H20   1.084230 S    
N20   O9    1.300903 A    
C10   C34   1.468095 S    
N19   O7    1.300435 A    
C13   H7    1.073539 S    
