data_mof_unit_7697.cif
_audit_creation_date              2012-12-11T21:12:33-0500
_audit_creation_method            fapswitch 2.2
_symmetry_space_group_name_H-M    P1
_symmetry_Int_Tables_number       1
_space_group_crystal_system       triclinic
_cell_length_a                    8.222996
_cell_length_b                    18.769208
_cell_length_c                    27.006319
_cell_angle_alpha                 99.216799
_cell_angle_beta                  92.880879
_cell_angle_gamma                 88.432471
_cell_volume                      4108.33060454

loop_
_atom_site_label
_atom_site_type_symbol
_atom_type_description
_atom_site_fract_x
_atom_site_fract_y
_atom_site_fract_z
_atom_type_partial_charge
Ba1   Ba    Ba6+2 0.160810 0.465630 0.521640 1.641288
Ba2   Ba    Ba6+2 0.649380 0.534380 0.478400 1.640820
C1    C     C_3   0.430460 0.280752 0.699567 -0.361578
C2    C     C_R   0.061261 0.095559 0.447073 -0.090218
C3    C     C_R   0.199000 0.951574 0.454318 -0.102843
C4    C     C_3   0.963847 0.271175 0.626727 0.370199
C5    C     C_R   0.049504 0.976143 0.475248 0.018503
C6    C     C_R   0.255252 0.881005 0.453710 -0.093200
C7    C     C_R   0.165710 0.831273 0.473993 -0.031061
C8    C     C_R   0.020491 0.855180 0.498229 -0.000519
C9    C     C_R   0.962682 0.927980 0.499278 0.024098
C10   C     C_R   0.217726 0.758394 0.471227 -0.014556
C11   C     C_R   0.121426 0.709755 0.490025 -0.299880
C12   C     C_3   0.437091 0.305331 0.648832 0.341009
C13   C     C_R   0.984717 0.732866 0.517174 0.042876
C14   C     C_R   0.935185 0.806729 0.522403 -0.042349
C15   C     C_R   0.843103 0.071515 0.499106 0.024265
C16   C     C_3   0.995401 0.198878 0.644430 -0.365911
C17   C     C_R   0.784764 0.144211 0.499874 0.001211
C18   C     C_R   0.871159 0.192847 0.476133 -0.040109
C19   C     C_R   0.003881 0.165995 0.447844 -0.026534
C20   C     C_R   0.804169 0.833916 0.551391 -0.025005
C21   C     C_R   0.746439 0.904324 0.552088 -0.088796
C22   C     C_R   0.819164 0.952010 0.524588 0.011521
C23   C     C_3   0.463712 0.314241 0.394268 0.314922
C24   C     C_R   0.756403 0.023361 0.523196 0.018216
C25   C     C_R   0.606580 0.047786 0.543950 -0.102524
C26   C     C_R   0.638722 0.167950 0.523688 -0.033689
C27   C     C_R   0.549528 0.118203 0.544155 -0.093114
C28   C     C_3   0.840211 0.621908 0.631703 0.299843
C29   C     C_R   0.585656 0.240665 0.525885 -0.005930
C30   C     C_R   0.680446 0.289159 0.506301 -0.299866
C31   C     C_R   0.820942 0.266558 0.480945 0.034977
C32   C     C_R   0.316173 0.460760 0.177047 0.593020
C33   C     C_R   0.180184 0.574810 0.173662 0.579232
C34   C     C_3   0.457690 0.233060 0.377469 -0.386787
C35   C     C_2   0.055548 0.555433 0.272759 -0.087998
C36   C     C_3   0.048343 0.580126 0.328631 -0.049950
C37   C     C_1   0.282976 0.499608 0.337783 0.005233
C38   C     C_2   0.322214 0.502103 0.291040 -0.097092
C39   C     C_2   0.196865 0.525925 0.254115 0.189457
C40   C     C_3   0.845862 0.638715 0.688722 -0.358462
C41   C     C_R   0.308290 0.511803 0.099136 -0.081457
C42   C     C_R   0.362851 0.457722 0.127109 -0.033108
C43   C     C_R   0.464009 0.401687 0.104788 -0.059856
C44   C     C_R   0.212224 0.569585 0.122341 -0.024393
C45   C     C_3   0.839948 0.732572 0.375095 0.381140
C46   C     C_2   0.157771 0.536031 0.358965 -0.287407
C47   C     C_2   0.648602 0.471364 0.637007 -0.292091
C48   C     C_R   0.493477 0.446870 0.974681 0.020686
C49   C     C_R   0.335471 0.559763 0.969289 0.020821
C50   C     C_R   0.435691 0.501645 0.946797 0.048347
C51   C     C_R   0.590391 0.389612 0.950121 -0.102368
C52   C     C_3   0.964887 0.381852 0.369322 0.297893
C53   C     C_R   0.626649 0.385722 0.900114 -0.059360
C54   C     C_R   0.571031 0.439331 0.872309 -0.023155
C55   C     C_R   0.478370 0.498112 0.895767 -0.081755
C56   C     C_3   0.807288 0.805265 0.358061 -0.363878
C57   C     C_R   0.427934 0.553107 0.868083 -0.033238
C58   C     C_R   0.475412 0.549819 0.818115 0.595345
C59   C     C_R   0.605038 0.434385 0.821245 0.577298
C60   C     C_2   0.739663 0.453338 0.724124 -0.088557
C61   C     C_3   0.750643 0.426579 0.668789 -0.052899
C62   C     C_1   0.519625 0.507911 0.655875 0.034209
C63   C     C_2   0.478069 0.508972 0.703070 -0.103924
C64   C     C_3   0.971783 0.365353 0.312468 -0.362312
C65   C     C_2   0.598047 0.484223 0.741302 0.182517
C66   C     C_R   0.452270 0.450675 0.025743 0.020986
C67   C     C_3   0.365623 0.697334 0.350539 0.348503
C68   C     C_R   0.350426 0.508272 0.048059 0.048361
C69   C     C_R   0.290654 0.562511 0.019986 0.020427
C70   C     C_R   0.509433 0.398642 0.055602 -0.099909
C71   C     C_R   0.151272 0.621730 0.094014 -0.059437
C72   C     C_R   0.284550 0.613553 0.940066 -0.099703
C73   C     C_R   0.331033 0.610521 0.890905 -0.060016
C74   C     C_R   0.187539 0.617878 0.043927 -0.101836
C75   C     C_3   0.333103 0.685779 0.591584 0.315718
C76   C     C_3   0.336411 0.767389 0.607224 -0.383282
C77   C     C_3   0.372571 0.723120 0.300161 -0.364279
C78   C     C_R   0.987240 0.047614 0.474075 0.011816
H1    H     H_    0.373457 0.358731 0.650818 0.078255
H2    H     H_    0.205738 0.669249 0.582828 0.005115
H3    H     H_    0.405937 0.671199 0.557795 0.066171
H4    H     H_    0.302172 0.273396 0.708471 0.149506
H5    H     H_    0.260766 0.783807 0.640206 0.128335
H6    H     H_    0.287532 0.794703 0.575985 0.057827
H7    H     H_    0.463588 0.784890 0.617159 0.119150
H8    H     H_    0.566743 0.310291 0.640853 -0.053790
H9    H     H_    0.485518 0.322180 0.728970 0.132495
H10   H     H_    0.593151 0.329536 0.401574 0.016446
H11   H     H_    0.397518 0.327339 0.429550 0.056502
H12   H     H_    0.761372 0.684331 0.701194 0.133320
H13   H     H_    0.524886 0.217674 0.342571 0.131654
H14   H     H_    0.514781 0.204801 0.407231 0.054986
H15   H     H_    0.329252 0.216035 0.370323 0.120175
H16   H     H_    0.499161 0.228813 0.699349 0.115817
H17   H     H_    0.931737 0.155659 0.618091 0.071575
H18   H     H_    0.798395 0.735508 0.413882 0.078679
H19   H     H_    0.973578 0.722966 0.375492 -0.079910
H20   H     H_    0.675717 0.820109 0.359683 0.151035
H21   H     H_    0.877562 0.847637 0.383135 0.069718
H22   H     H_    0.845476 0.802954 0.318860 0.119616
H23   H     H_    0.809466 0.590948 0.704518 0.068910
H24   H     H_    0.236002 0.695716 0.359433 -0.059015
H25   H     H_    0.421943 0.642419 0.347333 0.073060
H26   H     H_    0.500841 0.725852 0.289816 0.151271
H27   H     H_    0.013041 0.268366 0.588847 0.083077
H28   H     H_    0.314298 0.777469 0.302081 0.114990
H29   H     H_    0.159865 0.653666 0.486457 0.070023
H30   H     H_    0.370130 0.866233 0.436817 0.111655
H31   H     H_    0.066230 0.198899 0.425792 0.096419
H32   H     H_    0.742948 0.801216 0.573849 0.096719
H33   H     H_    0.434028 0.132794 0.560707 0.113220
H34   H     H_    0.971396 0.653183 0.703167 0.135136
H35   H     H_    0.640464 0.344994 0.509007 0.076205
H36   H     H_    0.278193 0.986026 0.438681 0.071615
H37   H     H_    0.163167 0.080048 0.423907 0.059889
H38   H     H_    0.645472 0.920101 0.575603 0.060115
H39   H     H_    0.829631 0.279725 0.623871 -0.075039
H40   H     H_    0.527690 0.013213 0.559620 0.072243
H41   H     H_    0.445480 0.488478 0.279786 0.135514
H42   H     H_    0.511207 0.360167 0.125669 0.122283
H43   H     H_    0.836535 0.438593 0.749602 0.128220
H44   H     H_    0.700352 0.340198 0.883295 0.122509
H45   H     H_    0.084417 0.400952 0.385756 0.013118
H46   H     H_    0.639514 0.345903 0.968106 0.069020
H47   H     H_    0.590671 0.354462 0.042417 0.069212
H48   H     H_    0.955639 0.570002 0.248288 0.125878
H49   H     H_    0.073219 0.665901 0.110460 0.121584
H50   H     H_    0.209409 0.659667 0.954029 0.069173
H51   H     H_    0.128027 0.185793 0.645573 0.149680
H52   H     H_    0.288605 0.653361 0.870512 0.121845
H53   H     H_    0.355578 0.525552 0.713699 0.143118
H54   H     H_    0.131962 0.659575 0.025156 0.069030
H55   H     H_    0.153579 0.547864 0.399581 0.079129
H56   H     H_    0.871954 0.425020 0.378916 0.088074
H57   H     H_    0.662023 0.460154 0.596740 0.086921
H58   H     H_    0.948939 0.200747 0.682643 0.120878
H59   H     H_    0.714412 0.608785 0.617959 0.013132
H60   H     H_    0.922349 0.574925 0.620398 0.077913
H61   H     H_    0.307098 0.684991 0.270765 0.124498
H62   H     H_    0.069705 0.324638 0.301765 0.143040
H63   H     H_    0.996758 0.415183 0.297340 0.068326
H64   H     H_    0.853092 0.344148 0.295638 0.130387
N1    N     N_R   0.229226 0.519977 0.200682 -0.422426
N2    N     N_R   0.560531 0.490006 0.794405 -0.421026
O1    O     O_2   0.106080 0.324280 0.466820 -0.461969
O2    O     O_2   0.719529 0.537778 0.325276 -0.496675
O3    O     O_3   0.755932 0.678239 0.342423 -0.584850
O4    O     O_3   0.859130 0.413620 0.470620 -0.487987
O5    O     O_3   0.459240 0.537930 0.559910 -0.492163
O6    O     O_2   0.583120 0.462390 0.379940 -0.459555
O7    O     O_3   0.391120 0.349471 0.356345 -0.627062
O8    O     O_2   0.556476 0.757687 0.480435 -0.490591
O9    O     O_3   0.451587 0.744951 0.387279 -0.600351
O10   O     O_2   0.351985 0.410121 0.199234 -0.597771
O11   O     O_2   0.672086 0.379495 0.800543 -0.619290
O12   O     O_3   0.397500 0.653018 0.631447 -0.622390
O13   O     O_2   0.111497 0.629236 0.194412 -0.615579
O14   O     O_2   0.442332 0.600809 0.796061 -0.599869
O15   O     O_3   0.376230 0.370290 0.556910 -0.483596
O16   O     O_2   0.246565 0.243237 0.520155 -0.488624
O17   O     O_3   0.924891 0.318910 0.387131 -0.642513
O18   O     O_3   0.360235 0.254296 0.612173 -0.606740
O19   O     O_2   0.227190 0.537650 0.620070 -0.462418
O20   O     O_3   0.971110 0.406970 0.583250 -0.483027
O21   O     O_2   0.081843 0.466239 0.674868 -0.494783
O22   O     O_3   0.040600 0.326285 0.660761 -0.588634
O23   O     O_2   0.704230 0.675760 0.533200 -0.467873
O24   O     O_3   0.951180 0.586390 0.529420 -0.490217
O25   O     O_3   0.434080 0.629720 0.443130 -0.479231
O26   O     O_3   0.889370 0.682707 0.612896 -0.640378
O27   O     O_3   0.351080 0.462080 0.440130 -0.479553
O28   O     O_3   0.839200 0.593040 0.416790 -0.479777
P1    P     P_3+3 0.929380 0.335110 0.452880 0.974867
P2    P     P_3+3 0.398530 0.559060 0.613740 0.996731
P3    P     P_3+3 0.962224 0.409161 0.647736 0.951717
P4    P     P_3+3 0.880940 0.664900 0.547160 0.974589
P5    P     P_3+3 0.839421 0.594763 0.352444 0.955843
P6    P     P_3+3 0.392495 0.276646 0.553105 0.938314
P7    P     P_3+3 0.397939 0.442794 0.376733 0.963376
P8    P     P_3+3 0.414488 0.723146 0.446149 0.937264

loop_
_geom_bond_atom_site_label_1
_geom_bond_atom_site_label_2
_ccdc_geom_bond_type
C76   H7    S    
Ba2   O4    S    
C53   C54   A    
Ba1   P2    S    
C47   C61   S    
C47   H57   S    
C25   C27   A    
C4    H39   S    
C46   H55   S    
C17   C18   A    
C49   C72   A    
C41   C42   A    
O17   P1    S    
C40   H23   S    
C21   H38   S    
O9    P8    S    
C75   C76   S    
C42   C43   A    
O19   P2    D    
C5    C9    A    
C38   H41   S    
Ba1   O27   S    
C24   C25   A    
C67   O9    S    
C45   H18   S    
C58   N2    Am   
C60   C65   D    
O24   P4    S    
C15   C24   A    
Ba1   O20   S    
C26   C27   A    
C22   C24   A    
C2    C78   A    
C59   O11   D    
Ba2   O27   S    
C69   C74   A    
C32   N1    Am   
O1    P1    D    
C55   C57   A    
C64   H64   S    
C75   H3    S    
C13   C14   A    
C9    C22   A    
O3    P5    S    
C45   H19   S    
C54   C55   A    
Ba1   Ba2   S    
C33   N1    Am   
C16   H58   S    
C11   H29   S    
O25   P8    S    
C34   H13   S    
C40   H34   S    
C10   P8    S    
C45   O3    S    
C6    C7    A    
C63   C65   S    
C48   C50   A    
C21   C22   A    
C1    H16   S    
C56   H22   S    
C16   H17   S    
C52   O17   S    
C62   P2    S    
C7    C8    A    
O16   P6    D    
O18   P6    S    
C75   O12   S    
C35   H48   S    
C76   H6    S    
O4    P1    S    
C4    H27   S    
Ba1   O15   S    
C57   C58   A    
C47   C62   D    
C43   C70   A    
C12   O18   S    
C16   H51   S    
C49   C69   A    
C65   N2    S    
C60   H43   S    
C19   H31   S    
C4    O22   S    
C51   C53   A    
Ba2   O6    S    
C4    C16   S    
C52   H45   S    
C71   H49   S    
C23   H11   S    
C48   C51   A    
C28   H60   S    
C72   C73   A    
C70   H47   S    
C23   O7    S    
C49   C50   A    
C56   H20   S    
C67   H25   S    
C8    C9    A    
C37   C38   D    
C3    C5    A    
C74   H54   S    
C64   H63   S    
Ba2   O23   S    
C25   H40   S    
C15   C78   A    
O5    P2    S    
C77   H26   S    
C28   H59   S    
C59   N2    Am   
C35   C36   S    
C6    H30   S    
C29   C30   A    
Ba1   O19   S    
C66   C70   A    
C52   H56   S    
C60   C61   S    
C23   H10   S    
C32   C42   A    
Ba1   O4    S    
C56   H21   S    
C10   C11   A    
O15   P6    S    
C17   C26   A    
C28   O26   S    
C37   P7    S    
C1    C12   S    
Ba2   O24   S    
C64   H62   S    
C18   C31   A    
C76   H5    S    
O12   P2    S    
C38   C39   S    
O21   P3    D    
O7    P7    S    
C41   C68   A    
O20   P3    S    
C11   C13   A    
C3    H36   S    
C71   C74   A    
C2    H37   S    
C67   C77   S    
C57   C73   A    
O23   P4    D    
C68   C69   A    
C5    C78   A    
C73   H52   S    
C67   H24   S    
O26   P4    S    
Ba2   O5    S    
C27   H33   S    
C53   H44   S    
Ba1   P1    S    
C14   C20   A    
C36   P5    S    
C54   C59   A    
C36   C46   S    
C26   C29   A    
Ba1   O24   S    
C58   O14   D    
C3    C6    A    
C52   C64   S    
C32   O10   D    
C43   H42   S    
O2    P5    D    
Ba2   O25   S    
C20   H32   S    
C61   P3    S    
C29   P6    S    
C1    H9    S    
C62   C63   D    
C72   H50   S    
C12   H8    S    
C8    C14   A    
C30   C31   A    
C45   C56   S    
C2    C19   A    
C34   H15   S    
C77   H61   S    
C41   C44   A    
C75   H2    S    
O8    P8    D    
C15   C17   A    
C77   H28   S    
Ba1   O5    S    
C40   H12   S    
C30   H35   S    
C35   C39   D    
C31   P1    S    
C7    C10   A    
C33   O13   D    
Ba1   O1    S    
C50   C55   A    
Ba2   O28   S    
C23   C34   S    
O27   P7    S    
C34   H14   S    
C39   N1    S    
C18   C19   A    
C66   C68   A    
C13   P4    S    
C1    H4    S    
C20   C21   A    
C28   C40   S    
Ba2   P4    S    
C12   H1    S    
C51   H46   S    
O6    P7    D    
C33   C44   A    
C48   C66   A    
O28   P5    S    
C44   C71   A    
C63   H53   S    
O22   P3    S    
C37   C46   D    
