data_mof_unit_47295.cif
_audit_creation_date              2013-03-05T15:58:43-0500
_audit_creation_method            fapswitch 2.2
_symmetry_space_group_name_H-M    P1
_symmetry_Int_Tables_number       1
_space_group_crystal_system       triclinic
_cell_length_a                    15.891614
_cell_length_b                    14.957676
_cell_length_c                    13.926633
_cell_angle_alpha                 90.103504
_cell_angle_beta                  90.305291
_cell_angle_gamma                 86.155704
_cell_volume                      3302.88417733

loop_
_atom_site_label
_atom_site_type_symbol
_atom_site_description
_atom_site_fract_x
_atom_site_fract_y
_atom_site_fract_z
_atom_type_partial_charge
O1    O     O_R   0.500020 0.370250 0.582280 -0.541139
O2    O     O_R   0.499980 0.629750 0.417720 -0.550778
O3    O     O_R   0.500010 0.370270 0.417740 -0.557061
O4    O     O_R   0.499990 0.629730 0.582260 -0.540702
C1    C     C_R   0.507973 0.328475 0.499422 0.878289
C2    C     C_R   0.492154 0.671578 0.499420 0.886510
O5    O     O_R   0.379080 0.499980 0.582260 -0.536935
O6    O     O_R   0.620920 0.500020 0.417740 -0.543798
O7    O     O_R   0.379070 0.500000 0.417710 -0.547663
O8    O     O_R   0.620930 0.500000 0.582290 -0.540353
C3    C     C_R   0.340568 0.496421 0.499532 0.834658
C4    C     C_R   0.659431 0.503279 0.500290 0.840205
Cu1   Cu    Cu3+1 0.500010 0.499990 0.597420 1.112533
Cu2   Cu    Cu3+1 0.499990 0.500010 0.402580 1.111535
C5    C     C_3   0.976744 0.440144 0.562018 0.151168
C6    C     C_3   0.022995 0.564098 0.439449 0.145074
C7    C     C_3   0.029927 0.421569 0.471355 0.133873
C8    C     C_3   0.969660 0.582650 0.529872 0.141766
C9    C     C_1   0.251253 0.495474 0.498020 -0.060415
C10   C     C_1   0.748615 0.505248 0.501565 -0.044055
C11   C     C_3   0.030716 0.518861 0.588263 0.252204
C12   C     C_3   0.969060 0.485612 0.412979 0.254030
C13   C     C_3   0.084377 0.499891 0.497033 -0.250625
C14   C     C_3   0.915295 0.504196 0.504267 -0.252724
C15   C     C_1   0.175904 0.496651 0.496656 0.213905
C16   C     C_1   0.823853 0.505471 0.503552 0.232649
C17   C     C_R   0.411301 0.823563 0.479392 0.385481
C18   C     C_R   0.587743 0.176407 0.477007 0.388857
C19   C     C_R   0.487881 0.769952 0.494470 -0.135281
C20   C     C_R   0.511942 0.230175 0.494580 -0.123829
C21   C     C_R   0.565157 0.806887 0.483146 -0.147785
C22   C     C_R   0.434368 0.193333 0.486978 -0.164906
C23   C     C_R   0.570107 0.896572 0.458311 0.005965
C24   C     C_R   0.428262 0.103566 0.462684 0.011503
C25   C     C_R   0.495866 0.953369 0.457805 -0.033753
C26   C     C_R   0.502299 0.046760 0.458193 -0.031747
C27   C     C_R   0.415533 0.917041 0.458038 -0.109133
C28   C     C_R   0.582502 0.083144 0.455222 -0.112155
C29   C     C_R   0.646805 0.930440 0.429574 0.294519
C30   C     C_R   0.350323 0.070155 0.437327 0.286022
C31   C     C_R   0.652836 0.024432 0.427230 0.226680
C32   C     C_R   0.344005 0.976253 0.433882 0.226829
H1    H     H_    0.622026 0.764057 0.494091 0.192584
H2    H     H_    0.378163 0.236559 0.499760 0.170951
C33   C     C_R   0.556109 0.443580 0.793944 0.429425
C34   C     C_R   0.447636 0.560474 0.206573 0.438323
N1    N     N_R   0.499960 0.499930 0.743810 -0.302345
N2    N     N_R   0.500040 0.500070 0.256190 -0.301903
C35   C     C_R   0.443811 0.556205 0.793608 0.433367
C36   C     C_R   0.552716 0.439804 0.207068 0.439812
C37   C     C_R   0.441945 0.557769 0.896863 -0.191036
C38   C     C_R   0.557388 0.441556 0.104250 -0.188185
C39   C     C_R   0.499988 0.499862 0.948735 -0.009518
C40   C     C_R   0.500029 0.499865 0.052174 -0.008749
C41   C     C_R   0.557975 0.441951 0.897238 -0.191272
C42   C     C_R   0.442752 0.558264 0.103779 -0.188754
C43   C     C_R   0.383125 0.614301 0.950246 0.254507
C44   C     C_R   0.617267 0.386521 0.051970 0.250761
C45   C     C_R   0.382623 0.613004 0.051158 0.249652
C46   C     C_R   0.616669 0.385278 0.951029 0.251370
N3    N     N_R   0.062203 0.334095 0.436478 0.197859
O9    O     O_R   0.039626 0.261307 0.477031 -0.164867
O10   O     O_R   0.107045 0.328516 0.358643 -0.237875
N4    N     N_R   0.938351 0.671349 0.562183 0.215538
O11   O     O_R   0.990229 0.734277 0.572988 -0.172425
O12   O     O_R   0.859432 0.686865 0.584698 -0.268701
N5    N     N_R   0.320600 0.673401 0.904425 0.188749
O13   O     O_R   0.334796 0.757618 0.895261 -0.196510
O14   O     O_R   0.243210 0.650208 0.899485 -0.191143
N6    N     N_R   0.684704 0.335459 0.099505 0.187163
O15   O     O_R   0.755104 0.372528 0.116185 -0.203028
O16   O     O_R   0.683444 0.248695 0.104377 -0.167447
N7    N     N_R   0.314818 0.663266 0.098350 0.185887
O17   O     O_R   0.245765 0.624606 0.116753 -0.201634
O18   O     O_R   0.314387 0.750211 0.102416 -0.167561
N8    N     N_R   0.678833 0.325850 0.905586 0.188120
O19   O     O_R   0.664454 0.241622 0.896540 -0.195533
O20   O     O_R   0.756216 0.348914 0.900755 -0.183816
N9    N     N_R   0.954215 0.372636 0.630939 0.220134
O21   O     O_R   0.013128 0.323319 0.674442 -0.181735
O22   O     O_R   0.875975 0.365991 0.654852 -0.248716
N10   N     N_R   0.045999 0.632874 0.372352 0.217663
O23   O     O_R   0.987454 0.684591 0.331278 -0.190780
O24   O     O_R   0.124728 0.642638 0.352693 -0.200082
S1    S     S_3+6 0.928250 0.463174 0.296516 0.158216
O25   O     O_2   0.888218 0.374979 0.297990 -0.140814
O26   O     O_2   0.863351 0.536515 0.269093 -0.230883
O27   O     O_3   0.007410 0.458778 0.216731 -0.414063
H3    H     H_    0.979988 0.449550 0.153728 0.409235
S2    S     S_3+6 0.070928 0.542102 0.704801 0.152296
O28   O     O_2   0.132187 0.466558 0.735572 -0.202227
O29   O     O_2   0.115097 0.627775 0.701857 -0.169075
O30   O     O_3   0.990448 0.552626 0.782707 -0.426291
H4    H     H_    0.016977 0.565179 0.845388 0.409429
S3    S     S_3+6 0.312407 0.777728 0.501862 0.121497
O31   O     O_2   0.260217 0.841131 0.564995 -0.177042
O32   O     O_2   0.266497 0.763640 0.409153 -0.132884
O33   O     O_3   0.322196 0.679363 0.557550 -0.512181
H5    H     H_    0.263360 0.666359 0.572368 0.405581
S4    S     S_3+6 0.687225 0.221586 0.498750 0.119690
O34   O     O_2   0.741352 0.156580 0.558452 -0.174472
O35   O     O_2   0.730723 0.238606 0.405776 -0.142919
O36   O     O_3   0.677772 0.318239 0.558214 -0.512185
H6    H     H_    0.736694 0.332535 0.570672 0.409841
S5    S     S_3+6 0.730882 0.856097 0.384617 0.123802
O37   O     O_2   0.775624 0.897767 0.302942 -0.120844
O38   O     O_2   0.792719 0.835833 0.464888 -0.179033
O39   O     O_3   0.694890 0.759759 0.343462 -0.523523
H7    H     H_    0.745058 0.716757 0.341380 0.397699
S6    S     S_3+6 0.265141 0.146521 0.398365 0.136894
O40   O     O_2   0.207509 0.105015 0.327727 -0.087386
O41   O     O_2   0.215151 0.176870 0.485208 -0.216466
O42   O     O_3   0.303383 0.235835 0.344102 -0.492932
H8    H     H_    0.274387 0.289223 0.374505 0.371962
N11   N     N_R   0.724178 0.059001 0.381328 0.194542
O43   O     O_R   0.799608 0.043076 0.416947 -0.148085
O44   O     O_R   0.715480 0.091559 0.294975 -0.182424
N12   N     N_R   0.270643 0.942635 0.390541 0.192654
O45   O     O_R   0.197235 0.956258 0.431076 -0.149263
O46   O     O_R   0.274747 0.914077 0.302251 -0.183016
N13   N     N_R   0.613696 0.386200 0.740869 0.170917
O47   O     O_R   0.596565 0.303361 0.726506 -0.254956
O48   O     O_R   0.690344 0.409562 0.728939 -0.265785
N14   N     N_R   0.402692 0.630537 0.258948 0.156685
O49   O     O_R   0.328267 0.618501 0.292872 -0.234739
O50   O     O_R   0.429278 0.710943 0.257440 -0.285755
N15   N     N_R   0.386040 0.613439 0.740240 0.170080
O51   O     O_R   0.309266 0.590127 0.728219 -0.266902
O52   O     O_R   0.403133 0.696247 0.726130 -0.257384
N16   N     N_R   0.599223 0.371195 0.260156 0.157362
O53   O     O_R   0.573460 0.290424 0.260359 -0.286002
O54   O     O_R   0.674493 0.384488 0.291750 -0.236520

loop_
_geom_bond_atom_site_label_1
_geom_bond_atom_site_label_2
_geom_bond_distance
_ccdc_geom_bond_type
O30   H4    0.990521 S    
C17   C19   1.426615 A    
C8    C11   1.543808 S    
N7    O17   1.301122 A    
C17   S3    1.785580 S    
S3    O31   1.503199 D    
N12   O46   1.301463 A    
S3    O33   1.662094 S    
N1    C35   1.374574 A    
C39   C40   1.440559 A    
O5    C3    1.304382 A    
S5    O38   1.502278 D    
C3    C9    1.420431 S    
C7    C13   1.542792 S    
C21   H1    1.082426 S    
O1    C1    1.313908 A    
C12   C14   1.549838 S    
N14   O50   1.301431 A    
C25   C27   1.420597 A    
N8    O20   1.301401 A    
O42   H8    0.990362 S    
C43   C45   1.405608 A    
C44   C46   1.405860 A    
N11   O43   1.302109 A    
O4    Cu1   1.952416 S    
O39   H7    0.990748 S    
C5    C7    1.537651 S    
C33   N1    1.374309 A    
C27   C32   1.432371 A    
N3    O10   1.299895 A    
S6    O40   1.502151 D    
C36   N16   1.428712 S    
C7    N3    1.456470 S    
N12   O45   1.302228 A    
C5    N9    1.457646 S    
C25   C26   1.407481 A    
C35   C37   1.438573 A    
C36   C38   1.434603 A    
C38   C44   1.418948 A    
C21   C23   1.393368 A    
N6    O15   1.301149 A    
C37   C43   1.428493 A    
C45   N7    1.433646 S    
C12   S1    1.783244 S    
C18   S4    1.784691 S    
N2    C36   1.372604 A    
Cu1   Cu2   2.713463 S    
N7    O18   1.301189 A    
C34   N14   1.429273 S    
O2    C2    1.300005 A    
C43   N5    1.432984 S    
O2    Cu2   1.951640 S    
S4    O35   1.501169 D    
C38   C40   1.416398 A    
C34   N2    1.372062 A    
C11   S2    1.783244 S    
C39   C41   1.418305 A    
C35   N15   1.420494 S    
S5    O39   1.684085 S    
C40   C42   1.416377 A    
C31   N11   1.431395 S    
S1    O26   1.502849 D    
N5    O13   1.301154 A    
N8    O19   1.301164 A    
C28   C31   1.429787 A    
C29   C31   1.416006 A    
N9    O22   1.299170 A    
C44   N6    1.433401 S    
C30   S6    1.794069 S    
N11   O44   1.301487 A    
S1    O25   1.502715 D    
C46   N8    1.433000 S    
S4    O36   1.663227 S    
C6    C12   1.542319 S    
N5    O14   1.301477 A    
C22   C24   1.393633 A    
N16   O54   1.299961 A    
O7    Cu2   1.934259 S    
N15   O52   1.301207 A    
S2    O29   1.502549 D    
C18   C28   1.434854 A    
O6    C4    1.301880 A    
C4    C10   1.419568 S    
C6    N10   1.456920 S    
C22   H2    1.082283 S    
C23   C29   1.411077 A    
O7    C3    1.299132 A    
S6    O42   1.685986 S    
N13   O47   1.301226 A    
O3    Cu2   1.952419 S    
O8    C4    1.300987 A    
O4    C2    1.314891 A    
C5    C14   1.545092 S    
O33   H5    0.990572 S    
C6    C13   1.544613 S    
N10   O24   1.299968 A    
C11   C13   1.549113 S    
C8    C14   1.543306 S    
O1    Cu1   1.951640 S    
N15   O51   1.301093 A    
S2    O30   1.680723 S    
Cu1   N1    2.038726 S    
C1    C20   1.468897 S    
S1    O27   1.680776 S    
C29   S5    1.794700 S    
O6    Cu2   1.932225 S    
C32   N12   1.430525 S    
C14   C16   1.452001 S    
C30   C32   1.415540 A    
O3    C1    1.300495 A    
O8    Cu1   1.934259 S    
Cu2   N2    2.038726 S    
S3    O32   1.501099 D    
S5    O37   1.502809 D    
C7    C12   1.544133 S    
C42   C45   1.417855 A    
C33   N13   1.421294 S    
N4    O11   1.300194 A    
C18   C20   1.424876 A    
N16   O53   1.301382 A    
C19   C21   1.389794 A    
C20   C22   1.387135 A    
C8    N4    1.456692 S    
S2    O28   1.502662 D    
C5    C11   1.544699 S    
C10   C16   1.196054 T    
C17   C27   1.436056 A    
C26   C28   1.419861 A    
S4    O34   1.503268 D    
C23   C25   1.406870 A    
C24   C26   1.405969 A    
C13   C15   1.452100 S    
N3    O9    1.299930 A    
C9    C15   1.196413 T    
S6    O41   1.503267 D    
N13   O48   1.301090 A    
N9    O21   1.300264 A    
O5    Cu1   1.932225 S    
C2    C19   1.470177 S    
O27   H3    0.991143 S    
C33   C41   1.438905 A    
C6    C8    1.536152 S    
N10   O23   1.300246 A    
C34   C42   1.433708 A    
O36   H6    0.988721 S    
C24   C30   1.409337 A    
N6    O16   1.301171 A    
C37   C39   1.418086 A    
C41   C46   1.427794 A    
N4    O12   1.299993 A    
N14   O49   1.299728 A    
