data_mof_unit_51663.cif
_audit_creation_date              2012-12-10T17:05:11-0500
_audit_creation_method            fapswitch 2.2
_symmetry_space_group_name_H-M    P1
_symmetry_Int_Tables_number       1
_space_group_crystal_system       triclinic
_cell_length_a                    10.791243
_cell_length_b                    10.965279
_cell_length_c                    9.845515
_cell_angle_alpha                 110.766294
_cell_angle_beta                  98.329251
_cell_angle_gamma                 91.913205
_cell_volume                      1073.30257979

loop_
_atom_site_label
_atom_site_type_symbol
_atom_type_description
_atom_site_fract_x
_atom_site_fract_y
_atom_site_fract_z
_atom_type_partial_charge
C1    C     C_R   0.492717 0.253720 0.441191 0.875579
C2    C     C_3   0.878243 0.496768 0.501920 -0.034372
C3    C     C_3   0.932291 0.632783 0.512057 -0.363895
C4    C     C_3   0.907321 0.393355 0.357909 -0.503438
C5    C     C_2   0.500790 0.114402 0.410479 -0.274345
C6    C     C_2   0.547773 0.074031 0.519301 -0.221504
C7    C     C_2   0.525291 0.886513 0.588084 -0.419003
C8    C     C_2   0.565736 0.936602 0.493527 0.014941
C9    C     C_2   0.513283 0.505370 0.077205 -0.148931
C10   C     C_2   0.500909 0.477081 0.913871 -0.032817
C11   C     C_R   0.260224 0.501733 0.501995 0.845910
C12   C     C_R   0.514133 0.746194 0.558572 0.889876
C13   C     C_R   0.739885 0.497288 0.499074 0.831750
C14   C     C_3   0.087610 0.451876 0.633399 0.295522
C15   C     C_3   0.942577 0.462526 0.636790 0.202791
C16   C     C_3   0.076788 0.638958 0.522961 0.290395
C17   C     C_3   0.049501 0.403643 0.354491 -0.405853
C18   C     C_3   0.122711 0.500609 0.506475 -0.129755
Cu1   Cu    Cu3+1 0.522160 0.521810 0.644910 0.978509
Cu2   Cu    Cu3+1 0.477840 0.478190 0.355090 1.004946
H1    H     H_    0.856062 0.408678 0.259523 0.208150
H2    H     H_    0.890095 0.651630 0.412304 0.234168
H3    H     H_    0.570684 0.142816 0.632460 0.177019
H4    H     H_    0.488379 0.949512 0.683381 0.152025
H5    H     H_    0.472224 0.045744 0.298286 0.196870
H6    H     H_    0.444376 0.390430 0.836017 0.224278
H7    H     H_    0.586698 0.579307 0.149241 0.186785
H8    H     H_    0.603030 0.640006 0.938408 0.195801
H9    H     H_    0.893173 0.366269 0.620614 0.104857
H10   H     H_    0.114645 0.710144 0.632414 0.011077
H11   H     H_    0.906334 0.711084 0.609085 0.165881
H12   H     H_    0.064921 0.438242 0.264180 0.244447
H13   H     H_    0.084089 0.304650 0.324269 0.189896
H14   H     H_    0.875206 0.293245 0.349918 0.217030
N1    N     N_2   0.444530 0.445420 0.137360 -0.231815
N2    N     N_2   0.555520 0.554510 0.862630 -0.304740
O1    O     O_R   0.511820 0.332340 0.577400 -0.580945
O2    O     O_R   0.474400 0.295500 0.332650 -0.549261
O3    O     O_R   0.336400 0.518400 0.622370 -0.543934
O4    O     O_R   0.298980 0.481560 0.377620 -0.564040
O5    O     O_R   0.525600 0.704500 0.667350 -0.583523
O6    O     O_R   0.488180 0.667660 0.422600 -0.562624
O7    O     O_R   0.701020 0.518440 0.622380 -0.548897
O8    O     O_R   0.663600 0.481600 0.377630 -0.585065
O9    O     O_3   0.161810 0.512179 0.778627 -0.526847
C19   C     C_3   0.183435 0.650612 0.844199 0.147317
H15   H     H_    0.096575 0.701030 0.843111 0.173287
H16   H     H_    0.252593 0.689813 0.793918 0.137191
C20   C     C_3   0.243456 0.688834 0.004505 -0.737857
H17   H     H_    0.341790 0.663427 0.012472 0.256265
H18   H     H_    0.244887 0.796426 0.060746 0.183477
H19   H     H_    0.190987 0.637632 0.060544 0.275559
O10   O     O_3   0.114264 0.681931 0.412997 -0.568906
C21   C     C_3   0.150014 0.818594 0.472127 0.074951
H20   H     H_    0.229290 0.843711 0.566403 0.128815
H21   H     H_    0.068721 0.873702 0.509194 0.152705
C22   C     C_3   0.195405 0.861982 0.356287 -0.792247
H22   H     H_    0.118240 0.842968 0.261715 0.241819
H23   H     H_    0.225679 0.968533 0.403947 0.221230
H24   H     H_    0.277084 0.808412 0.318971 0.261521
C23   C     C_2   0.639146 0.864129 0.376712 0.876909
O11   O     O_2   0.702699 0.778334 0.392020 -0.649971
O12   O     O_R   0.641885 0.898964 0.253601 -0.783426
H25   H     H_    0.696884 0.844092 0.184489 0.316027
C24   C     C_2   0.115516 0.307100 0.591216 0.777942
O13   O     O_2   0.224617 0.280750 0.608152 -0.575161
O14   O     O_R   0.019852 0.204114 0.531719 -0.827020
H26   H     H_    0.052986 0.114870 0.509171 0.332382
C25   C     C_2   0.343601 0.350207 0.049943 0.995823
O15   O     O_2   0.330421 0.247150 0.069916 -0.606325
O16   O     O_R   0.254872 0.377375 0.949033 -0.747518
H27   H     H_    0.185605 0.303545 0.898454 0.324882
O17   O     O_3   0.921078 0.557353 0.771751 -0.571822
C26   C     C_3   0.901384 0.498490 0.874784 0.116863
H28   H     H_    0.980218 0.439883 0.892284 0.169815
H29   H     H_    0.811734 0.433875 0.836057 0.147807
C27   C     C_3   0.891886 0.604525 0.021839 -0.761075
H30   H     H_    0.817976 0.668472 0.006810 0.233273
H31   H     H_    0.868591 0.559161 0.100587 0.202553
H32   H     H_    0.982093 0.666217 0.068774 0.250017

loop_
_geom_bond_atom_site_label_1
_geom_bond_atom_site_label_2
_ccdc_geom_bond_type
C11   C18   S    
O17   C26   S    
C14   C18   S    
Cu1   Cu2   S    
C7    C8    D    
C27   H30   S    
C19   C20   S    
C26   H29   S    
C1    C5    S    
Cu1   N2    S    
C5    C6    D    
C11   O3    A    
C22   H23   S    
C16   H10   S    
C7    H4    S    
C25   O16   S    
C23   O12   S    
C2    C13   S    
C16   O10   S    
C12   O6    A    
Cu1   O1    S    
C19   H15   S    
Cu2   N1    S    
C20   H18   S    
C26   C27   S    
C9    C10   S    
C1    O1    A    
C8    C23   S    
C10   H6    S    
C23   O11   D    
C17   H13   S    
Cu2   O8    S    
Cu1   O7    S    
C15   H9    S    
C14   O9    S    
C4    H14   S    
C27   H31   S    
C7    C12   S    
C19   H16   S    
C26   H28   S    
O14   H26   S    
C22   H24   S    
C6    C8    S    
C24   O14   S    
O10   C21   S    
C2    C4    S    
C12   O5    A    
Cu2   O2    S    
C20   H19   S    
C17   C18   S    
C3    H11   S    
C2    C15   S    
H8    N2    S    
Cu1   O3    S    
C1    O2    A    
C5    H5    S    
C4    C17   S    
C15   O17   S    
C20   H17   S    
C13   O7    A    
C9    H7    S    
C27   H32   S    
C21   H20   S    
Cu2   O6    S    
C21   H21   S    
C2    C3    S    
O16   H27   S    
C4    H1    S    
C22   H22   S    
Cu2   O4    S    
C6    H3    S    
C14   C24   S    
C11   O4    A    
C25   O15   D    
O12   H25   S    
O9    C19   S    
N1    C25   S    
C16   C18   S    
C24   O13   D    
C9    N1    D    
C17   H12   S    
C14   C15   S    
C3    H2    S    
C10   N2    D    
C13   O8    A    
C3    C16   S    
Cu1   O5    S    
C21   C22   S    
