data_mof_unit_7515.cif
_audit_creation_date              2012-12-11T17:00:25-0500
_audit_creation_method            fapswitch 2.2
_symmetry_space_group_name_H-M    P1
_symmetry_Int_Tables_number       1
_space_group_crystal_system       triclinic
_cell_length_a                    6.971286
_cell_length_b                    13.591121
_cell_length_c                    20.282836
_cell_angle_alpha                 103.086441
_cell_angle_beta                  90.267354
_cell_angle_gamma                 90.570843
_cell_volume                      1871.70103212

loop_
_atom_site_label
_atom_site_type_symbol
_atom_type_description
_atom_site_fract_x
_atom_site_fract_y
_atom_site_fract_z
_atom_type_partial_charge
O1    O     O_R   0.506770 0.599700 0.449550 -0.542739
O2    O     O_R   0.179980 0.595740 0.587960 -0.546918
O3    O     O_R   0.004580 0.400300 0.550450 -0.534216
C1    C     C_R   0.348955 0.617861 0.614888 0.709930
O4    O     O_R   0.177380 0.611700 0.452380 -0.542933
O5    O     O_R   0.001970 0.416370 0.413900 -0.548091
C2    C     C_R   0.345886 0.637930 0.435405 0.706011
O6    O     O_R   0.509390 0.583630 0.586100 -0.543669
O7    O     O_3   0.337530 0.435890 0.487530 -0.361707
V1    V     V_3+5 0.064660 0.511890 0.502310 1.426430
O8    O     O_R   0.671950 0.404260 0.412040 -0.522838
C3    C     C_R   0.839981 0.382677 0.384824 0.706532
O9    O     O_R   0.674540 0.388300 0.547620 -0.540265
C4    C     C_R   0.842711 0.361739 0.564134 0.702531
V2    V     V_3+5 0.564030 0.488110 0.497690 1.457811
O10   O     O_3   0.841030 0.564110 0.512470 -0.379510
C5    C     C_R   0.855655 0.112852 0.612960 -0.142873
H1    H     H_    0.877211 0.162404 0.520334 0.144690
H2    H     H_    0.813919 0.987696 0.694885 0.144269
H3    H     H_    0.858699 0.033804 0.587102 0.134324
C6    C     C_R   0.847520 0.287789 0.606353 -0.120233
C7    C     C_R   0.902802 0.316826 0.932301 -0.163902
C8    C     C_R   0.928549 0.392103 0.896886 -0.150215
C9    C     C_R   0.914183 0.369458 0.826558 -0.100853
C10   C     C_R   0.863943 0.270922 0.789708 0.098991
C11   C     C_R   0.845147 0.193365 0.826234 0.040150
C12   C     C_R   0.847131 0.245197 0.717457 0.046781
C13   C     C_R   0.843932 0.141393 0.683632 0.061282
C14   C     C_R   0.825085 0.066761 0.720495 -0.147967
C15   C     C_R   0.817425 0.092697 0.790613 -0.191777
C16   C     C_R   0.826871 0.318080 0.677600 0.272630
C17   C     C_R   0.864911 0.185789 0.574883 -0.183050
C18   C     C_R   0.864350 0.217447 0.897638 -0.075572
H4    H     H_    0.920773 0.335275 0.986842 0.103560
H5    H     H_    0.954823 0.429270 0.802319 0.168067
H6    H     H_    0.966683 0.467987 0.923954 0.123382
H7    H     H_    0.797573 0.032368 0.816816 0.140146
C19   C     C_R   0.706607 0.247111 0.204265 0.038975
C20   C     C_R   0.867595 0.187929 0.182814 -0.069816
C21   C     C_R   0.022831 0.196556 0.228450 -0.186901
C22   C     C_R   0.013743 0.260515 0.293641 -0.193422
H8    H     H_    0.129957 0.262216 0.328963 0.145028
C23   C     C_R   0.849273 0.316801 0.315632 -0.046627
C24   C     C_R   0.696664 0.308856 0.269643 0.059525
C25   C     C_3   0.497244 0.274412 0.278605 0.195962
C26   C     C_3   0.505668 0.210782 0.206626 -0.459632
H9    H     H_    0.392945 0.337217 0.286924 0.085406
H10   H     H_    0.411724 0.239261 0.170772 0.148008
C27   C     C_R   0.497439 0.680613 0.730496 0.110710
C28   C     C_R   0.353998 0.686181 0.683112 -0.176531
C29   C     C_R   0.205490 0.755774 0.703673 -0.177417
H11   H     H_    0.093000 0.762920 0.668102 0.141302
C30   C     C_R   0.209334 0.824025 0.767301 0.338740
C31   C     C_R   0.355805 0.817550 0.815184 -0.204003
C32   C     C_R   0.496675 0.743800 0.795218 0.047127
C33   C     C_3   0.708705 0.759283 0.794751 -0.340758
C34   C     C_3   0.709304 0.691994 0.724186 -0.393486
H12   H     H_    0.783219 0.725757 0.832873 0.172367
H13   H     H_    0.787344 0.620613 0.721739 0.184479
H14   H     H_    0.748432 0.732842 0.684386 0.171922
C35   C     C_R   0.302710 0.890084 0.390693 0.359107
H15   H     H_    0.297590 0.836860 0.482503 0.125459
H16   H     H_    0.235823 0.009185 0.302248 0.124559
C36   C     C_R   0.351249 0.716018 0.396257 -0.108218
C37   C     C_R   0.400140 0.684782 0.070616 -0.165107
C38   C     C_R   0.417396 0.609664 0.106563 -0.124687
C39   C     C_R   0.401351 0.632780 0.176814 -0.160977
C40   C     C_R   0.364321 0.732715 0.213268 0.101841
C41   C     C_R   0.340023 0.808599 0.175634 0.072910
C42   C     C_R   0.352073 0.759881 0.285620 0.038654
C43   C     C_R   0.313765 0.862114 0.318809 0.044397
C44   C     C_R   0.279765 0.933135 0.279662 -0.187572
C45   C     C_R   0.296086 0.907492 0.209815 -0.200669
C46   C     C_R   0.373164 0.688404 0.326148 -0.225549
C47   C     C_R   0.314763 0.815979 0.428030 -0.169005
C48   C     C_R   0.361442 0.784052 0.104295 -0.081968
H17   H     H_    0.419164 0.665673 0.016217 0.106658
H18   H     H_    0.419768 0.570449 0.200757 0.102175
H19   H     H_    0.446937 0.532947 0.079852 0.119927
H20   H     H_    0.271149 0.966185 0.182656 0.112641
O11   O     O_R   0.203450 0.916320 0.913910 -0.533705
O12   O     O_R   0.535520 0.888300 0.047620 -0.537990
O13   O     O_R   0.710860 0.083650 0.086100 -0.536657
C49   C     C_R   0.366994 0.862220 0.064776 0.690263
O14   O     O_R   0.532860 0.904250 0.912040 -0.541606
O15   O     O_R   0.708190 0.099710 0.949550 -0.541002
C50   C     C_R   0.364286 0.884961 0.884063 0.694238
O16   O     O_R   0.206120 0.900260 0.050460 -0.539799
O17   O     O_3   0.375280 0.064080 0.012470 -0.373539
V3    V     V_3+5 0.648180 0.988110 0.997690 1.424115
O18   O     O_R   0.038220 0.111740 0.952370 -0.541723
C51   C     C_R   0.869781 0.138692 0.936237 0.687670
O19   O     O_R   0.040880 0.095790 0.087940 -0.549121
C52   C     C_R   0.873121 0.117049 0.115300 0.691654
V4    V     V_3+5 0.148800 0.011950 0.002300 1.414992
O20   O     O_3   0.871820 0.935920 0.987530 -0.367227
O21   O     O_3   0.492860 0.216575 0.327976 -0.626771
H21   H     H_    0.388051 0.166090 0.315443 0.278612
H22   H     H_    0.496044 0.127852 0.202580 0.178247
O22   O     O_3   0.077596 0.900613 0.777798 -0.666763
H23   H     H_    0.135308 0.960970 0.808312 0.286676
H24   H     H_    0.747687 0.839049 0.796081 0.208129
O23   O     O_3   0.276869 0.988153 0.426454 -0.645448
H25   H     H_    0.347589 0.033968 0.403331 0.291133
H26   H     H_    0.399319 0.609679 0.304889 0.102268
O24   O     O_3   0.769888 0.414680 0.708451 -0.671714
H27   H     H_    0.724856 0.451150 0.674498 0.279739
H28   H     H_    0.146079 0.149048 0.215131 0.121606

loop_
_geom_bond_atom_site_label_1
_geom_bond_atom_site_label_2
_ccdc_geom_bond_type
C32   C33   S    
O19   C52   A    
C22   H8    S    
V4    O20   S    
C1    O6    A    
C48   C49   S    
O21   H21   S    
C30   C31   A    
C35   C47   A    
C38   H19   S    
C6    C16   A    
C37   C48   A    
C4    C6    S    
C13   C14   A    
C35   O23   S    
C3    C23   S    
O5    C3    A    
C19   C20   A    
O11   V4    S    
C34   H13   S    
O24   H27   S    
V2    O10   S    
C5    H3    S    
C27   C34   S    
C33   C34   S    
C41   C48   A    
C7    C18   A    
O8    V2    S    
C45   H20   S    
C40   C41   A    
C42   C46   A    
C8    C9    A    
C41   C45   A    
C42   C43   A    
O1    V2    S    
O7    V1    S    
C21   H28   S    
C35   C43   A    
O14   C50   A    
C38   C39   A    
O16   V4    S    
O19   V4    S    
O9    C4    A    
C22   C23   A    
C39   H18   S    
C25   H9    S    
C30   O22   S    
C7    H4    S    
C6    C17   A    
C26   H10   S    
C9    H5    S    
C37   H17   S    
C12   C16   A    
C39   C40   A    
C9    C10   A    
O15   V3    S    
C18   C51   S    
C20   C21   A    
O4    C2    A    
C34   H14   S    
C10   C11   A    
C27   C32   A    
O13   C52   A    
C29   H11   S    
C15   H7    S    
C1    C28   S    
C29   C30   A    
O17   V4    S    
O2    C1    A    
C23   C24   A    
C20   C52   S    
C19   C24   A    
C14   C15   A    
C11   C18   A    
C25   O21   S    
O14   V3    S    
C28   C29   A    
O11   C50   A    
O3    C4    A    
C21   C22   A    
C11   C15   A    
O6    V2    S    
O12   C49   A    
O9    V2    S    
C16   O24   S    
H15   C47   S    
H1    C17   S    
O2    V1    S    
O18   C51   A    
C24   C25   S    
O13   V3    S    
C31   C32   A    
O1    C2    A    
C5    C13   A    
C49   O16   A    
C44   C45   A    
O5    V1    S    
O8    C3    A    
V3    O20   S    
C10   C12   A    
O12   V3    S    
C26   H22   S    
C27   C28   A    
O7    V2    S    
C33   H24   S    
O4    V1    S    
O3    V1    S    
O15   C51   A    
C46   H26   S    
C31   C50   S    
O22   H23   S    
C36   C47   A    
C33   H12   S    
C37   C38   A    
C2    C36   S    
C19   C26   S    
O18   V4    S    
C25   C26   S    
C43   C44   A    
H16   C44   S    
C40   C42   A    
C8    H6    S    
O23   H25   S    
C5    C17   A    
C36   C46   A    
C7    C8    A    
V1    O10   S    
O17   V3    S    
C12   C13   A    
H2    C14   S    
