data_mof_unit_49214.cif
_audit_creation_date              2012-12-11T16:31:35-0500
_audit_creation_method            fapswitch 2.2
_symmetry_space_group_name_H-M    P1
_symmetry_Int_Tables_number       1
_space_group_crystal_system       triclinic
_cell_length_a                    6.971375
_cell_length_b                    18.492197
_cell_length_c                    20.005066
_cell_angle_alpha                 68.468246
_cell_angle_beta                  90.290355
_cell_angle_gamma                 89.882356
_cell_volume                      2398.9463709

loop_
_atom_site_label
_atom_site_type_symbol
_atom_type_description
_atom_site_fract_x
_atom_site_fract_y
_atom_site_fract_z
_atom_type_partial_charge
O1    O     O_R   0.488990 0.443920 0.942160 -0.535987
O2    O     O_R   0.823840 0.406530 0.087600 -0.536818
O3    O     O_R   0.999650 0.556080 0.057840 -0.527081
C1    C     C_R   0.655692 0.384512 0.115833 0.811583
O4    O     O_R   0.818390 0.434590 0.944530 -0.543209
O5    O     O_R   0.994160 0.584350 0.913750 -0.540562
C2    C     C_R   0.649872 0.418029 0.926515 0.696881
O6    O     O_R   0.494480 0.415650 0.086250 -0.532834
O7    O     O_3   0.662600 0.549100 0.990070 -0.363875
V1    V     V_3+5 0.935320 0.490890 0.001840 1.475408
O8    O     O_R   0.324240 0.593470 0.912400 -0.540398
C3    C     C_R   0.154288 0.614751 0.883716 0.682450
O9    O     O_R   0.329690 0.565410 0.055470 -0.525888
C4    C     C_R   0.161104 0.579736 0.075634 0.727734
V2    V     V_3+5 0.435990 0.509110 0.998160 1.487353
O10   O     O_3   0.158840 0.450900 0.009930 -0.373116
C5    C     C_3   0.095946 0.657405 0.284346 -0.300224
C6    C     C_3   0.338230 0.752788 0.204686 0.140172
C7    C     C_3   0.331226 0.799429 0.256470 0.108965
H1    H     H_    0.211648 0.681179 0.375647 0.076199
H2    H     H_    0.200435 0.608575 0.304634 0.132278
H3    H     H_    0.361526 0.794162 0.148860 0.178647
H4    H     H_    0.437599 0.774009 0.300649 0.149435
C8    C     C_1   0.113389 0.875945 0.377703 -0.123652
C9    C     C_3   0.143524 0.710708 0.205927 0.084673
C10   C     C_3   0.093616 0.704175 0.335336 0.188537
C11   C     C_3   0.128682 0.792395 0.291610 0.092667
C12   C     C_3   0.972488 0.820499 0.231596 -0.301372
C13   C     C_3   0.984739 0.774182 0.180636 -0.409788
C14   C     C_1   0.120265 0.838373 0.339123 0.011841
C15   C     C_1   0.148610 0.664596 0.158391 0.037598
C16   C     C_1   0.153335 0.626226 0.120380 -0.157481
H5    H     H_    0.843798 0.746907 0.178987 0.226324
H6    H     H_    0.014283 0.814989 0.125066 0.181918
H7    H     H_    0.827489 0.812673 0.256215 0.222899
H8    H     H_    0.953725 0.630296 0.284650 0.218411
H9    H     H_    0.986862 0.883728 0.200051 0.151090
C17   C     C_R   0.183763 0.769781 0.883579 -0.178762
C18   C     C_R   0.193661 0.843173 0.887346 -0.001343
C19   C     C_R   0.172228 0.908725 0.825557 -0.156299
C20   C     C_R   0.145903 0.902622 0.758531 -0.065553
C21   C     C_R   0.142251 0.827668 0.752193 0.026223
C22   C     C_R   0.157018 0.760259 0.817150 0.064465
C23   C     C_R   0.130312 0.816915 0.684779 -0.183888
C24   C     C_R   0.137731 0.740377 0.683896 0.039397
C25   C     C_R   0.113787 0.675273 0.748900 0.051998
C26   C     C_R   0.139922 0.684360 0.815660 -0.151047
C27   C     C_R   0.168657 0.725551 0.619854 -0.069017
C28   C     C_R   0.116630 0.654572 0.616492 -0.169287
C29   C     C_R   0.058443 0.594208 0.677828 -0.000357
C30   C     C_R   0.068904 0.602230 0.744773 -0.197205
H10   H     H_    0.196936 0.720238 0.933480 0.097749
H11   H     H_    0.176659 0.965476 0.829847 0.170767
H12   H     H_    0.132674 0.644691 0.566513 0.126435
H13   H     H_    0.038652 0.552113 0.792695 0.116539
C31   C     C_R   0.628032 0.231659 0.114733 -0.130550
C32   C     C_R   0.614389 0.159139 0.109704 -0.118950
C33   C     C_R   0.604529 0.093112 0.171251 -0.132668
C34   C     C_R   0.607291 0.098190 0.239287 -0.058148
C35   C     C_R   0.619197 0.172696 0.246600 0.026040
C36   C     C_R   0.631098 0.240472 0.182164 0.043902
C37   C     C_R   0.620256 0.182362 0.314414 -0.161793
C38   C     C_R   0.636091 0.257973 0.316967 0.022357
C39   C     C_R   0.647245 0.325595 0.252653 0.033927
C40   C     C_R   0.645686 0.316089 0.184855 -0.171758
C41   C     C_R   0.641895 0.266799 0.384154 -0.154449
C42   C     C_R   0.655113 0.339138 0.389095 -0.165827
C43   C     C_R   0.661274 0.405873 0.327737 -0.071213
C44   C     C_R   0.659512 0.400632 0.258642 0.285754
H14   H     H_    0.636134 0.280829 0.064549 0.089497
H15   H     H_    0.612213 0.154097 0.057482 0.173161
H16   H     H_    0.595256 0.037061 0.165620 0.154034
H17   H     H_    0.635984 0.217700 0.434482 0.112860
H18   H     H_    0.659444 0.342953 0.441831 0.179486
O11   O     O_R   0.770890 0.084490 0.414040 -0.540997
O12   O     O_R   0.445980 0.065450 0.555510 -0.533269
O13   O     O_R   0.270670 0.915620 0.586180 -0.534168
C45   C     C_R   0.613499 0.078310 0.577085 0.716191
O14   O     O_R   0.441480 0.093500 0.412450 -0.541628
O15   O     O_R   0.266140 0.943870 0.442100 -0.513845
C46   C     C_R   0.609585 0.114438 0.383632 0.694707
O16   O     O_R   0.775410 0.056240 0.558120 -0.526404
O17   O     O_3   0.602660 0.950990 0.510100 -0.349217
V3    V     V_3+5 0.329740 0.009100 0.498130 1.523848
O18   O     O_R   0.936120 0.934420 0.444240 -0.532347
C47   C     C_R   0.104708 0.921233 0.423340 0.728916
O19   O     O_R   0.940610 0.906370 0.587310 -0.537657
C48   C     C_R   0.111383 0.883938 0.615187 0.711109
V4    V     V_3+5 0.829110 0.990690 0.501470 1.519866
O20   O     O_3   0.106080 0.049010 0.489880 -0.366723
C49   C     C_3   0.814918 0.231314 0.718083 -0.266082
C50   C     C_3   0.454484 0.267114 0.694232 0.250666
C51   C     C_3   0.497235 0.322597 0.737509 0.142069
H19   H     H_    0.888531 0.329522 0.749006 0.205511
C52   C     C_1   0.643438 0.366191 0.887131 -0.161982
C53   C     C_3   0.608237 0.197890 0.717364 -0.131713
C54   C     C_3   0.830462 0.270254 0.775013 0.128654
C55   C     C_3   0.627856 0.277231 0.805557 -0.087534
C56   C     C_3   0.543347 0.192790 0.847070 0.635459
C57   C     C_3   0.561232 0.141486 0.797680 0.248232
C58   C     C_1   0.639851 0.323917 0.852908 -0.003619
C59   C     C_1   0.610171 0.154658 0.666848 -0.074946
C60   C     C_1   0.615541 0.120280 0.625560 -0.133606
H20   H     H_    0.919285 0.182396 0.732327 0.208212
O21   O     O_3   0.916572 0.692854 0.371190 -0.615829
H21   H     H_    0.938289 0.701097 0.416960 0.298413
C61   C     C_1   0.002378 0.523059 0.670241 0.330703
N1    N     N_1   0.958158 0.467139 0.661255 -0.302418
C62   C     C_1   0.225998 0.851624 0.955205 0.335113
N2    N     N_1   0.252677 0.858858 0.009509 -0.385034
C63   C     C_1   0.124137 0.976107 0.699455 0.260269
N3    N     N_1   0.107139 0.035834 0.653180 -0.329724
C64   C     C_1   0.302499 0.769749 0.565734 0.262091
N4    N     N_1   0.415141 0.802156 0.523087 -0.305322
C65   C     C_1   0.665908 0.478987 0.338267 0.306157
N5    N     N_1   0.668919 0.537056 0.347671 -0.333402
C66   C     C_1   0.600043 0.024173 0.298366 0.265186
N6    N     N_1   0.594598 0.964135 0.344732 -0.291765
O22   O     O_3   0.668359 0.467045 0.197078 -0.654628
H22   H     H_    0.686604 0.514022 0.208861 0.293384
C67   C     C_1   0.876208 0.285246 0.646375 0.403623
N7    N     N_1   0.925028 0.327233 0.590390 -0.293417
O23   O     O_3   0.268497 0.236389 0.710537 -0.613113
H23   H     H_    0.243901 0.202409 0.682749 0.303893
C68   C     C_1   0.456152 0.312565 0.615500 0.409639
N8    N     N_1   0.455790 0.348087 0.554336 -0.330994
O24   O     O_3   0.593869 0.389724 0.692005 -0.653541
H24   H     H_    0.614979 0.425384 0.718332 0.291094
C69   C     C_1   0.319992 0.351171 0.760712 0.518655
N9    N     N_1   0.189635 0.375371 0.781311 -0.402660
C70   C     C_1   0.711210 0.080087 0.825236 0.294377
N10   N     N_1   0.827369 0.032182 0.846654 -0.333245
O25   O     O_3   0.385928 0.102405 0.800032 -0.614009
H25   H     H_    0.397030 0.069751 0.770375 0.289886
O26   O     O_3   0.630190 0.157459 0.915799 -0.663698
H26   H     H_    0.765511 0.144410 0.911797 0.313424
O27   O     O_3   0.961253 0.228385 0.828898 -0.611606
H27   H     H_    0.980790 0.258093 0.860789 0.331270
O28   O     O_3   0.493822 0.700414 0.221048 -0.646071
H28   H     H_    0.489089 0.668143 0.272931 0.313499
O29   O     O_3   0.348005 0.201668 0.859923 -0.587338
H29   H     H_    0.302228 0.152023 0.896314 0.360153
O30   O     O_3   0.385506 0.877549 0.221034 -0.637012
H30   H     H_    0.304951 0.900370 0.177286 0.299036

loop_
_geom_bond_atom_site_label_1
_geom_bond_atom_site_label_2
_ccdc_geom_bond_type
C9    C15   S    
O19   C48   A    
C53   C59   S    
C20   C21   A    
O2    C1    A    
C63   N3    T    
C49   H20   S    
O15   V3    S    
C50   C68   S    
O12   V3    S    
C54   C55   S    
C32   C33   A    
C57   C70   S    
O26   H26   S    
C24   C25   A    
C57   O25   S    
C10   C11   S    
O16   V4    S    
C21   C23   A    
C5    C10   S    
C12   C13   S    
O12   C45   A    
C64   N4    T    
O5    C3    A    
O14   V3    S    
C17   H10   S    
O4    V1    S    
C28   H12   S    
C13   H5    S    
C50   C53   S    
C31   C32   A    
C35   C37   A    
C6    C7    S    
C28   C29   A    
O15   C47   A    
C49   C53   S    
O8    V2    S    
O17   V3    S    
C12   H7    S    
C43   C44   A    
C61   N1    T    
O1    V2    S    
C5    H8    S    
C7    C11   S    
O7    V1    S    
C1    O6    A    
C41   C42   A    
C38   C41   A    
C34   C35   A    
C34   C66   S    
C6    H3    S    
O9    C4    A    
C11   C14   S    
C59   C60   T    
C6    C9    S    
V3    O20   S    
C3    C26   S    
C51   C69   S    
C10   O21   S    
C54   O27   S    
C49   C54   S    
C9    C13   S    
C17   C18   A    
O17   V4    S    
V2    O10   S    
C42   C43   A    
O23   H23   S    
O13   C48   A    
C50   O23   S    
C18   C19   A    
O4    C2    A    
O18   V4    S    
O11   C46   A    
H19   C54   S    
C23   C48   S    
C33   C34   A    
O18   C47   A    
C41   H17   S    
C13   H6    S    
C44   O22   S    
C5    H2    S    
C8    C47   S    
C35   C36   A    
C7    H4    S    
C51   O24   S    
C37   C38   A    
O25   H25   S    
C45   O16   A    
C56   C57   S    
O22   H22   S    
C68   N8    T    
C29   C30   A    
C56   O26   S    
C42   H18   S    
C39   C44   A    
C32   H15   S    
C67   N7    T    
O3    C4    A    
C19   C20   A    
C37   C46   S    
C19   H11   S    
O6    V2    S    
C31   H14   S    
O19   V4    S    
C49   C67   S    
C29   C61   S    
C21   C22   A    
O24   H24   S    
O2    V1    S    
C23   C24   A    
O14   C46   A    
C69   N9    T    
O21   H21   S    
C24   C27   A    
C25   C26   A    
C27   C28   A    
C7    O30   S    
C45   C60   S    
O1    C2    A    
C56   O29   S    
C15   C16   T    
C4    C16   S    
C70   N10   T    
O5    V1    S    
O28   H28   S    
C55   C58   S    
C2    C52   S    
O27   H27   S    
C53   C57   S    
O13   V3    S    
C5    C9    S    
C39   C40   A    
O9    V2    S    
O30   H30   S    
O7    V2    S    
C17   C22   A    
O3    V1    S    
V1    O10   S    
C66   N6    T    
C33   H16   S    
C65   N5    T    
C1    C40   S    
H1    C10   S    
C12   H9    S    
C25   C30   A    
C50   C51   S    
C30   H13   S    
C6    O28   S    
C8    C14   T    
O11   V4    S    
C43   C65   S    
C38   C39   A    
C36   C40   A    
C18   C62   S    
C55   C56   S    
C20   C63   S    
C62   N2    T    
C11   C12   S    
C31   C36   A    
V4    O20   S    
O29   H29   S    
C22   C26   A    
C51   C55   S    
C52   C58   T    
O8    C3    A    
C27   C64   S    
