data_mof_unit_38469.cif
_audit_creation_date              2012-12-11T17:06:36-0500
_audit_creation_method            fapswitch 2.2
_symmetry_space_group_name_H-M    P1
_symmetry_Int_Tables_number       1
_space_group_crystal_system       triclinic
_cell_length_a                    6.948677
_cell_length_b                    14.501339
_cell_length_c                    15.975489
_cell_angle_alpha                 90.483205
_cell_angle_beta                  90.033206
_cell_angle_gamma                 90.02387
_cell_volume                      1609.71441868

loop_
_atom_site_label
_atom_site_type_symbol
_atom_type_description
_atom_site_fract_x
_atom_site_fract_y
_atom_site_fract_z
_atom_type_partial_charge
O1    O     O_R   0.494400 0.415450 0.412630 -0.538211
O2    O     O_R   0.823940 0.405730 0.586760 -0.541687
O3    O     O_R   0.994240 0.584550 0.587370 -0.527804
C1    C     C_R   0.655287 0.383817 0.615453 0.731488
O4    O     O_R   0.824110 0.404430 0.413240 -0.546014
O5    O     O_R   0.994420 0.583240 0.412620 -0.545211
C2    C     C_R   0.655340 0.382177 0.384225 0.703431
O6    O     O_R   0.494230 0.416760 0.587380 -0.536445
O7    O     O_3   0.660800 0.558670 0.500000 -0.371677
V1    V     V_3+5 0.935650 0.489120 0.500000 1.427997
O8    O     O_R   0.324140 0.594270 0.413240 -0.540771
C3    C     C_R   0.155299 0.615582 0.383815 0.723000
O9    O     O_R   0.323960 0.595570 0.586760 -0.544975
C4    C     C_R   0.155331 0.617512 0.615633 0.749368
V2    V     V_3+5 0.435660 0.510880 0.500000 1.426159
O10   O     O_3   0.160640 0.441330 0.500000 -0.374576
C5    C     C_3   0.051829 0.669757 0.771055 0.421987
C6    C     C_3   0.224125 0.715121 0.814876 0.592314
C7    C     C_3   0.120480 0.808697 0.810579 -0.153438
C8    C     C_3   0.945152 0.762998 0.766654 -0.271248
C9    C     C_3   0.041409 0.780908 0.680455 -0.167199
C10   C     C_3   0.215533 0.827523 0.724997 -0.188424
C11   C     C_3   0.320136 0.732863 0.729407 -0.244476
C12   C     C_3   0.145530 0.687039 0.685737 -0.127185
H1    H     H_    0.791732 0.775956 0.782023 0.144256
H2    H     H_    0.967418 0.807772 0.624100 0.131323
H3    H     H_    0.282841 0.893672 0.706337 0.142346
H4    H     H_    0.473725 0.720176 0.714124 0.141436
C13   C     C_R   0.294443 0.791813 0.220021 0.113262
C14   C     C_R   0.122098 0.807205 0.176639 -0.239134
C15   C     C_R   0.964816 0.748981 0.195829 0.594918
C16   C     C_R   0.976606 0.686002 0.262511 -0.270601
H5    H     H_    0.851530 0.644494 0.276951 0.160846
C17   C     C_R   0.145528 0.678614 0.311234 -0.202985
C18   C     C_R   0.306365 0.728960 0.285094 0.131842
C19   C     C_3   0.437995 0.789976 0.334507 -0.407631
C20   C     C_3   0.424139 0.858902 0.263536 -0.363385
H6    H     H_    0.583971 0.759592 0.341185 0.186611
H7    H     H_    0.371877 0.815044 0.393853 0.165016
H8    H     H_    0.562200 0.868661 0.229720 0.222605
H9    H     H_    0.349129 0.923831 0.281574 0.194009
C21   C     C_R   0.513479 0.324653 0.749464 -0.040112
C22   C     C_R   0.648589 0.317131 0.684802 -0.078739
C23   C     C_R   0.787167 0.246467 0.691390 -0.163255
H10   H     H_    0.899931 0.239761 0.644978 0.137553
C24   C     C_R   0.773817 0.179832 0.754974 -0.121835
H11   H     H_    0.875278 0.123223 0.755167 0.182601
C25   C     C_R   0.624793 0.183437 0.814875 -0.134475
C26   C     C_R   0.503381 0.260482 0.813252 0.027098
C27   C     C_3   0.290307 0.270192 0.820058 0.954707
C28   C     C_3   0.301349 0.340507 0.749275 -0.465657
H12   H     H_    0.264305 0.412063 0.768940 0.183845
H13   H     H_    0.231699 0.316470 0.690343 0.172532
C29   C     C_R   0.493062 0.249525 0.309840 0.016554
C30   C     C_R   0.647455 0.311248 0.317025 -0.098495
C31   C     C_R   0.798590 0.301869 0.258830 -0.154476
H14   H     H_    0.920666 0.347944 0.261874 0.115576
C32   C     C_R   0.786845 0.237602 0.192331 -0.089246
H15   H     H_    0.900879 0.235464 0.146335 0.124475
C33   C     C_R   0.623531 0.181003 0.182072 -0.165065
C34   C     C_R   0.481666 0.185822 0.244129 0.082116
C35   C     C_3   0.270407 0.199695 0.235272 0.486395
C36   C     C_3   0.282575 0.268717 0.307180 -0.438471
H16   H     H_    0.229318 0.229946 0.174174 0.034480
H17   H     H_    0.207873 0.245806 0.364907 0.205878
H18   H     H_    0.251763 0.340755 0.288125 0.122797
O11   O     O_R   0.771650 0.079500 0.908680 -0.552383
O12   O     O_R   0.441690 0.091800 0.082800 -0.540913
O13   O     O_R   0.271460 0.912980 0.083410 -0.536763
C37   C     C_R   0.610749 0.114295 0.111594 0.694020
O14   O     O_R   0.441930 0.090510 0.909280 -0.511599
O15   O     O_R   0.271690 0.911670 0.908660 -0.532180
C38   C     C_R   0.610946 0.112785 0.880826 0.692521
O16   O     O_R   0.771410 0.080810 0.083440 -0.537132
O17   O     O_3   0.605100 0.937580 0.996050 -0.358644
V3    V     V_3+5 0.330220 0.007110 0.996030 1.561800
O18   O     O_R   0.941980 0.900620 0.909250 -0.548436
C39   C     C_R   0.110682 0.878298 0.880663 0.747685
O19   O     O_R   0.941740 0.901920 0.082770 -0.508015
C40   C     C_R   0.110643 0.879190 0.111150 0.789141
V4    V     V_3+5 0.830220 0.985300 0.996000 1.536470
O20   O     O_3   0.105210 0.054870 0.996020 -0.370999
F1    F     F_    0.317054 0.681073 0.884645 -0.695259
O21   O     O_3   0.237961 0.308672 0.898425 -0.574976
C41   C     C_3   0.035973 0.315100 0.904398 -0.184231
H19   H     H_    0.971761 0.245739 0.913234 0.177455
H20   H     H_    0.971203 0.349481 0.849064 0.146025
H21   H     H_    0.999506 0.357315 0.960392 0.137321
F2    F     F_    0.196133 0.188870 0.799063 -0.728917
O22   O     O_3   0.973201 0.582991 0.791247 -0.564449
C42   C     C_3   0.869805 0.590117 0.866794 -0.170399
H22   H     H_    0.738134 0.632616 0.858628 0.171923
H23   H     H_    0.960299 0.618341 0.918479 0.175976
H24   H     H_    0.822835 0.520055 0.885246 0.155754
F3    F     F_    0.168982 0.121033 0.256238 -0.682667
F4    F     F_    0.798198 0.753734 0.151735 -0.686044

loop_
_geom_bond_atom_site_label_1
_geom_bond_atom_site_label_2
_ccdc_geom_bond_type
C9    H2    S    
C36   H17   S    
C7    C8    S    
C2    C30   S    
O15   V3    S    
V4    O20   S    
C27   O21   S    
O18   C39   A    
C35   C36   S    
C19   C20   S    
C6    C7    S    
C20   H8    S    
O5    C3    A    
C14   C15   A    
C13   C20   S    
C29   C36   S    
C32   C33   A    
V2    O10   S    
C5    C8    S    
C31   H14   S    
O13   V3    S    
C17   C18   A    
C4    C12   S    
C35   H16   S    
C29   C30   A    
O8    V2    S    
C18   C19   S    
C35   F3    S    
C37   O16   A    
O15   C39   A    
C11   C12   S    
O11   C38   A    
O18   V4    S    
O7    V1    S    
C1    O6    A    
C21   C28   S    
C14   C40   S    
C36   H18   S    
O9    C4    A    
C23   C24   A    
C6    F1    S    
C41   H20   S    
C24   C25   A    
C5    C12   S    
C28   H12   S    
C7    C10   S    
O21   C41   S    
V3    O20   S    
C42   H22   S    
O4    C2    A    
O17   V4    S    
C27   C28   S    
C32   H15   S    
C41   H19   S    
C6    C11   S    
C33   C34   A    
C28   H13   S    
C16   C17   A    
C7    C39   S    
O2    C1    A    
O17   V3    S    
C13   C14   A    
C42   H23   S    
C27   F2    S    
C15   C16   A    
C33   C37   S    
C30   C31   A    
C5    C6    S    
C11   H4    S    
O3    C4    A    
O1    V2    S    
C25   C26   A    
C1    C22   S    
O11   V4    S    
O6    V2    S    
C10   H3    S    
O9    V2    S    
C22   C23   A    
C21   C22   A    
O16   V4    S    
C3    C17   S    
O2    V1    S    
C23   H10   S    
O19   V4    S    
C41   H21   S    
C24   H11   S    
O1    C2    A    
C25   C38   S    
C19   H7    S    
C5    O22   S    
O5    V1    S    
O8    C3    A    
C29   C34   A    
O12   V3    S    
C13   C18   A    
C16   H5    S    
C19   H6    S    
O7    V2    S    
O4    V1    S    
O3    V1    S    
V1    O10   S    
C42   H24   S    
O22   C42   S    
O14   V3    S    
C31   C32   A    
C20   H9    S    
C34   C35   S    
C21   C26   A    
O19   C40   A    
C8    C9    S    
O12   C37   A    
C26   C27   S    
C8    H1    S    
C9    C12   S    
O14   C38   A    
C10   C11   S    
O13   C40   A    
C9    C10   S    
C15   F4    S    
