data_mof_unit_7835.cif
_audit_creation_date              2012-10-26T21:01:33-0400
_audit_creation_method            fapswitch 2.2
_symmetry_space_group_name_H-M    P1
_symmetry_Int_Tables_number       1
_space_group_crystal_system       triclinic
_cell_length_a                    15.875071
_cell_length_b                    13.000552
_cell_length_c                    11.681405
_cell_angle_alpha                 99.922489
_cell_angle_beta                  93.671562
_cell_angle_gamma                 90.537106
_cell_volume                      2369.41582327

loop_
_atom_site_label
_atom_site_type_symbol
_atom_type_description
_atom_site_fract_x
_atom_site_fract_y
_atom_site_fract_z
_atom_type_partial_charge
C1    C     C_R   0.499165 0.299063 0.478590 0.543146
C2    C     C_R   0.504084 0.968823 0.444835 0.049335
C3    C     C_R   0.419626 0.403174 0.021366 -0.153678
C4    C     C_R   0.580395 0.596809 0.978630 -0.153984
C5    C     C_R   0.428221 0.409939 0.144425 0.441026
C6    C     C_R   0.571810 0.590034 0.855562 0.440861
C7    C     C_R   0.534835 0.541823 0.156868 -0.000511
C8    C     C_R   0.465160 0.458186 0.843135 -0.000404
C9    C     C_R   0.529187 0.535033 0.034191 -0.050027
C10   C     C_R   0.470817 0.464970 0.965808 -0.050136
C11   C     C_R   0.339809 0.500029 0.500379 0.547751
C12   C     C_R   0.500870 0.700937 0.521412 0.543252
C13   C     C_R   0.660186 0.499977 0.499621 0.547736
C14   C     C_3   0.971112 0.398434 0.482505 -0.171736
C15   C     C_3   0.028848 0.602002 0.517524 -0.177161
C16   C     C_3   0.023119 0.449466 0.398767 0.260448
C17   C     C_3   0.976836 0.551016 0.601503 0.252964
C18   C     C_1   0.250251 0.500744 0.501259 0.000027
C19   C     C_1   0.749735 0.499355 0.498757 0.000003
C20   C     C_3   0.031018 0.452981 0.585425 0.264674
C21   C     C_3   0.968891 0.547352 0.414705 0.265323
C22   C     C_3   0.083211 0.502113 0.501220 0.006259
C23   C     C_R   0.509912 0.015399 0.346176 -0.143758
C24   C     C_3   0.916771 0.498259 0.498952 0.006724
C25   C     C_1   0.174798 0.501442 0.501501 0.014811
C26   C     C_1   0.825185 0.498775 0.498567 0.015001
C27   C     C_R   0.500105 0.814343 0.533699 0.003074
C28   C     C_R   0.500014 0.185660 0.466315 0.003009
C29   C     C_3   0.986720 0.352159 0.215605 0.024421
C30   C     C_3   0.994905 0.233460 0.197288 -0.266637
C31   C     C_3   0.925931 0.178975 0.110281 -0.491859
C32   C     C_3   0.012255 0.654204 0.779523 0.014178
C33   C     C_3   0.980040 0.695508 0.898956 -0.255542
C34   C     C_R   0.490298 0.984609 0.653857 -0.143704
C35   C     C_3   0.049353 0.755497 0.981052 -0.497438
C36   C     C_3   0.990525 0.643053 0.270396 -0.120457
C37   C     C_3   0.008698 0.357654 0.729830 -0.119224
C38   C     C_3   0.633185 0.752573 0.853992 -0.128396
C39   C     C_3   0.367310 0.247225 0.146162 -0.127759
C40   C     C_R   0.507995 0.123459 0.356913 -0.141634
C41   C     C_R   0.492198 0.876548 0.643119 -0.141440
C42   C     C_R   0.494020 0.139160 0.565128 -0.128928
C43   C     C_R   0.506123 0.860842 0.434890 -0.128906
C44   C     C_R   0.496099 0.031182 0.555192 0.049320
Cu1   Cu    Cu3+1 0.506200 0.507730 0.615930 1.002111
Cu2   Cu    Cu3+1 0.493800 0.492270 0.384070 1.002026
H1    H     H_    0.946176 0.316863 0.467571 0.094025
H2    H     H_    0.579393 0.596271 0.210240 0.125961
H3    H     H_    0.372950 0.350943 0.969249 0.087113
H4    H     H_    0.627080 0.649015 0.030762 0.086312
H5    H     H_    0.992344 0.378643 0.130860 0.148826
H6    H     H_    0.922340 0.373794 0.243665 0.145601
H7    H     H_    0.057636 0.211808 0.164353 0.178187
H8    H     H_    0.990397 0.206144 0.281769 0.163283
H9    H     H_    0.862629 0.197780 0.142675 0.149446
H10   H     H_    0.933843 0.093106 0.098692 0.146754
H11   H     H_    0.930078 0.203934 0.024481 0.143738
H12   H     H_    0.053738 0.683571 0.531487 0.091798
H13   H     H_    0.034635 0.721614 0.741574 0.127997
H14   H     H_    0.066002 0.601691 0.791326 0.169439
H15   H     H_    0.926333 0.748193 0.888806 0.177716
H16   H     H_    0.957151 0.628983 0.937800 0.168938
H17   H     H_    0.102378 0.703172 0.995908 0.151894
H18   H     H_    0.023572 0.786304 0.066067 0.136063
H19   H     H_    0.073317 0.822356 0.943865 0.148130
H20   H     H_    0.041296 0.589423 0.238106 0.152070
H21   H     H_    0.017881 0.712686 0.330470 0.113961
H22   H     H_    0.959323 0.670644 0.193905 0.132078
H23   H     H_    0.512458 0.813213 0.350128 0.117578
H24   H     H_    0.979374 0.289403 0.669500 0.112575
H25   H     H_    0.959457 0.412816 0.764024 0.153877
H26   H     H_    0.039847 0.328087 0.805132 0.132465
H27   H     H_    0.684864 0.760560 0.923842 0.107923
H28   H     H_    0.573473 0.784953 0.889136 0.083609
H29   H     H_    0.651741 0.800434 0.789366 0.147203
H30   H     H_    0.427197 0.215104 0.111341 0.083089
H31   H     H_    0.315783 0.238847 0.076082 0.109755
H32   H     H_    0.348778 0.199400 0.210834 0.146656
H33   H     H_    0.487661 0.186787 0.649885 0.117596
H34   H     H_    0.486603 0.841745 0.720127 0.126832
H35   H     H_    0.513627 0.158265 0.279918 0.126596
H36   H     H_    0.516237 0.968429 0.261130 0.097392
H37   H     H_    0.484001 0.031582 0.738909 0.097424
H38   H     H_    0.420597 0.403744 0.789764 0.126040
N1    N     N_R   0.515540 0.519350 0.790140 -0.218734
N2    N     N_R   0.484460 0.480650 0.209860 -0.218833
O1    O     O_R   0.504400 0.354460 0.582000 -0.524376
O2    O     O_3   0.945670 0.600472 0.707129 -0.562545
O3    O     O_3   0.929319 0.592332 0.324154 -0.565139
O4    O     O_3   0.070359 0.407079 0.675443 -0.566540
O5    O     O_3   0.623625 0.647578 0.797545 -0.514620
O6    O     O_3   0.376440 0.352324 0.202393 -0.514187
O7    O     O_R   0.495600 0.645540 0.418000 -0.524347
O8    O     O_R   0.493920 0.341410 0.386200 -0.470621
O9    O     O_R   0.506080 0.658590 0.613800 -0.470482
O10   O     O_R   0.384320 0.506520 0.597880 -0.516748
O11   O     O_R   0.615680 0.493480 0.402120 -0.516916
O12   O     O_R   0.373840 0.493460 0.402080 -0.441108
O13   O     O_R   0.626160 0.506540 0.597920 -0.441155
O14   O     O_3   0.053754 0.399366 0.293079 -0.563750

loop_
_geom_bond_atom_site_label_1
_geom_bond_atom_site_label_2
_ccdc_geom_bond_type
C36   O3    S    
C1    O1    A    
C11   C18   S    
C16   C21   S    
C23   H36   S    
C17   O2    S    
C41   H34   S    
C3    H3    S    
C36   H21   S    
C21   O3    S    
Cu1   Cu2   S    
C30   H8    S    
C6    N1    A    
C37   O4    S    
C11   O12   A    
C39   H31   S    
Cu1   O1    S    
C24   C26   S    
C38   H28   S    
C30   C31   S    
C36   H20   S    
C7    N2    A    
C28   C40   A    
C23   C40   A    
C32   O2    S    
C17   C20   S    
C7    C9    A    
C8    N1    A    
C14   C24   S    
C19   C26   T    
C11   O10   A    
C15   C22   S    
C2    C44   A    
C33   H16   S    
C22   C25   S    
C1    C28   S    
C12   O9    A    
C35   H18   S    
C31   H10   S    
C9    C10   A    
Cu2   O12   S    
C42   H33   S    
C43   H23   S    
C37   H24   S    
C34   C41   A    
C42   C44   A    
C38   H29   S    
C30   H7    S    
C17   C24   S    
C13   C19   S    
C12   C27   S    
C39   H32   S    
C14   C20   S    
C34   C44   A    
C4    C6    A    
Cu1   O13   S    
C16   O14   S    
C20   O4    S    
C38   O5    S    
C4    H4    S    
C13   O13   A    
Cu1   N1    S    
C29   C30   S    
C27   C41   A    
Cu2   O8    S    
C2    C43   A    
C39   H30   S    
C5    N2    A    
C8    C10   A    
Cu2   O11   S    
C20   C22   S    
C37   H25   S    
C15   H12   S    
C14   C16   S    
C12   O7    A    
C37   H26   S    
C34   H37   S    
C32   H14   S    
Cu1   O9    S    
C39   O6    S    
C29   H5    S    
C15   C17   S    
C16   C22   S    
C29   O14   S    
C8    H38   S    
C40   H35   S    
C3    C5    A    
C1    O8    A    
C36   H22   S    
C14   H1    S    
C32   C33   S    
C31   H11   S    
C3    C10   A    
C18   C25   T    
C7    H2    S    
Cu2   O7    S    
C28   C42   A    
C33   C35   S    
C13   O11   A    
C5    O6    S    
C27   C43   A    
C15   C21   S    
C33   H15   S    
C21   C24   S    
C2    C23   A    
C35   H19   S    
C35   H17   S    
C32   H13   S    
C31   H9    S    
C4    C9    A    
Cu1   O10   S    
C29   H6    S    
C6    O5    S    
Cu2   N2    S    
C38   H27   S    
