data_mof_unit_34588.cif
_audit_creation_date              2012-12-10T17:19:53-0500
_audit_creation_method            fapswitch 2.2
_symmetry_space_group_name_H-M    P1
_symmetry_Int_Tables_number       1
_space_group_crystal_system       triclinic
_cell_length_a                    9.602896
_cell_length_b                    10.859623
_cell_length_c                    15.490191
_cell_angle_alpha                 86.42168
_cell_angle_beta                  74.292532
_cell_angle_gamma                 90.174622
_cell_volume                      1551.68644502

loop_
_atom_site_label
_atom_site_type_symbol
_atom_type_description
_atom_site_fract_x
_atom_site_fract_y
_atom_site_fract_z
_atom_type_partial_charge
C1    C     C_R   0.003621 0.263193 0.493288 0.790010
C2    C     C_R   0.675157 0.489529 0.909064 0.085271
C3    C     C_R   0.776093 0.521645 0.956336 0.167982
C4    C     C_R   0.526198 0.470094 0.956199 0.068004
C5    C     C_R   0.478965 0.492453 0.049212 0.067557
C6    C     C_R   0.584030 0.523120 0.093766 -0.220477
C7    C     C_R   0.729409 0.536609 0.048110 -0.240160
C8    C     C_R   0.423330 0.427516 0.913787 -0.228294
C9    C     C_R   0.278317 0.411862 0.959763 -0.239898
C10   C     C_R   0.229485 0.438538 0.049441 0.169286
C11   C     C_R   0.328578 0.480633 0.094939 0.093303
C12   C     C_R   0.918215 0.499693 0.672032 0.793966
C13   C     C_R   0.082095 0.421895 0.094534 -0.224546
C14   C     C_R   0.031306 0.445881 0.184784 -0.183151
C15   C     C_R   0.273204 0.508725 0.185014 -0.257237
C16   C     C_R   0.280433 0.121277 0.450398 -0.158227
C17   C     C_R   0.401150 0.061767 0.464979 -0.169429
C18   C     C_R   0.384898 0.945853 0.509975 -0.136369
C19   C     C_R   0.251087 0.884375 0.531886 -0.156717
C20   C     C_R   0.130880 0.938190 0.508120 0.089439
C21   C     C_R   0.140766 0.064752 0.480727 0.104783
C22   C     C_R   0.010515 0.129407 0.485730 -0.120999
C23   C     C_R   0.998829 0.737229 0.505533 0.832210
C24   C     C_R   0.881053 0.063532 0.495705 -0.222853
C25   C     C_R   0.878228 0.936090 0.503858 -0.181068
C26   C     C_R   0.001746 0.871686 0.509923 -0.123852
C27   C     C_R   0.692450 0.671140 0.376048 0.629619
C28   C     C_R   0.639525 0.751719 0.319935 -0.231713
C29   C     C_R   0.496241 0.749623 0.322661 -0.336817
C30   C     C_R   0.403544 0.666543 0.381689 -0.129489
C31   C     C_R   0.449868 0.582245 0.441355 0.129343
C32   C     C_R   0.600177 0.583000 0.440193 -0.029170
C33   C     C_R   0.550663 0.420430 0.556582 0.534407
C34   C     C_R   0.081767 0.498860 0.328098 0.832533
C35   C     C_R   0.400804 0.421887 0.555864 -0.202461
C36   C     C_R   0.872839 0.502075 0.770348 -0.052352
C37   C     C_R   0.127376 0.487671 0.230677 -0.039947
C38   C     C_R   0.923182 0.539905 0.911063 -0.212535
C39   C     C_R   0.971564 0.529043 0.818736 -0.203474
C40   C     C_R   0.726529 0.481966 0.815555 -0.253789
Cu1   Cu    Cu3+1 0.140660 0.499990 0.500010 0.926994
Cu2   Cu    Cu3+1 0.859340 0.500010 0.499990 1.025299
H1    H     H_    0.805758 0.560543 0.084984 0.155186
H2    H     H_    0.006569 0.387623 0.060431 0.142383
H3    H     H_    0.781133 0.110449 0.497068 0.171855
H4    H     H_    0.299208 0.209968 0.413138 0.165979
H5    H     H_    0.506556 0.107171 0.443620 0.134583
H6    H     H_    0.476754 0.902185 0.526109 0.131378
H7    H     H_    0.243415 0.796765 0.569922 0.163703
H8    H     H_    0.777967 0.888045 0.506480 0.165862
H9    H     H_    0.711922 0.816906 0.272836 0.182765
H10   H     H_    0.341130 0.547035 0.221898 0.150479
H11   H     H_    0.456319 0.812743 0.278329 0.186778
H12   H     H_    0.296350 0.673787 0.376714 0.222930
H13   H     H_    0.320984 0.360471 0.600623 0.139613
H14   H     H_    0.918088 0.428594 0.219115 0.154731
H15   H     H_    0.203685 0.378382 0.924634 0.146246
H16   H     H_    0.000561 0.564802 0.946864 0.145413
H17   H     H_    0.085178 0.545280 0.784983 0.154830
H18   H     H_    0.654094 0.464299 0.775470 0.174708
H19   H     H_    0.558794 0.535018 0.164747 0.152421
H20   H     H_    0.451250 0.401909 0.845343 0.146784
N1    N     N_R   0.648320 0.501210 0.499140 -0.217295
N2    N     N_R   0.352470 0.501290 0.499110 -0.199846
O1    O     O_R   0.118810 0.319640 0.500010 -0.594273
O2    O     O_R   0.881240 0.319660 0.500000 -0.542137
O3    O     O_R   0.055570 0.499980 0.629840 -0.591988
O4    O     O_R   0.818000 0.500010 0.629830 -0.542453
O5    O     O_R   0.118760 0.680340 0.500000 -0.623690
O6    O     O_R   0.881190 0.680360 0.499990 -0.518266
O7    O     O_R   0.182000 0.499990 0.370170 -0.621043
O8    O     O_R   0.944430 0.500020 0.370160 -0.517414
O9    O     O_3   0.604709 0.343002 0.614782 -0.549737
C41   C     C_3   0.507893 0.248629 0.662626 -0.011428
H21   H     H_    0.469827 0.191696 0.615815 0.150769
H22   H     H_    0.414892 0.288552 0.711615 0.136526
C42   C     C_3   0.585939 0.164628 0.715683 -0.763965
H23   H     H_    0.624628 0.218310 0.763721 0.243922
H24   H     H_    0.510945 0.089883 0.753868 0.202881
H25   H     H_    0.680090 0.122600 0.669403 0.249280
F1    F     F_    0.835028 0.686891 0.360945 -0.663453

loop_
_geom_bond_atom_site_label_1
_geom_bond_atom_site_label_2
_ccdc_geom_bond_type
C14   H14   S    
C16   C21   A    
C40   H18   S    
C34   C37   S    
Cu1   Cu2   S    
C23   O5    A    
C19   C20   A    
C4    C8    A    
Cu1   O3    S    
C42   H23   S    
C30   H12   S    
C41   H22   S    
C24   H3    S    
C6    H19   S    
C28   C29   A    
C5    C11   A    
C3    C7    A    
C5    C6    A    
C28   H9    S    
Cu2   O6    S    
C18   C19   A    
O9    C41   S    
C23   C26   S    
C25   H8    S    
C15   C37   A    
C38   H16   S    
C11   C15   A    
C3    C38   A    
C8    C9    A    
C41   C42   S    
C1    O1    A    
C35   N2    A    
C7    H1    S    
C12   C36   S    
C9    C10   A    
Cu1   O7    S    
C1    C22   S    
C21   C22   A    
Cu2   O4    S    
C23   O6    A    
C17   C18   A    
C42   H24   S    
C38   C39   A    
C12   O3    A    
C41   H21   S    
C35   H13   S    
C36   C40   A    
C24   C25   A    
C16   H4    S    
C16   C17   A    
Cu1   O1    S    
C25   C26   A    
C2    C4    A    
C29   C30   A    
C12   O4    A    
C19   H7    S    
C31   C32   A    
C27   F1    S    
C33   N1    A    
C39   H17   S    
Cu2   O8    S    
C1    O2    A    
C15   H10   S    
C33   O9    S    
C22   C24   A    
C34   O8    A    
Cu1   O5    S    
C42   H25   S    
C27   C32   A    
C31   N2    A    
C36   C39   A    
C17   H5    S    
C32   N1    A    
C4    C5    A    
C20   C26   A    
C10   C13   A    
C18   H6    S    
C6    C7    A    
C2    C3    A    
C14   C37   A    
C30   C31   A    
C29   H11   S    
C34   O7    A    
C33   C35   A    
C9    H15   S    
C10   C11   A    
C2    C40   A    
C20   C21   A    
C27   C28   A    
Cu2   O2    S    
Cu1   N2    S    
C13   C14   A    
Cu2   N1    S    
C13   H2    S    
C8    H20   S    
