data_mof_unit_19196.cif
_audit_creation_date              2012-12-10T18:19:54-0500
_audit_creation_method            fapswitch 2.2
_symmetry_space_group_name_H-M    P1
_symmetry_Int_Tables_number       1
_space_group_crystal_system       triclinic
_cell_length_a                    14.825312
_cell_length_b                    14.021608
_cell_length_c                    14.141983
_cell_angle_alpha                 89.841728
_cell_angle_beta                  89.548538
_cell_angle_gamma                 89.442492
_cell_volume                      2939.51963749

loop_
_atom_site_label
_atom_site_type_symbol
_atom_type_description
_atom_site_fract_x
_atom_site_fract_y
_atom_site_fract_z
_atom_type_partial_charge
C1    C     C_R   0.326706 0.500247 0.501592 0.939290
C2    C     C_R   0.673353 0.499394 0.498572 0.946169
C3    C     C_R   0.953411 0.467583 0.507953 -0.029806
C4    C     C_R   0.047351 0.468375 0.508536 -0.029637
C5    C     C_R   0.907975 0.446510 0.422655 0.015726
C6    C     C_R   0.092986 0.486938 0.594341 0.016678
C7    C     C_R   0.950379 0.501900 0.678877 0.072303
C8    C     C_R   0.050199 0.428504 0.338679 0.077042
C9    C     C_R   0.044322 0.483504 0.680849 0.086932
C10   C     C_R   0.957372 0.408099 0.345447 0.090265
C11   C     C_R   0.551861 0.797149 0.436352 -0.054421
C12   C     C_R   0.445269 0.202984 0.560977 -0.055204
C13   C     C_R   0.446866 0.797874 0.562690 -0.049002
C14   C     C_R   0.553381 0.202163 0.437697 -0.055466
C15   C     C_R   0.444560 0.899059 0.565199 -0.029741
C16   C     C_R   0.554321 0.100997 0.433944 -0.029200
C17   C     C_R   0.552259 0.898270 0.432257 -0.030301
C18   C     C_R   0.442432 0.101888 0.562915 -0.027658
C19   C     C_R   0.498517 0.949512 0.498766 0.016307
C20   C     C_R   0.498554 0.050566 0.498662 0.014713
C21   C     C_R   0.389317 0.950141 0.631205 0.069970
C22   C     C_R   0.608345 0.050108 0.366763 0.079630
C23   C     C_R   0.604470 0.948353 0.363509 0.073817
C24   C     C_R   0.385132 0.051942 0.627030 0.074091
C25   C     C_R   0.499871 0.500092 0.329027 0.924995
C26   C     C_R   0.499890 0.499875 0.670975 0.918342
C27   C     C_1   0.499600 0.500169 0.227635 -0.172954
C28   C     C_1   0.499548 0.499598 0.772372 -0.179723
C29   C     C_1   0.499383 0.499954 0.142422 -0.003059
C30   C     C_1   0.499291 0.499470 0.857593 -0.006182
C31   C     C_1   0.499190 0.499647 0.042621 0.005706
C32   C     C_1   0.499151 0.499485 0.957403 0.005579
C33   C     C_R   0.815634 0.468507 0.416669 0.164506
C34   C     C_R   0.184750 0.511097 0.589450 0.161417
C35   C     C_R   0.769341 0.495756 0.498534 -0.091057
C36   C     C_R   0.230825 0.498471 0.504046 -0.092235
C37   C     C_R   0.811933 0.505308 0.584696 -0.318994
C38   C     C_R   0.188296 0.468286 0.422932 -0.316434
C39   C     C_R   0.905039 0.493206 0.591173 0.086819
C40   C     C_R   0.095418 0.456311 0.422169 0.084238
H1    H     H_    0.770461 0.522058 0.645749 0.149351
H2    H     H_    0.229557 0.455411 0.360779 0.152091
H3    H     H_    0.592864 0.753760 0.389838 0.157495
H4    H     H_    0.405053 0.246489 0.608117 0.152707
H5    H     H_    0.406154 0.755066 0.609444 0.167224
H6    H     H_    0.593717 0.245165 0.390744 0.158860
N1    N     N_R   0.500000 0.750030 0.500000 -0.103994
N2    N     N_R   0.500000 0.249970 0.500000 -0.103265
O1    O     O_R   0.367850 0.580280 0.500020 -0.591619
O2    O     O_R   0.632150 0.419720 0.499980 -0.609046
O3    O     O_R   0.632150 0.580280 0.499980 -0.609286
O4    O     O_R   0.367850 0.419720 0.500020 -0.622885
O5    O     O_R   0.500000 0.580290 0.373720 -0.603363
O6    O     O_R   0.500000 0.419710 0.626280 -0.609538
O7    O     O_R   0.500000 0.580290 0.626280 -0.592999
O8    O     O_R   0.500000 0.419710 0.373720 -0.602202
Zn1   Zn    Zn3+2 0.500000 0.607200 0.500000 0.957510
Zn2   Zn    Zn3+2 0.500000 0.392800 0.500000 0.941884
Br1   Br    Br    0.754788 0.484164 0.296552 -0.625286
Br2   Br    Br    0.245406 0.578381 0.689909 -0.636034
C41   C     C_3   0.900036 0.532088 0.768886 -0.430152
C42   C     C_3   0.878644 0.639470 0.767507 -0.338486
C43   C     C_3   0.822666 0.668795 0.853853 -0.870983
H7    H     H_    0.757244 0.630805 0.854537 0.264709
H8    H     H_    0.859772 0.652017 0.919879 0.265764
H9    H     H_    0.808953 0.746751 0.851373 0.248903
H10   H     H_    0.942871 0.679799 0.767317 0.227843
H11   H     H_    0.840978 0.659699 0.702840 0.229726
H12   H     H_    0.837990 0.489300 0.778367 0.193949
H13   H     H_    0.939419 0.517982 0.833587 0.215571
C44   C     C_3   0.099257 0.422390 0.243291 -0.433497
C45   C     C_3   0.121705 0.522181 0.205051 -0.337894
C46   C     C_3   0.180736 0.516145 0.116310 -0.873420
H14   H     H_    0.245956 0.480278 0.132629 0.261827
H15   H     H_    0.145933 0.475883 0.060102 0.263506
H16   H     H_    0.194736 0.589121 0.089662 0.255361
H17   H     H_    0.057918 0.560484 0.187630 0.230860
H18   H     H_    0.157493 0.565030 0.258620 0.228967
H19   H     H_    0.160769 0.377074 0.249540 0.193628
H20   H     H_    0.058214 0.387441 0.188589 0.210171
C47   C     C_3   0.089057 0.446729 0.771014 -0.379147
C48   C     C_3   0.046792 0.352946 0.806047 -0.382905
C49   C     C_3   0.075498 0.329925 0.907032 -0.898964
H21   H     H_    0.150105 0.330434 0.913024 0.274099
H22   H     H_    0.045982 0.383245 0.956583 0.258846
H23   H     H_    0.050751 0.258214 0.927447 0.252719
H24   H     H_    0.972027 0.355806 0.804430 0.228686
H25   H     H_    0.068898 0.293824 0.758705 0.224662
H26   H     H_    0.160928 0.428306 0.758561 0.235986
H27   H     H_    0.086948 0.502786 0.826365 0.224239
C50   C     C_3   0.915680 0.333013 0.281647 -0.382447
C51   C     C_3   0.966071 0.236707 0.288973 -0.380497
C52   C     C_3   0.928146 0.163991 0.220343 -0.901167
H28   H     H_    0.856194 0.151096 0.236810 0.266580
H29   H     H_    0.934732 0.190097 0.146395 0.265891
H30   H     H_    0.965812 0.095507 0.227080 0.253304
H31   H     H_    0.039040 0.244252 0.273364 0.227173
H32   H     H_    0.959301 0.208624 0.362280 0.225788
H33   H     H_    0.845386 0.317785 0.303863 0.234692
H34   H     H_    0.913362 0.358893 0.207417 0.221686
C53   C     C_3   0.336470 0.896581 0.707505 -0.440821
C54   C     C_3   0.244976 0.862870 0.670518 -0.330148
C55   C     C_3   0.185219 0.826551 0.751012 -0.816437
H35   H     H_    0.220477 0.769335 0.791130 0.294005
H36   H     H_    0.167652 0.885825 0.799968 0.239789
H37   H     H_    0.121935 0.797371 0.721745 0.255126
H38   H     H_    0.209158 0.922424 0.634313 0.211374
H39   H     H_    0.255193 0.804828 0.618166 0.246878
H40   H     H_    0.376215 0.835458 0.735526 0.199687
H41   H     H_    0.326350 0.941052 0.771356 0.208268
C56   C     C_3   0.670234 0.104668 0.299182 -0.445827
C57   C     C_3   0.617544 0.144871 0.214537 -0.348264
C58   C     C_3   0.677611 0.205290 0.150522 -0.855866
H42   H     H_    0.706928 0.265146 0.190987 0.285573
H43   H     H_    0.732821 0.160833 0.119819 0.255295
H44   H     H_    0.636932 0.235414 0.091790 0.253861
H45   H     H_    0.589727 0.085268 0.172553 0.217722
H46   H     H_    0.559849 0.189644 0.239116 0.227675
H47   H     H_    0.705591 0.162182 0.337367 0.195194
H48   H     H_    0.726837 0.059867 0.273079 0.203399
C59   C     C_3   0.652512 0.893097 0.284485 -0.436651
C60   C     C_3   0.745618 0.856604 0.316117 -0.355213
C61   C     C_3   0.790002 0.794586 0.240094 -0.826913
H49   H     H_    0.747923 0.731180 0.225757 0.285297
H50   H     H_    0.799049 0.836091 0.173730 0.251057
H51   H     H_    0.857218 0.769741 0.264664 0.253368
H52   H     H_    0.790177 0.917846 0.331206 0.217241
H53   H     H_    0.739469 0.813970 0.382112 0.230074
H54   H     H_    0.610167 0.833217 0.260251 0.196880
H55   H     H_    0.659479 0.936242 0.219162 0.204562
C62   C     C_3   0.317150 0.107513 0.687970 -0.438444
C63   C     C_3   0.360906 0.146581 0.777917 -0.340941
C64   C     C_3   0.295511 0.211372 0.832080 -0.882085
H56   H     H_    0.275957 0.273666 0.787756 0.269178
H57   H     H_    0.234019 0.171462 0.852708 0.263178
H58   H     H_    0.328338 0.237844 0.897115 0.252677
H59   H     H_    0.381688 0.086630 0.824626 0.216528
H60   H     H_    0.422392 0.187726 0.760177 0.224595
H61   H     H_    0.285964 0.165991 0.645990 0.193832
H62   H     H_    0.258020 0.063958 0.707836 0.208653

loop_
_geom_bond_atom_site_label_1
_geom_bond_atom_site_label_2
_ccdc_geom_bond_type
C2    C35   S    
C41   H13   S    
C38   C40   A    
C43   H8    S    
C52   H28   S    
C27   C29   T    
C46   H14   S    
C11   N1    A    
C19   C20   A    
C25   O8    A    
C59   H55   S    
C12   N2    A    
C26   O7    A    
C6    C9    A    
C44   H19   S    
C47   C48   S    
C51   H32   S    
C61   H49   S    
C23   C59   S    
C15   C19   A    
C17   C23   A    
C42   H10   S    
C49   H21   S    
C18   C24   A    
C35   C37   A    
C25   O5    A    
C38   H2    S    
C37   H1    S    
C57   H45   S    
C61   H50   S    
N1    Zn1   S    
C63   H60   S    
C48   H24   S    
O1    Zn1   S    
C56   H47   S    
C60   H52   S    
C57   C58   S    
C45   H18   S    
C62   H62   S    
C2    O2    A    
C17   C19   A    
C7    C41   S    
C4    C40   A    
C63   C64   S    
C5    C33   A    
C64   H58   S    
C54   H39   S    
O3    Zn1   S    
C50   H34   S    
C18   C20   A    
C58   H44   S    
C21   C53   S    
C43   H9    S    
C3    C39   A    
C33   Br1   S    
C34   Br2   S    
C46   H15   S    
C54   C55   S    
C26   O6    A    
C44   H20   S    
C51   H31   S    
C37   C39   A    
O2    Zn2   S    
C53   C54   S    
C4    C6    A    
C50   C51   S    
C13   N1    A    
O5    Zn1   S    
C61   H51   S    
C14   N2    A    
C53   H41   S    
C6    C34   A    
C56   H48   S    
C14   H6    S    
C45   H17   S    
C57   H46   S    
C31   C32   T    
C16   C20   A    
C42   C43   S    
C54   H38   S    
C55   H36   S    
C11   H3    S    
C59   C60   S    
O4    Zn2   S    
C47   H27   S    
C49   H22   S    
C10   C50   S    
C22   C56   S    
C52   H30   S    
O7    Zn1   S    
C64   H56   S    
C46   H16   S    
C14   C16   A    
C62   C63   S    
C13   H5    S    
C58   H42   S    
O6    Zn2   S    
C41   H12   S    
C7    C9    A    
C11   C17   A    
C8    C44   S    
C16   C22   A    
C56   C57   S    
C59   H54   S    
C45   C46   S    
C3    C5    A    
N2    Zn2   S    
C25   C27   S    
C26   C28   S    
C42   H11   S    
C13   C15   A    
C63   H59   S    
C47   H26   S    
C5    C10   A    
C29   C31   S    
C36   C38   A    
C30   C32   S    
C24   C62   S    
C52   H29   S    
C1    O1    A    
C48   H25   S    
C28   C30   T    
C51   C52   S    
C33   C35   A    
O8    Zn2   S    
C55   H37   S    
C34   C36   A    
C60   H53   S    
C41   C42   S    
C1    O4    A    
C62   H61   S    
C2    O3    A    
C43   H7    S    
C15   C21   A    
C49   H23   S    
C44   C45   S    
C8    C10   A    
C48   C49   S    
C21   C24   A    
C12   C18   A    
C55   H35   S    
C64   H57   S    
C7    C39   A    
C22   C23   A    
C12   H4    S    
C8    C40   A    
C50   H33   S    
C60   C61   S    
C53   H40   S    
C3    C4    A    
C1    C36   S    
C9    C47   S    
C58   H43   S    
