data_mof_unit_33361.cif
_audit_creation_date              2013-03-05T15:43:56-0500
_audit_creation_method            fapswitch 2.2
_symmetry_space_group_name_H-M    P1
_symmetry_Int_Tables_number       1
_space_group_crystal_system       triclinic
_cell_length_a                    8.275293
_cell_length_b                    15.330978
_cell_length_c                    19.013557
_cell_angle_alpha                 101.440441
_cell_angle_beta                  91.512822
_cell_angle_gamma                 99.478415
_cell_volume                      2327.65661176

loop_
_atom_site_label
_atom_site_type_symbol
_atom_site_description
_atom_site_fract_x
_atom_site_fract_y
_atom_site_fract_z
_atom_type_partial_charge
P1    P     P_3+3 0.038110 0.412300 0.335300 0.573844
O1    O     O_2   0.871030 0.438240 0.324420 -0.336677
O2    O     O_3   0.120590 0.445310 0.413740 -0.424603
O3    O     O_3   0.663040 0.605930 0.370050 -0.306935
O4    O     O_2   0.767634 0.532236 0.246982 -0.334419
O5    O     O_3   0.986061 0.293475 0.317681 -0.489090
O6    O     O_3   0.706926 0.693146 0.254020 -0.605004
C1    C     C_3   0.537639 0.785071 0.209594 -1.119514
H1    H     H_    0.643602 0.815272 0.182485 0.239690
H2    H     H_    0.465477 0.727252 0.171026 0.257532
P2    P     P_3+3 0.679950 0.711710 0.558590 0.529204
P3    P     P_3+3 0.143031 0.772395 0.409605 0.535690
O7    O     O_2   0.855660 0.723510 0.537160 -0.389364
O8    O     O_3   0.086340 0.654970 0.406630 -0.399016
O9    O     O_2   0.038143 0.818336 0.466791 -0.298696
O10   O     O_3   0.693998 0.749805 0.652671 -0.673024
O11   O     O_3   0.075804 0.802087 0.331035 -0.508595
C2    C     C_3   0.109003 0.739229 0.271186 0.304734
H3    H     H_    0.020959 0.674948 0.265659 0.125532
H4    H     H_    0.234701 0.724779 0.275805 0.021632
C3    C     C_3   0.092666 0.778606 0.204240 0.082431
H5    H     H_    0.962725 0.786691 0.196003 0.112873
C4    C     C_3   0.321477 0.753347 0.720807 1.029692
H6    H     H_    0.425135 0.715709 0.716463 0.055170
C5    C     C_3   0.378632 0.842552 0.696571 -0.925467
H7    H     H_    0.287479 0.888233 0.709240 0.241731
H8    H     H_    0.499755 0.876816 0.723274 0.268308
H9    H     H_    0.391549 0.829325 0.637692 0.200927
Ba1   Ba    Ba6+2 0.854120 0.540280 0.465540 1.691395
C6    C     C_3   0.978531 0.256086 0.379791 0.317337
H10   H     H_    0.848791 0.238808 0.392295 0.023730
H11   H     H_    0.044946 0.300465 0.428433 0.067209
C7    C     C_3   0.052429 0.169817 0.364575 0.212793
H12   H     H_    0.063375 0.145312 0.415389 0.078446
H13   H     H_    0.176820 0.187470 0.345271 0.120559
C8    C     C_3   0.791241 0.704713 0.689437 0.567840
H14   H     H_    0.888513 0.680358 0.656344 0.064205
C9    C     C_3   0.872516 0.770119 0.758142 0.108398
H15   H     H_    0.974588 0.818633 0.743459 0.088955
H16   H     H_    0.778642 0.808781 0.783535 0.073328
P4    P     P_3+3 0.151600 0.587780 0.664700 0.442239
O12   O     O_2   0.318670 0.561790 0.675630 -0.353453
O13   O     O_3   0.069120 0.554770 0.586270 -0.448433
O14   O     O_3   0.526680 0.394150 0.629950 -0.305476
O15   O     O_3   0.186853 0.706565 0.673718 -0.647024
P5    P     P_3+3 0.071577 0.229372 0.590618 0.516567
O16   O     O_3   0.607620 0.388570 0.462320 -0.340616
O17   O     O_3   0.103380 0.345110 0.593380 -0.415548
O18   O     O_2   0.212772 0.192630 0.549795 -0.332800
O19   O     O_3   0.105936 0.212692 0.677860 -0.478703
Ba2   Ba    Ba6+2 0.335710 0.459790 0.534460 1.643395
P6    P     P_3+3 0.637013 0.588611 0.276321 0.546154
C10   C     C_3   0.597608 0.753425 0.275588 0.902061
H17   H     H_    0.489002 0.723205 0.300979 -0.115791
H18   H     H_    0.457778 0.836202 0.225551 0.257889
O20   O     O_3   0.582100 0.611510 0.537680 -0.306710
C11   C     C_3   0.538392 0.246001 0.305359 0.647827
H19   H     H_    0.665763 0.282909 0.317558 0.074890
C12   C     C_3   0.531838 0.169530 0.238668 0.162766
H20   H     H_    0.402810 0.132876 0.228425 0.056875
H21   H     H_    0.566410 0.197601 0.190785 0.163830
P7    P     P_3+3 0.517985 0.271177 0.447645 0.487503
O21   O     O_2   0.334040 0.276520 0.462890 -0.367017
O22   O     O_3   0.486168 0.203435 0.360969 -0.640955
H22   H     H_    0.171971 0.846535 0.213717 0.086425
C13   C     C_3   0.048554 0.280568 0.726673 0.551079
H23   H     H_    0.125531 0.347490 0.727681 0.114068
H24   H     H_    0.918758 0.283042 0.712350 -0.030923
C14   C     C_3   0.059749 0.260636 0.801753 -0.971422
H25   H     H_    0.190036 0.264469 0.819557 0.267140
H26   H     H_    0.006026 0.310643 0.840221 0.213753
H27   H     H_    0.991399 0.192124 0.802112 0.294643
P8    P     P_3+3 0.547471 0.399271 0.721606 0.525854
C15   C     C_3   0.573952 0.236995 0.731050 0.146012
H28   H     H_    0.672028 0.263903 0.774570 0.067734
O23   O     O_2   0.428961 0.461911 0.754582 -0.339492
O24   O     O_3   0.456247 0.293654 0.736218 -0.531568
H29   H     H_    0.628358 0.230512 0.677759 0.088641
C16   C     C_3   0.491016 0.143375 0.739894 -0.027503
H30   H     H_    0.427848 0.104882 0.687974 0.138942
H31   H     H_    0.397109 0.150197 0.780529 0.136415
C17   C     C_R   0.994772 0.444489 0.039263 -0.087552
C18   C     C_R   0.895901 0.391711 0.080383 -0.175733
C19   C     C_R   0.741616 0.341229 0.047739 0.715383
C20   C     C_R   0.677598 0.358788 0.984325 -0.327599
C21   C     C_R   0.773648 0.411407 0.944473 0.069949
C22   C     C_R   0.935123 0.451070 0.969718 0.033109
C23   C     C_R   0.712300 0.418668 0.877180 -0.208918
C24   C     C_R   0.815106 0.456743 0.829601 -0.027299
C25   C     C_R   0.977469 0.498957 0.854090 -0.003188
C26   C     C_R   0.035657 0.497145 0.925293 -0.020674
C27   C     C_R   0.762797 0.448532 0.757093 0.212968
C28   C     C_R   0.873872 0.481411 0.709585 -0.428158
C29   C     C_R   0.027329 0.534572 0.733649 0.257115
C30   C     C_R   0.082203 0.541167 0.807418 -0.016868
C31   C     C_R   0.154725 0.487585 0.065919 0.049193
C32   C     C_R   0.211082 0.487383 0.137568 -0.036672
C33   C     C_R   0.104208 0.444736 0.184331 -0.183150
C34   C     C_R   0.952690 0.390662 0.151857 0.396577
H32   H     H_    0.554590 0.325571 0.963843 0.152928
H33   H     H_    0.836723 0.469638 0.653108 0.182397
H34   H     H_    0.586154 0.388433 0.860805 0.166066
C35   C     C_R   0.240030 0.584673 0.835832 -0.081023
C36   C     C_R   0.297795 0.581426 0.905504 0.080232
C37   C     C_R   0.196705 0.536995 0.950603 0.014618
C38   C     C_R   0.257747 0.531760 0.020543 0.010126
C39   C     C_R   0.457619 0.621368 0.930365 -0.170963
C40   C     C_R   0.519383 0.614635 0.997364 -0.168678
C41   C     C_R   0.423873 0.567344 0.043189 -0.021591
C42   C     C_R   0.377270 0.526119 0.161032 -0.110379
C43   C     C_R   0.488513 0.553770 0.110063 0.497819
C44   C     C_R   0.426955 0.535355 0.235083 0.225470
C45   C     C_R   0.310986 0.510506 0.283045 -0.358318
C46   C     C_R   0.156322 0.458504 0.260464 0.308493
H35   H     H_    0.323131 0.617953 0.803191 0.192601
H36   H     H_    0.536616 0.658513 0.898004 0.167282
H37   H     H_    0.639910 0.652542 0.012263 0.106849
H38   H     H_    0.346901 0.526971 0.339877 0.199424
C47   C     C_R   0.759906 0.235647 0.537131 -0.578552
C48   C     C_R   0.864524 0.176366 0.549164 0.103510
C49   C     C_R   0.811050 0.081835 0.526468 0.241210
C50   C     C_R   0.640049 0.047968 0.508471 0.027975
C51   C     C_R   0.539084 0.110772 0.496528 -0.232689
C52   C     C_R   0.603429 0.203035 0.504810 0.325072
C53   C     C_R   0.428063 0.909034 0.450755 -0.294048
C54   C     C_R   0.360545 0.817508 0.442467 0.058411
C55   C     C_R   0.588152 0.794762 0.516532 0.095918
C56   C     C_R   0.637678 0.890796 0.537104 0.380014
C57   C     C_R   0.570608 0.947492 0.496879 0.086843
C58   C     C_R   0.448167 0.760756 0.470658 0.211999
H39   H     H_    0.364037 0.949446 0.423090 0.182195
H40   H     H_    0.413361 0.088602 0.475728 0.176261
H41   H     H_    0.806099 0.307471 0.546131 0.172579
N1    N     N_R   0.684232 0.829199 0.329097 0.228686
O25   O     O_R   0.680682 0.912642 0.324872 -0.396161
O26   O     O_R   0.755117 0.812312 0.385347 -0.340981
O27   O     O_3   0.952136 0.102487 0.312913 -0.524002
C59   C     C_3   0.040786 0.032657 0.286964 0.060243
H42   H     H_    0.133720 0.054995 0.250214 0.063935
H43   H     H_    0.955023 0.973694 0.255694 0.136840
H44   H     H_    0.101131 0.009373 0.331217 0.140916
N2    N     N_R   0.685501 0.628081 0.707204 0.207526
O28   O     O_R   0.622552 0.562844 0.654953 -0.343820
O29   O     O_R   0.633061 0.629630 0.771248 -0.463529
O30   O     O_3   0.937088 0.721319 0.804783 -0.560292
C60   C     C_3   0.953836 0.771829 0.875918 -0.037651
H45   H     H_    0.831370 0.776830 0.897542 0.086495
H46   H     H_    0.027639 0.840364 0.879585 0.127127
H47   H     H_    0.019088 0.736124 0.910022 0.129125
N3    N     N_R   0.429078 0.308393 0.293829 0.191448
O31   O     O_R   0.334196 0.293969 0.235463 -0.446046
O32   O     O_R   0.430582 0.381370 0.342003 -0.400484
O33   O     O_3   0.636981 0.109882 0.251556 -0.523053
C61   C     C_3   0.626016 0.038197 0.191344 0.019459
H48   H     H_    0.679799 0.062705 0.144457 0.097579
H49   H     H_    0.497398 0.002316 0.177500 0.053408
H50   H     H_    0.698280 0.988208 0.204307 0.169735
N4    N     N_R   0.611926 0.094006 0.762947 0.240722
O34   O     O_R   0.597911 0.065142 0.822755 -0.446386
O35   O     O_R   0.737408 0.081192 0.725033 -0.413742
O36   O     O_3   0.647874 0.276384 0.077739 -0.576047
C62   C     C_3   0.654786 0.190038 0.036015 -0.195727
H51   H     H_    0.782581 0.176071 0.036069 0.151452
H52   H     H_    0.603813 0.181704 0.979902 0.147689
H53   H     H_    0.577847 0.138521 0.059872 0.147431
N5    N     N_R   0.856501 0.332169 0.189766 0.251682
O37   O     O_R   0.882752 0.249529 0.182144 -0.380076
O38   O     O_R   0.714240 0.350575 0.208864 -0.366657
O39   O     O_3   0.645453 0.533015 0.115684 -0.599075
C63   C     C_3   0.773399 0.603999 0.110204 -0.061968
H54   H     H_    0.738941 0.672085 0.123689 0.108570
H55   H     H_    0.822400 0.591452 0.056223 0.120399
H56   H     H_    0.877094 0.602984 0.147683 0.202939
N6    N     N_R   0.929233 0.024386 0.503697 0.211451
O40   O     O_R   0.914057 0.977621 0.438380 -0.319758
O41   O     O_R   0.066605 0.031081 0.540693 -0.426675
O42   O     O_3   0.691996 0.929813 0.607826 -0.628530
C64   C     C_3   0.857653 0.925960 0.623270 0.088880
H57   H     H_    0.919266 0.889856 0.578363 0.154945
H58   H     H_    0.866842 0.894991 0.670240 0.104139
H59   H     H_    0.925565 0.995635 0.641690 0.183335
O43   O     O_3   0.384287 0.671081 0.460155 -0.651815
C65   C     C_3   0.281787 0.658942 0.516511 0.150713
H60   H     H_    0.197743 0.708680 0.529539 0.088735
H61   H     H_    0.348995 0.661845 0.567626 0.105716
H62   H     H_    0.208424 0.592114 0.496935 0.228545
O44   O     O_3   0.141005 0.720432 0.144281 -0.620013
C66   C     C_3   0.133197 0.759262 0.083244 -0.286797
H63   H     H_    0.220929 0.824112 0.090225 0.147951
H64   H     H_    0.006297 0.769421 0.070777 0.118359
H65   H     H_    0.168812 0.712491 0.036304 0.178104
O45   O     O_3   0.268718 0.770267 0.791727 -0.601163
C67   C     C_3   0.401120 0.809358 0.842755 -0.408619
H66   H     H_    0.433170 0.883109 0.844928 0.214811
H67   H     H_    0.511109 0.776997 0.832405 0.150186
H68   H     H_    0.361799 0.800469 0.896593 0.179210

loop_
_geom_bond_atom_site_label_1
_geom_bond_atom_site_label_2
_geom_bond_distance
_ccdc_geom_bond_type
C13   H24   1.109668 S    
C28   C29   1.402411 A    
C4    O15   1.409457 S    
C22   C26   1.408840 A    
C51   H40   1.078352 S    
C2    C3    1.524983 S    
P4    O12   1.520698 D    
C26   C37   1.400826 A    
C37   C38   1.431865 A    
P2    C55   1.878346 S    
C56   C57   1.431325 A    
O16   P7    1.793700 S    
P7    C52   1.850891 S    
O36   C62   1.412707 S    
C12   O33   1.411748 S    
C51   C52   1.402937 A    
C10   H17   1.109040 S    
C5    H9    1.108691 S    
P5    O18   1.541501 D    
C47   H41   1.082157 S    
C53   C54   1.398339 A    
O3    P6    1.751013 S    
C66   H65   1.107794 S    
O7    Ba1   2.866244 S    
C8    H14   1.102646 S    
C9    H16   1.116158 S    
O6    P6    1.749302 S    
C45   C46   1.398994 A    
C65   H61   1.096356 S    
O30   C60   1.409768 S    
C6    H10   1.106429 S    
C21   C23   1.395714 A    
C33   C46   1.463489 A    
C13   C14   1.521592 S    
P3    C54   1.862229 S    
C63   H54   1.110112 S    
P6    C44   1.873418 S    
C17   C22   1.427302 A    
C62   H53   1.107558 S    
C32   C33   1.442891 A    
C40   C41   1.416934 A    
C2    H4    1.103432 S    
C66   H64   1.112924 S    
P1    O1    1.520283 D    
O39   C63   1.409788 S    
C14   H26   1.107863 S    
C8    N2    1.447243 S    
N6    O40   1.296534 A    
C36   C37   1.407481 A    
P7    O22   1.752692 S    
C42   C44   1.429227 A    
C42   C43   1.431038 A    
N4    O35   1.298871 A    
O17   Ba2   2.797197 S    
P4    C29   1.913296 S    
C7    O27   1.411298 S    
C1    H1    1.110746 S    
C67   H67   1.110303 S    
C15   O24   1.401003 S    
P3    O11   1.748638 S    
C4    H6    1.106109 S    
O4    P6    1.541050 D    
C50   C57   1.522719 S    
C61   H49   1.113401 S    
O3    Ba1   2.811980 S    
C67   H66   1.110221 S    
O12   Ba2   2.845590 S    
C34   N5    1.417363 S    
C13   H23   1.111339 S    
C12   H20   1.114351 S    
O33   C61   1.410412 S    
C18   C34   1.430147 A    
C3    H5    1.113043 S    
Ba1   O13   2.817110 S    
N5    O38   1.299515 A    
P4    O13   1.574441 S    
C29   C30   1.441783 A    
C16   N4    1.457386 S    
C1    H18   1.109117 S    
C4    O45   1.416264 S    
C30   C35   1.405506 A    
C3    O44   1.411863 S    
C60   H46   1.113193 S    
P5    O17   1.740385 S    
C12   H21   1.106596 S    
C17   C31   1.410387 A    
C15   H28   1.110155 S    
P1    O5    1.763005 S    
C64   H57   1.106275 S    
C25   C30   1.428683 A    
Ba2   O21   2.866336 S    
C19   C20   1.396031 A    
C61   H50   1.106255 S    
C58   O43   1.362197 S    
C65   H62   1.090288 S    
C28   H33   1.080541 S    
C16   H31   1.112729 S    
O2    Ba2   2.817582 S    
C21   C22   1.403014 A    
C2    H3    1.109720 S    
O16   Ba2   2.917995 S    
C23   H34   1.080612 S    
C5    H7    1.110921 S    
C20   C21   1.385575 A    
C16   H30   1.111800 S    
C66   H63   1.112656 S    
P1    O2    1.574608 S    
N4    O34   1.300792 A    
C14   H27   1.109309 S    
C35   H35   1.072849 S    
C65   H60   1.111465 S    
C9    O30   1.414762 S    
P7    O21   1.569318 D    
C60   H47   1.109662 S    
P2    O10   1.762579 S    
C53   H39   1.078853 S    
C64   H58   1.097844 S    
C49   N6    1.440291 S    
P3    O9    1.542435 D    
C39   C40   1.389194 A    
C67   H68   1.109343 S    
C31   C32   1.428972 A    
P1    Ba1   3.399357 S    
C7    H12   1.110574 S    
C49   C50   1.432173 A    
C11   H19   1.106147 S    
P5    C48   1.852963 S    
C24   C27   1.409102 A    
O19   C13   1.404500 S    
C61   H48   1.110302 S    
C59   H43   1.107946 S    
O42   C64   1.407575 S    
O14   Ba2   2.811339 S    
O5    C6    1.409863 S    
Ba1   O16   2.819351 S    
C17   C18   1.414960 A    
C15   C16   1.528652 S    
O1    Ba1   2.844845 S    
N5    O37   1.301096 A    
P8    O23   1.543020 D    
N3    O32   1.295817 A    
C18   C19   1.434034 A    
C5    H8    1.110091 S    
P1    C46   1.930923 S    
O6    C10   1.408960 S    
O8    Ba1   2.796643 S    
C55   C56   1.432818 A    
N2    O29   1.300567 A    
C48   C49   1.418790 A    
C11   O22   1.391259 S    
C60   H45   1.112239 S    
Ba1   Ba2   4.594340 S    
C44   C45   1.400471 A    
O14   P8    1.731547 S    
C31   C38   1.417851 A    
P8    O24   1.748106 S    
C6    C7    1.526713 S    
C3    H22   1.114421 S    
N3    O31   1.302450 A    
C40   H37   1.068477 S    
C10   N1    1.454943 S    
Ba2   O20   2.818924 S    
P8    C27   1.868661 S    
P3    O8    1.773190 S    
C59   H44   1.113750 S    
C1    C10   1.531024 S    
N1    O26   1.296806 A    
C47   C48   1.399639 A    
N1    O25   1.302629 A    
Ba1   O20   2.918828 S    
C62   H51   1.113032 S    
O27   C59   1.412776 S    
P5    O19   1.750744 S    
O11   C2    1.402764 S    
O45   C67   1.413475 S    
C41   C43   1.432444 A    
C50   C51   1.420702 A    
C55   C58   1.393503 A    
O44   C66   1.410014 S    
C62   H52   1.112186 S    
P4    O15   1.769010 S    
O10   C8    1.399773 S    
C6    H11   1.104865 S    
C32   C42   1.427078 A    
P2    O7    1.512252 D    
O13   Ba2   2.925985 S    
C25   C26   1.431902 A    
C9    H15   1.110189 S    
C63   H55   1.106456 S    
C63   H56   1.104941 S    
C8    C9    1.541483 S    
C27   C28   1.409540 A    
C7    H13   1.111375 S    
C47   C52   1.388262 A    
C4    C5    1.534566 S    
C11   N3    1.462537 S    
C14   H25   1.110155 S    
N6    O41   1.299356 A    
C39   H36   1.080675 S    
C64   H59   1.105890 S    
C11   C12   1.539802 S    
C59   H42   1.110653 S    
P2    O20   1.582589 S    
C45   H38   1.081583 S    
C53   C57   1.421056 A    
C23   C24   1.403369 A    
P2    Ba1   3.413578 S    
C1    H2    1.106689 S    
C33   C34   1.433309 A    
C15   H29   1.112717 S    
C35   C36   1.409392 A    
C20   H32   1.084821 S    
C54   C58   1.393675 A    
N2    O28   1.290571 A    
O2    Ba1   2.925013 S    
C56   O42   1.388703 S    
C43   O39   1.393424 S    
C24   C25   1.414901 A    
P4    Ba2   3.399992 S    
C36   C39   1.390363 A    
C19   O36   1.381938 S    
O43   C65   1.406190 S    
C38   C41   1.414731 A    
