data_mof_unit_30553.cif
_audit_creation_date              2012-12-10T18:51:32-0500
_audit_creation_method            fapswitch 2.2
_symmetry_space_group_name_H-M    P1
_symmetry_Int_Tables_number       1
_space_group_crystal_system       triclinic
_cell_length_a                    10.809702
_cell_length_b                    9.825262
_cell_length_c                    10.545535
_cell_angle_alpha                 89.77335
_cell_angle_beta                  91.570522
_cell_angle_gamma                 90.997677
_cell_volume                      1119.42456072

loop_
_atom_site_label
_atom_site_type_symbol
_atom_type_description
_atom_site_fract_x
_atom_site_fract_y
_atom_site_fract_z
_atom_type_partial_charge
C1    C     C_R   0.873136 0.504776 0.507563 -0.189648
C2    C     C_3   0.483796 0.370441 0.041816 -0.188318
C3    C     C_3   0.394881 0.449779 0.954395 0.283879
C4    C     C_3   0.605119 0.550221 0.045605 0.283880
C5    C     C_3   0.503314 0.499704 0.877302 -0.069050
C6    C     C_3   0.496686 0.500296 0.122698 -0.069050
C7    C     C_R   0.559629 0.072740 0.594881 -0.058121
C8    C     C_R   0.440371 0.927260 0.405119 -0.058122
C9    C     C_R   0.440547 0.071227 0.405001 -0.091600
C10   C     C_R   0.559453 0.928773 0.594999 -0.091600
C11   C     C_R   0.062704 0.383641 0.545932 0.100809
C12   C     C_R   0.126864 0.495224 0.492437 -0.189648
C13   C     C_R   0.937296 0.616359 0.454068 0.100809
C14   C     C_R   0.935490 0.391132 0.557964 0.136895
C15   C     C_R   0.064510 0.608868 0.442036 0.136896
C16   C     C_3   0.191014 0.349335 0.989291 -0.821545
C17   C     C_3   0.808986 0.650665 0.010709 -0.821548
C18   C     C_3   0.134850 0.157564 0.500649 -0.746880
C19   C     C_3   0.865150 0.842436 0.499351 -0.746880
C20   C     C_3   0.845425 0.318698 0.754089 -0.824567
C21   C     C_3   0.154575 0.681301 0.245911 -0.824566
C22   C     C_R   0.259777 0.498502 0.497123 0.930844
C23   C     C_R   0.740223 0.501498 0.502877 0.930844
C24   C     C_R   0.497503 0.500164 0.257287 0.867033
C25   C     C_R   0.502498 0.499836 0.742713 0.867033
C26   C     C_3   0.405115 0.578246 0.036360 -0.271488
C27   C     C_3   0.594885 0.421754 0.963639 -0.271488
C28   C     C_3   0.516204 0.629559 0.958184 -0.188318
H1    H     H_    0.607313 0.127918 0.670641 0.137724
H2    H     H_    0.233402 0.278239 0.059459 0.243944
H3    H     H_    0.114042 0.294387 0.938871 0.234324
H4    H     H_    0.153227 0.438050 0.039458 0.236437
H5    H     H_    0.756236 0.544823 0.172072 0.217096
H6    H     H_    0.766598 0.721764 0.940544 0.243945
H7    H     H_    0.846771 0.561952 0.960539 0.236438
H8    H     H_    0.885959 0.705610 0.061130 0.234324
H9    H     H_    0.101708 0.233310 0.680614 0.231233
H10   H     H_    0.041815 0.114537 0.476049 0.204755
H11   H     H_    0.193159 0.075377 0.541244 0.236374
H12   H     H_    0.392687 0.872082 0.329359 0.137724
H13   H     H_    0.177199 0.195035 0.412052 0.249381
H14   H     H_    0.898292 0.766690 0.319386 0.231233
H15   H     H_    0.958185 0.885463 0.523950 0.204756
H16   H     H_    0.822801 0.804965 0.587947 0.249382
H17   H     H_    0.806841 0.924623 0.458756 0.236374
H18   H     H_    0.899687 0.188613 0.612252 0.229304
H19   H     H_    0.933526 0.333049 0.809203 0.227099
H20   H     H_    0.791799 0.233712 0.796891 0.226922
H21   H     H_    0.791025 0.413285 0.758772 0.239924
H22   H     H_    0.100313 0.811387 0.387748 0.229303
H23   H     H_    0.392971 0.125191 0.329092 0.119275
H24   H     H_    0.066474 0.666950 0.190797 0.227099
H25   H     H_    0.208975 0.586715 0.241227 0.239924
H26   H     H_    0.208200 0.766288 0.203108 0.226922
H27   H     H_    0.607028 0.874809 0.670908 0.119275
H28   H     H_    0.327311 0.642017 0.063938 0.151997
H29   H     H_    0.672689 0.357983 0.936062 0.151997
H30   H     H_    0.531453 0.734515 0.921702 0.149625
H31   H     H_    0.468547 0.265485 0.078298 0.149625
H32   H     H_    0.243764 0.455176 0.827928 0.217096
N1    N     N_R   0.500000 0.857200 0.500000 -0.072637
N2    N     N_R   0.500000 0.142800 0.500000 -0.072637
N3    N     N_2   0.281028 0.394517 0.898728 -0.292576
N4    N     N_2   0.718973 0.605483 0.101272 -0.292576
N5    N     N_2   0.126800 0.266748 0.592025 -0.269353
N6    N     N_2   0.873200 0.733252 0.407975 -0.269353
N7    N     N_2   0.869750 0.286520 0.623823 -0.274902
N8    N     N_2   0.130250 0.713480 0.376177 -0.274902
O1    O     O_R   0.316770 0.614620 0.499990 -0.595746
O2    O     O_R   0.683230 0.385380 0.500010 -0.595746
O3    O     O_R   0.683230 0.614620 0.500010 -0.596708
O4    O     O_R   0.316770 0.385380 0.499990 -0.596708
O5    O     O_R   0.499970 0.614650 0.313950 -0.609367
O6    O     O_R   0.500030 0.385350 0.686050 -0.609367
O7    O     O_R   0.500030 0.614650 0.686050 -0.641103
O8    O     O_R   0.499970 0.385350 0.313950 -0.641103
Zn1   Zn    Zn3+2 0.500000 0.653120 0.500000 0.958736
Zn2   Zn    Zn3+2 0.500000 0.346880 0.500000 0.958736

loop_
_geom_bond_atom_site_label_1
_geom_bond_atom_site_label_2
_ccdc_geom_bond_type
C7    C10   A    
C7    H1    S    
O2    Zn2   S    
C20   N7    S    
O1    Zn1   S    
C9    H23   S    
C16   H3    S    
H32   N3    S    
O8    Zn2   S    
C17   N4    S    
C21   H26   S    
C11   C14   A    
C24   O5    A    
C16   H2    S    
C12   C22   S    
C19   N6    S    
C25   O6    A    
O4    Zn2   S    
C5    C27   S    
N1    Zn1   S    
C8    C9    A    
H9    N5    S    
C14   N7    S    
C2    C27   S    
C17   H8    S    
C22   O1    A    
C8    N1    A    
C23   O2    A    
C2    C6    S    
C22   O4    A    
C4    C28   S    
C19   H15   S    
C13   N6    S    
C9    N2    A    
C23   O3    A    
C4    C6    S    
C27   H29   S    
C18   H13   S    
C2    H31   S    
C24   O8    A    
C18   N5    S    
C18   H11   S    
C7    N2    A    
C20   H21   S    
C5    C28   S    
C12   C15   A    
C6    C24   S    
C10   H27   S    
O7    Zn1   S    
C20   H20   S    
C5    C25   S    
C16   N3    S    
C1    C23   S    
C3    N3    S    
C13   C15   A    
C21   N8    S    
C10   N1    A    
C1    C13   A    
C17   H6    S    
O3    Zn1   S    
C4    C27   S    
C19   H16   S    
N2    Zn2   S    
C3    C26   S    
C3    C5    S    
C26   H28   S    
C11   C12   A    
C19   H17   S    
C28   H30   S    
C16   H4    S    
C17   H7    S    
C4    N4    S    
C26   C28   S    
C2    C3    S    
C18   H10   S    
H18   N7    S    
C21   H25   S    
C6    C26   S    
H5    N4    S    
C15   N8    S    
C20   H19   S    
O6    Zn2   S    
H14   N6    S    
O5    Zn1   S    
C1    C14   A    
C8    H12   S    
C25   O7    A    
H22   N8    S    
C21   H24   S    
C11   N5    S    
