data_mof_unit_10370.cif
_audit_creation_date              2012-12-10T20:30:59-0500
_audit_creation_method            fapswitch 2.2
_symmetry_space_group_name_H-M    P1
_symmetry_Int_Tables_number       1
_space_group_crystal_system       triclinic
_cell_length_a                    14.907071
_cell_length_b                    10.680986
_cell_length_c                    9.884797
_cell_angle_alpha                 90.011326
_cell_angle_beta                  89.387311
_cell_angle_gamma                 90.94422
_cell_volume                      1573.57560205

loop_
_atom_site_label
_atom_site_type_symbol
_atom_type_description
_atom_site_fract_x
_atom_site_fract_y
_atom_site_fract_z
_atom_type_partial_charge
C1    C     C_R   0.502230 0.260253 0.500087 0.955402
C2    C     C_R   0.184339 0.386374 0.508139 0.601348
C3    C     C_R   0.232167 0.499483 0.504340 -0.340421
C4    C     C_R   0.327236 0.498043 0.500921 1.097510
C5    C     C_R   0.190053 0.614533 0.511621 0.555173
C6    C     C_R   0.507027 0.064050 0.622789 -0.126770
C7    C     C_R   0.513830 0.129064 0.501063 0.006624
C8    C     C_R   0.534915 0.065663 0.381125 -0.160781
C9    C     C_R   0.532632 0.936359 0.380445 -0.075812
C10   C     C_R   0.511193 0.872004 0.500504 0.047972
C11   C     C_R   0.506101 0.936436 0.622640 -0.095866
C12   C     C_R   0.909647 0.623918 0.507901 0.023322
C13   C     C_3   0.437933 0.928632 0.734756 0.482978
C14   C     C_3   0.438865 0.070783 0.734650 0.477449
C15   C     C_R   0.422354 0.515593 0.071572 0.043576
C16   C     C_R   0.500729 0.739996 0.499981 1.008451
C17   C     C_R   0.577962 0.491484 0.070654 -0.038317
C18   C     C_R   0.577886 0.490386 0.926997 -0.096590
C19   C     C_R   0.423010 0.521058 0.929511 0.105918
C20   C     C_3   0.337404 0.448807 0.918632 0.398468
C21   C     C_3   0.337943 0.435892 0.072032 0.126062
C22   C     C_R   0.672955 0.505618 0.499112 0.961054
C23   C     C_R   0.948198 0.278065 0.513777 0.622318
C24   C     C_R   0.816400 0.625335 0.487790 0.311191
C25   C     C_R   0.768713 0.510430 0.497130 -0.203335
C26   C     C_R   0.811623 0.396525 0.509189 -0.248329
C27   C     C_R   0.904222 0.393181 0.511143 -0.010828
C28   C     C_R   0.953591 0.507125 0.511632 0.012809
C29   C     C_R   0.041317 0.275612 0.513298 -0.151574
C30   C     C_R   0.091181 0.387802 0.512159 -0.120154
C31   C     C_R   0.047251 0.504170 0.514305 -0.081628
C32   C     C_R   0.097145 0.617666 0.517588 0.007218
C33   C     C_R   0.053372 0.731773 0.528105 -0.081023
C34   C     C_R   0.960515 0.734667 0.526034 -0.125564
F1    F     F_    0.357038 0.877083 0.692573 -0.519484
F2    F     F_    0.358679 0.120671 0.692174 -0.529455
F3    F     F_    0.268770 0.524024 0.874841 -0.613631
F4    F     F_    0.901230 0.167965 0.514371 -0.627779
F5    F     F_    0.228690 0.276082 0.508282 -0.574961
F6    F     F_    0.239846 0.722500 0.512168 -0.596369
H1    H     H_    0.543029 0.887864 0.285474 0.181570
H2    H     H_    0.090721 0.819153 0.537970 0.230348
H3    H     H_    0.929848 0.824133 0.542610 0.235179
H4    H     H_    0.547794 0.115060 0.287168 0.183119
H5    H     H_    0.715952 0.703539 0.243985 0.354630
H6    H     H_    0.452821 0.135927 0.085129 0.364296
H7    H     H_    0.464252 0.886327 0.828762 0.023078
H8    H     H_    0.465799 0.113905 0.828331 0.045001
H9    H     H_    0.640735 0.482871 0.123274 0.142758
H10   H     H_    0.640624 0.480369 0.872634 0.161872
H11   H     H_    0.344127 0.360882 0.859291 0.172718
H12   H     H_    0.280423 0.481782 0.123221 0.148899
H13   H     H_    0.772130 0.310276 0.514031 0.207826
H14   H     H_    0.074169 0.185867 0.513034 0.238756
N1    N     N_R   0.499390 0.499140 0.142800 -0.076806
N2    N     N_R   0.499390 0.499180 0.857150 -0.136708
O1    O     O_R   0.500010 0.316790 0.614690 -0.631167
O2    O     O_2   0.822331 0.862580 0.380301 -0.256106
O3    O     O_3   0.681870 0.733216 0.324034 -0.567406
O4    O     O_2   0.335947 0.260922 0.270252 -0.201636
O5    O     O_2   0.284673 0.195217 0.047134 -0.247740
O6    O     O_3   0.456043 0.228535 0.080821 -0.604467
O7    O     O_R   0.500000 0.316760 0.385350 -0.578289
O8    O     O_R   0.367850 0.499990 0.614680 -0.572451
O9    O     O_R   0.367840 0.499950 0.385340 -0.616623
O10   O     O_R   0.500000 0.683240 0.614650 -0.607965
O11   O     O_R   0.499990 0.683210 0.385310 -0.615805
O12   O     O_R   0.632160 0.500050 0.614660 -0.638466
O13   O     O_R   0.632150 0.500010 0.385320 -0.619088
O14   O     O_2   0.715220 0.818778 0.564219 -0.292705
S1    S     S_3+6 0.759904 0.765264 0.440712 0.011357
S2    S     S_3+6 0.351984 0.275442 0.120972 0.048798
Zn1   Zn    Zn3+2 0.500010 0.500020 0.653130 1.035975
Zn2   Zn    Zn3+2 0.499990 0.499980 0.346870 1.051075

loop_
_geom_bond_atom_site_label_1
_geom_bond_atom_site_label_2
_ccdc_geom_bond_type
C19   N2    A    
C19   C20   S    
C7    C8    A    
C15   C19   A    
C26   C27   A    
H6    O6    S    
C33   H2    S    
C23   C29   A    
C13   F1    S    
C20   H11   S    
C14   F2    S    
C30   C31   A    
O2    S1    D    
C29   H14   S    
O4    S2    D    
O1    Zn1   S    
N1    Zn2   S    
C2    F5    S    
C8    C9    A    
C22   C25   S    
O8    Zn1   S    
O14   S1    D    
C23   C27   A    
C9    C10   A    
C17   N1    A    
C22   O13   A    
C18   N2    A    
C5    C32   A    
C13   C14   S    
C1    O7    A    
C17   C18   A    
C21   S2    S    
C24   C25   A    
C17   H9    S    
C6    C11   A    
O11   Zn2   S    
C14   H8    S    
O12   Zn1   S    
O10   Zn1   S    
O9    Zn2   S    
C15   N1    A    
C29   C30   A    
C1    O1    A    
C6    C14   S    
C31   C32   A    
C33   C34   A    
O6    S2    S    
O13   Zn2   S    
C16   O11   A    
C22   O12   A    
O5    S2    D    
C12   C28   A    
C16   O10   A    
C12   C34   A    
C3    C4    S    
C26   H13   S    
C18   H10   S    
C13   H7    S    
C12   C24   A    
H5    O3    S    
N2    Zn1   S    
C1    C7    S    
C28   C31   A    
C34   H3    S    
C8    H4    S    
C3    C5    A    
C6    C7    A    
O7    Zn2   S    
C23   F4    S    
C4    O8    A    
C9    H1    S    
C2    C30   A    
C32   C33   A    
C2    C3    A    
C25   C26   A    
C10   C16   S    
C20   F3    S    
C11   C13   S    
C4    O9    A    
C10   C11   A    
C15   C21   S    
C20   C21   S    
C5    F6    S    
C27   C28   A    
C21   H12   S    
C24   S1    S    
O3    S1    S    
