data_mof_unit_19463.cif
_audit_creation_date              2012-10-26T19:52:48-0400
_audit_creation_method            fapswitch 2.2
_symmetry_space_group_name_H-M    P1
_symmetry_Int_Tables_number       1
_space_group_crystal_system       triclinic
_cell_length_a                    15.076847
_cell_length_b                    10.862399
_cell_length_c                    9.553004
_cell_angle_alpha                 89.237214
_cell_angle_beta                  90.2443
_cell_angle_gamma                 90.563824
_cell_volume                      1564.27466733

loop_
_atom_site_label
_atom_site_type_symbol
_atom_type_description
_atom_site_fract_x
_atom_site_fract_y
_atom_site_fract_z
_atom_type_partial_charge
C1    C     C_R   0.499592 0.262626 0.500691 0.543565
C2    C     C_R   0.185602 0.472540 0.623368 -0.135967
C3    C     C_R   0.231906 0.498877 0.499390 -0.017000
C4    C     C_R   0.328689 0.499663 0.499798 0.536235
C5    C     C_R   0.185575 0.523814 0.374863 -0.140608
C6    C     C_R   0.473900 0.059253 0.615339 -0.000793
C7    C     C_R   0.500593 0.129829 0.500323 -0.014653
C8    C     C_R   0.527631 0.066628 0.379772 -0.153844
C9    C     C_R   0.527161 0.937483 0.378421 -0.148843
C10   C     C_R   0.499135 0.869514 0.497096 -0.020690
C11   C     C_R   0.470942 0.934704 0.612147 -0.065194
C12   C     C_R   0.906946 0.521809 0.372037 0.042370
C13   C     C_3   0.431719 0.920050 0.756493 0.232485
C14   C     C_3   0.434290 0.063005 0.760028 0.383296
C15   C     C_R   0.526663 0.602363 0.072587 0.139360
C16   C     C_R   0.499927 0.737125 0.499130 0.543481
C17   C     C_R   0.462622 0.405904 0.075500 -0.005430
C18   C     C_R   0.461962 0.406629 0.926799 -0.006070
C19   C     C_R   0.528331 0.601372 0.925504 0.195502
C20   C     C_3   0.617544 0.663750 0.923355 -0.045636
C21   C     C_3   0.613744 0.667514 0.082523 -0.257121
C22   C     C_R   0.671388 0.498630 0.500091 0.550609
C23   C     C_R   0.954247 0.439946 0.745766 -0.133292
C24   C     C_R   0.814266 0.522710 0.375189 -0.126856
C25   C     C_R   0.768336 0.495847 0.499335 -0.021620
C26   C     C_R   0.815101 0.465469 0.621586 -0.134076
C27   C     C_R   0.907451 0.466524 0.622129 0.011437
C28   C     C_R   0.953665 0.494877 0.497240 0.033969
C29   C     C_3   0.298811 0.848079 0.645093 -0.080514
C30   C     C_3   0.579471 0.102257 0.851211 -0.137433
C31   C     C_R   0.046637 0.442468 0.746599 -0.131295
C32   C     C_R   0.093188 0.470351 0.623393 0.018832
C33   C     C_R   0.046646 0.496063 0.497932 0.051425
C34   C     C_R   0.093140 0.522994 0.373409 -0.013021
C35   C     C_R   0.046816 0.548512 0.249264 -0.113052
C36   C     C_R   0.953802 0.548114 0.247085 0.105097
Cu1   Cu    Cu3+1 0.500000 0.499980 0.640670 0.968212
Cu2   Cu    Cu3+1 0.500000 0.500020 0.359330 0.935584
H1    H     H_    0.777493 0.545201 0.281212 0.147121
H2    H     H_    0.919344 0.417838 0.841899 0.100964
H3    H     H_    0.081662 0.422405 0.843429 0.106843
H4    H     H_    0.221381 0.452446 0.719587 0.125851
H5    H     H_    0.221394 0.544684 0.279106 0.132437
H6    H     H_    0.083138 0.568605 0.153807 0.105763
H7    H     H_    0.549539 0.116420 0.286976 0.143832
H8    H     H_    0.328903 0.770646 0.588413 0.132044
H9    H     H_    0.295828 0.932290 0.577903 0.138533
H10   H     H_    0.229521 0.820545 0.669718 0.141120
H11   H     H_    0.321161 0.117014 0.859254 0.255616
H12   H     H_    0.549044 0.891607 0.285328 0.132379
H13   H     H_    0.350848 0.208531 0.723434 0.219177
H14   H     H_    0.602413 0.167532 0.768321 0.148777
H15   H     H_    0.599802 0.006953 0.826861 0.084193
H16   H     H_    0.613507 0.128425 0.949742 0.134932
H17   H     H_    0.748969 0.627830 0.895728 0.230722
H18   H     H_    0.687333 0.500241 0.927001 0.227066
H19   H     H_    0.876344 0.492885 0.086720 0.211273
H20   H     H_    0.951214 0.600439 0.039504 0.230397
H21   H     H_    0.478447 0.875428 0.831037 0.113669
H22   H     H_    0.433584 0.328523 0.131646 0.137560
H23   H     H_    0.431548 0.331160 0.872353 0.158903
H24   H     H_    0.616924 0.755833 0.871179 0.127208
H25   H     H_    0.664891 0.611795 0.136856 0.152362
H26   H     H_    0.779799 0.439924 0.716108 0.140274
H27   H     H_    0.607133 0.762445 0.121957 0.099895
N1    N     N_R   0.500570 0.500930 0.147930 -0.241180
N2    N     N_R   0.500570 0.500890 0.852020 -0.227314
N3    N     N_3   0.345653 0.116847 0.757009 -0.582886
N4    N     N_3   0.688324 0.584832 0.873116 -0.596952
N5    N     N_3   0.906937 0.574619 0.118836 -0.653791
O1    O     O_R   0.500000 0.319640 0.618810 -0.508454
O2    O     O_3   0.486925 0.111674 0.871506 -0.595969
O3    O     O_R   0.500010 0.319680 0.381230 -0.513066
O4    O     O_R   0.370250 0.499950 0.618800 -0.511921
O5    O     O_R   0.370260 0.499990 0.381220 -0.503027
O6    O     O_R   0.499990 0.680320 0.618770 -0.495572
O7    O     O_R   0.500000 0.680360 0.381190 -0.503923
O8    O     O_R   0.629740 0.500010 0.618780 -0.462464
O9    O     O_R   0.629750 0.500050 0.381200 -0.517292
O10   O     O_3   0.344206 0.869869 0.772179 -0.553553

loop_
_geom_bond_atom_site_label_1
_geom_bond_atom_site_label_2
_ccdc_geom_bond_type
Cu1   O4    S    
H11   N3    S    
C35   C36   A    
C7    C8    A    
C15   C19   A    
C30   H16   S    
C26   C27   A    
C1    O1    A    
C29   H9    S    
C22   O9    A    
C34   C35   A    
Cu2   O9    S    
C23   H2    S    
C24   H1    S    
C2    C32   A    
C16   O7    A    
C26   H26   S    
C8    H7    S    
C4    O5    A    
Cu2   N1    S    
C8    C9    A    
C22   C25   S    
C19   N2    A    
C23   C27   A    
H19   N5    S    
C12   C36   A    
C9    C10   A    
C4    O4    A    
C5    H5    S    
C13   O10   S    
C1    C7    S    
C13   C14   S    
C36   N5    S    
C33   C34   A    
Cu2   O5    S    
C30   H15   S    
C29   H10   S    
C24   C25   A    
C22   O8    A    
C6    C11   A    
H20   N5    S    
C18   N2    A    
C15   N1    A    
C23   C31   A    
Cu1   Cu2   S    
C6    C14   S    
C31   C32   A    
C5    C34   A    
C17   C18   A    
C17   N1    A    
C35   H6    S    
H17   N4    S    
Cu1   O6    S    
C12   C28   A    
C28   C33   A    
Cu1   O1    S    
C20   N4    S    
C3    C4    S    
C30   H14   S    
C31   H3    S    
C21   H27   S    
C16   O6    A    
C14   O2    S    
C9    H12   S    
C3    C5    A    
C30   O2    S    
C18   H23   S    
C6    C7    A    
C13   H21   S    
Cu2   O7    S    
Cu1   O8    S    
C12   C24   A    
C29   H8    S    
C1    O3    A    
C32   C33   A    
C19   C20   S    
C2    C3    A    
C25   C26   A    
C10   C16   S    
C11   C13   S    
C29   O10   S    
C2    H4    S    
Cu1   N2    S    
H13   N3    S    
C20   H24   S    
C21   H25   S    
C10   C11   A    
C17   H22   S    
C15   C21   S    
C20   C21   S    
H18   N4    S    
C27   C28   A    
C14   N3    S    
Cu2   O3    S    
