data_mof_unit_10337.cif
_audit_creation_date              2012-12-11T14:01:29-0500
_audit_creation_method            fapswitch 2.2
_symmetry_space_group_name_H-M    P1
_symmetry_Int_Tables_number       1
_space_group_crystal_system       triclinic
_cell_length_a                    19.011852
_cell_length_b                    10.932255
_cell_length_c                    18.790531
_cell_angle_alpha                 90.566116
_cell_angle_beta                  89.916999
_cell_angle_gamma                 90.125487
_cell_volume                      3905.26534579

loop_
_atom_site_label
_atom_site_type_symbol
_atom_type_description
_atom_site_fract_x
_atom_site_fract_y
_atom_site_fract_z
_atom_type_partial_charge
C1    C     C_R   0.272657 0.041918 0.853856 0.567816
C2    C     C_R   0.727475 0.041608 0.146364 0.552987
C3    C     C_R   0.772657 0.541918 0.853856 0.567816
C4    C     C_R   0.227475 0.541608 0.146364 0.552987
C5    C     C_R   0.479187 0.052441 0.076797 -0.084083
C6    C     C_R   0.504371 0.060516 0.930791 -0.080750
C7    C     C_R   0.979187 0.552441 0.076797 -0.084083
C8    C     C_R   0.004371 0.560516 0.930791 -0.080750
C9    C     C_R   0.979716 0.664361 0.041887 -0.122213
C10   C     C_R   0.994453 0.668656 0.969462 -0.122068
C11   C     C_R   0.479716 0.164361 0.041887 -0.122213
C12   C     C_R   0.494453 0.168656 0.969462 -0.122068
C13   C     C_2   0.248771 0.578608 0.920181 -0.045294
C14   C     C_2   0.751826 0.575757 0.080164 -0.046166
C15   C     C_2   0.748771 0.078608 0.920181 -0.045294
C16   C     C_2   0.251826 0.075757 0.080164 -0.046167
C17   C     C_2   0.249935 0.582691 0.076573 -0.130747
C18   C     C_2   0.750664 0.581980 0.924375 -0.130722
C19   C     C_2   0.749935 0.082691 0.076573 -0.130747
C20   C     C_2   0.250664 0.081980 0.924375 -0.130722
C21   C     C_2   0.289798 0.508886 0.035655 -0.172521
C22   C     C_2   0.710813 0.506902 0.964026 -0.173294
C23   C     C_2   0.789798 0.008886 0.035655 -0.172521
C24   C     C_2   0.210813 0.006902 0.964026 -0.173294
C25   C     C_2   0.301757 0.533379 0.959758 0.207633
C26   C     C_2   0.699177 0.528848 0.040400 0.207233
C27   C     C_2   0.801757 0.033379 0.959758 0.207633
C28   C     C_2   0.199177 0.028848 0.040400 0.207233
C29   C     C_2   0.458647 0.824903 0.566093 -0.050384
C30   C     C_2   0.481958 0.838598 0.412575 -0.107389
C31   C     C_2   0.958647 0.324903 0.566093 -0.050384
C32   C     C_2   0.981958 0.338598 0.412575 -0.107389
C33   C     C_2   0.455000 0.740525 0.445129 -0.160896
C34   C     C_2   0.430925 0.745605 0.519114 -0.168149
C35   C     C_2   0.955000 0.240525 0.445129 -0.160897
C36   C     C_2   0.930925 0.245605 0.519114 -0.168149
C37   C     C_2   0.248799 0.562209 0.583084 -0.057481
C38   C     C_2   0.760070 0.572640 0.417240 -0.069365
C39   C     C_2   0.748800 0.062209 0.583084 -0.057482
C40   C     C_2   0.260070 0.072640 0.417240 -0.069366
C41   C     C_2   0.236112 0.569199 0.427972 -0.024327
C42   C     C_2   0.778360 0.519062 0.567047 -0.065228
C43   C     C_2   0.736112 0.069200 0.427972 -0.024325
C44   C     C_2   0.278360 0.019062 0.567047 -0.065228
C45   C     C_R   0.471679 0.822955 0.853165 0.549878
C46   C     C_R   0.528333 0.821707 0.146920 0.528858
C47   C     C_R   0.971679 0.322955 0.853165 0.549878
C48   C     C_R   0.028333 0.321707 0.146920 0.528858
C49   C     C_2   0.189315 0.519450 0.473520 0.213299
C50   C     C_2   0.830133 0.557930 0.525081 0.174310
C51   C     C_2   0.689317 0.019447 0.473519 0.213300
C52   C     C_2   0.330133 0.057930 0.525081 0.174310
C53   C     C_2   0.188144 0.561922 0.547847 0.190125
C54   C     C_2   0.810478 0.620487 0.460243 0.212089
C55   C     C_2   0.688144 0.061920 0.547847 0.190123
C56   C     C_2   0.310478 0.120486 0.460243 0.212088
C57   C     C_R   0.260998 0.636198 0.851460 0.574248
C58   C     C_R   0.739192 0.634891 0.148803 0.561652
C59   C     C_R   0.760998 0.136198 0.851460 0.574248
C60   C     C_R   0.239192 0.134891 0.148803 0.561652
C61   C     C_R   0.291713 0.995818 0.640607 0.581059
C62   C     C_R   0.726722 0.044657 0.353052 0.588779
C63   C     C_R   0.791713 0.495818 0.640607 0.581059
C64   C     C_R   0.226722 0.544656 0.353053 0.588779
C65   C     C_R   0.438188 0.818772 0.640023 0.560137
C66   C     C_R   0.526680 0.824516 0.350184 0.585806
C67   C     C_R   0.938188 0.318772 0.640023 0.560137
C68   C     C_R   0.026680 0.324516 0.350184 0.585807
C69   C     C_R   0.260406 0.634095 0.647005 0.559786
C70   C     C_R   0.739832 0.638412 0.354240 0.597351
C71   C     C_R   0.760406 0.134095 0.647005 0.559785
C72   C     C_R   0.239832 0.138412 0.354240 0.597349
C73   C     C_R   0.500959 0.828845 0.074382 -0.001537
C74   C     C_R   0.500063 0.833052 0.925405 -0.004641
C75   C     C_R   0.000959 0.328845 0.074382 -0.001537
C76   C     C_R   0.000063 0.333052 0.925405 -0.004641
C77   C     C_R   0.493015 0.942272 0.039303 0.023498
C78   C     C_R   0.499312 0.945403 0.964224 0.020126
C79   C     C_R   0.993015 0.442272 0.039303 0.023498
C80   C     C_R   0.999312 0.445403 0.964224 0.020126
C81   C     C_R   0.506149 0.722603 0.961750 -0.134431
C82   C     C_R   0.504418 0.720276 0.034500 -0.135202
C83   C     C_R   0.006149 0.222603 0.961750 -0.134431
C84   C     C_R   0.004418 0.220276 0.034500 -0.135202
Cr1   Cr    Cr6+3 0.230530 0.836340 0.748870 1.044897
Cr2   Cr    Cr6+3 0.769470 0.836340 0.251130 1.053889
Cr3   Cr    Cr6+3 0.730530 0.336340 0.748870 1.044897
Cr4   Cr    Cr6+3 0.269470 0.336340 0.251130 1.053888
Cr5   Cr    Cr6+3 0.387420 0.989430 0.750820 1.065338
Cr6   Cr    Cr6+3 0.612580 0.989430 0.249180 1.051632
Cr7   Cr    Cr6+3 0.887420 0.489430 0.750820 1.065338
Cr8   Cr    Cr6+3 0.112580 0.489430 0.249180 1.051633
Cr9   Cr    Cr6+3 0.385640 0.677860 0.749230 1.062334
Cr10  Cr    Cr6+3 0.614360 0.677860 0.250770 1.072267
Cr11  Cr    Cr6+3 0.885640 0.177860 0.749230 1.062334
Cr12  Cr    Cr6+3 0.114360 0.177860 0.250770 1.072266
H1    H     H_    0.508354 0.635373 0.933927 0.158096
H2    H     H_    0.509264 0.631817 0.059442 0.164496
H3    H     H_    0.008354 0.135373 0.933927 0.158096
H4    H     H_    0.009264 0.131817 0.059442 0.164496
H5    H     H_    0.275632 0.635042 0.445201 0.003031
H6    H     H_    0.723953 0.516973 0.549190 0.071904
H7    H     H_    0.775628 0.135049 0.445201 0.003030
H8    H     H_    0.223953 0.016973 0.549190 0.071904
H9    H     H_    0.294619 0.517868 0.559528 0.056106
H10   H     H_    0.734247 0.486304 0.428780 0.032908
H11   H     H_    0.794620 0.017868 0.559528 0.056107
H12   H     H_    0.234246 0.986304 0.428780 0.032908
H13   H     H_    0.466443 0.052896 0.132907 0.127885
H14   H     H_    0.517790 0.068535 0.875123 0.140652
H15   H     H_    0.966443 0.552896 0.132907 0.127885
H16   H     H_    0.017790 0.568535 0.875123 0.140652
H17   H     H_    0.969800 0.748170 0.071357 0.115224
H18   H     H_    0.997442 0.756011 0.942966 0.117819
H19   H     H_    0.469800 0.248170 0.071357 0.115224
H20   H     H_    0.497442 0.256011 0.942966 0.117819
H21   H     H_    0.314001 0.427500 0.057514 0.144156
H22   H     H_    0.686514 0.425825 0.940749 0.146016
H23   H     H_    0.814001 0.927500 0.057514 0.144156
H24   H     H_    0.186514 0.925825 0.940749 0.146016
H25   H     H_    0.226396 0.664961 0.055125 0.109909
H26   H     H_    0.774384 0.663985 0.947107 0.108572
H27   H     H_    0.726396 0.164961 0.055125 0.109909
H28   H     H_    0.274384 0.163985 0.947107 0.108572
H29   H     H_    0.196539 0.588887 0.943098 0.058792
H30   H     H_    0.803898 0.587672 0.057191 0.059772
H31   H     H_    0.696539 0.088887 0.943098 0.058792
H32   H     H_    0.303898 0.087672 0.057191 0.059772
H33   H     H_    0.455750 0.651121 0.419383 0.161473
H34   H     H_    0.394933 0.674879 0.536957 0.126009
H35   H     H_    0.955750 0.151121 0.419383 0.161473
H36   H     H_    0.894933 0.174879 0.536957 0.126009
H37   H     H_    0.477181 0.929420 0.435794 0.112404
H38   H     H_    0.496960 0.893474 0.550742 0.132470
H39   H     H_    0.977181 0.429420 0.435793 0.112406
H40   H     H_    0.996960 0.393474 0.550742 0.132470
O1    O     O_R   0.215090 0.709860 0.828130 -0.537530
O2    O     O_R   0.784910 0.709860 0.171870 -0.550772
O3    O     O_R   0.715090 0.209860 0.828130 -0.537530
O4    O     O_R   0.284910 0.209860 0.171870 -0.550772
O5    O     O_R   0.445660 0.919250 0.676780 -0.464987
O6    O     O_R   0.554340 0.919250 0.323220 -0.465436
O7    O     O_R   0.945660 0.419250 0.676780 -0.464987
O8    O     O_R   0.054340 0.419250 0.323220 -0.465433
O9    O     O_R   0.456260 0.718170 0.670000 -0.502924
O10   O     O_R   0.543740 0.718170 0.330000 -0.511626
O11   O     O_R   0.956260 0.218170 0.670000 -0.502924
O12   O     O_R   0.043740 0.218170 0.330000 -0.511627
O13   O     O_R   0.320940 0.626760 0.674370 -0.541902
O14   O     O_R   0.679060 0.626760 0.325630 -0.506569
O15   O     O_R   0.820940 0.126760 0.674370 -0.541902
O16   O     O_R   0.179060 0.126760 0.325630 -0.506570
O17   O     O_3   0.334530 0.834540 0.749640 -0.316566
O18   O     O_3   0.665470 0.834540 0.250360 -0.255308
O19   O     O_3   0.834530 0.334540 0.749640 -0.316566
O20   O     O_3   0.165470 0.334540 0.250360 -0.255309
O21   O     O_R   0.236990 0.958390 0.823710 -0.496441
O22   O     O_R   0.763010 0.958390 0.176290 -0.509004
O23   O     O_R   0.736990 0.458390 0.823710 -0.496441
O24   O     O_R   0.263010 0.458390 0.176290 -0.509004
O25   O     O_R   0.332380 0.074750 0.830850 -0.501286
O26   O     O_R   0.667620 0.074750 0.169150 -0.505761
O27   O     O_R   0.832380 0.574750 0.830850 -0.501286
O28   O     O_R   0.167620 0.574750 0.169150 -0.505761
O29   O     O_R   0.445800 0.917770 0.825070 -0.511048
O30   O     O_R   0.554200 0.917770 0.174930 -0.515893
O31   O     O_R   0.945800 0.417770 0.825070 -0.511048
O32   O     O_R   0.054200 0.417770 0.174930 -0.515893
O33   O     O_R   0.456410 0.716580 0.829970 -0.487247
O34   O     O_R   0.543590 0.716580 0.170030 -0.503430
O35   O     O_R   0.956410 0.216580 0.829970 -0.487247
O36   O     O_R   0.043590 0.216580 0.170030 -0.503430
O37   O     O_R   0.321080 0.625290 0.822650 -0.421937
O38   O     O_R   0.678920 0.625290 0.177350 -0.430055
O39   O     O_R   0.821080 0.125290 0.822650 -0.421937
O40   O     O_R   0.178920 0.125290 0.177350 -0.430055
O41   O     O_R   0.214930 0.711450 0.668160 -0.447249
O42   O     O_R   0.785070 0.711450 0.331840 -0.439519
O43   O     O_R   0.714930 0.211450 0.668160 -0.447249
O44   O     O_R   0.285070 0.211450 0.331840 -0.439519
O45   O     O_R   0.236850 0.959870 0.675420 -0.507858
O46   O     O_R   0.763150 0.959870 0.324580 -0.475381
O47   O     O_R   0.736850 0.459870 0.675420 -0.507858
O48   O     O_R   0.263150 0.459870 0.324580 -0.475384
O49   O     O_R   0.332230 0.076350 0.670880 -0.444666
O50   O     O_R   0.667770 0.076350 0.329120 -0.485081
O51   O     O_R   0.832230 0.576350 0.670880 -0.444665
O52   O     O_R   0.167770 0.576350 0.329120 -0.485077
O53   O     O_3   0.140691 0.434390 0.449607 -0.677050
H41   H     H_    0.114452 0.403379 0.491363 0.315681
O54   O     O_3   0.898688 0.563376 0.549494 -0.698229
H42   H     H_    0.929419 0.590766 0.510043 0.320176
O55   O     O_3   0.640696 0.934382 0.449608 -0.677050
H43   H     H_    0.614457 0.903371 0.491363 0.315682
O56   O     O_3   0.398688 0.063376 0.549494 -0.698230
H44   H     H_    0.429418 0.090766 0.510043 0.320176
O57   O     O_3   0.127186 0.606415 0.578787 -0.662439
H45   H     H_    0.089409 0.604076 0.542451 0.329900
O58   O     O_3   0.839172 0.735283 0.447728 -0.664533
H46   H     H_    0.865060 0.763998 0.490534 0.336387
O59   O     O_3   0.627185 0.106415 0.578786 -0.662437
H47   H     H_    0.589408 0.104070 0.542450 0.329898
O60   O     O_3   0.339172 0.235283 0.447728 -0.664534
H48   H     H_    0.365060 0.263998 0.490534 0.336387
O61   O     O_3   0.366908 0.509785 0.929812 -0.668487
H49   H     H_    0.398597 0.479236 0.967547 0.305684
O62   O     O_3   0.634828 0.500940 0.070669 -0.674695
H50   H     H_    0.603418 0.468369 0.032841 0.305253
O63   O     O_3   0.866908 0.009785 0.929812 -0.668487
H51   H     H_    0.898597 0.979235 0.967547 0.305684
O64   O     O_3   0.134828 0.000940 0.070669 -0.674695
H52   H     H_    0.103418 0.968369 0.032841 0.305253

loop_
_geom_bond_atom_site_label_1
_geom_bond_atom_site_label_2
_ccdc_geom_bond_type
Cr10  O10   S    
O60   H48   S    
C38   C70   S    
C16   C28   D    
C37   C69   S    
C6    H14   S    
O59   H47   S    
Cr9   O13   S    
C35   C36   S    
C70   O14   A    
C36   H36   S    
Cr2   O42   S    
C67   O7    A    
C2    O26   A    
C81   C82   A    
C44   H8    S    
C56   O60   S    
Cr12  O20   S    
C77   C78   A    
C28   O64   S    
C31   C67   S    
C19   H27   S    
C50   C54   S    
C75   C79   A    
C21   C25   S    
Cr6   O26   S    
Cr4   O20   S    
Cr7   O31   S    
C47   C76   S    
C5    C11   A    
C59   O39   A    
C8    H16   S    
Cr11  O11   S    
C23   H23   S    
C49   C53   S    
C75   C84   A    
Cr4   O48   S    
C13   C57   S    
O57   H45   S    
C55   O59   S    
C27   O63   S    
C65   O5    A    
C3    C18   S    
C7    C9    A    
C16   C60   S    
C71   O43   A    
Cr11  O39   S    
Cr4   O4    S    
C21   H21   S    
C69   O41   A    
C48   O36   A    
C15   C27   D    
C41   C49   D    
C71   O15   A    
O64   H52   S    
C7    H15   S    
C72   O16   A    
C38   C54   D    
C4    O28   A    
Cr9   O9    S    
C23   C27   S    
Cr6   O18   S    
C40   C72   S    
C9    C10   A    
C53   O57   S    
C68   O12   A    
C3    O27   A    
C62   O50   A    
C13   H29   S    
Cr8   O28   S    
Cr4   O24   S    
C29   H38   S    
C1    O25   A    
O58   H46   S    
C15   H31   S    
Cr6   O30   S    
C3    O23   A    
C82   H2    S    
C48   C75   S    
Cr7   O27   S    
C58   O38   A    
C52   O56   S    
Cr1   O21   S    
C25   O61   S    
C42   H6    S    
C76   C83   A    
Cr5   O25   S    
Cr9   O37   S    
Cr4   O44   S    
Cr7   O7    S    
C14   C58   S    
C39   C55   D    
C24   H24   S    
C63   O47   A    
Cr8   O8    S    
O62   H50   S    
C84   H4    S    
C32   C35   D    
C76   C80   A    
C33   C34   S    
C79   C80   A    
C51   O55   S    
C70   O42   A    
Cr1   O17   S    
Cr6   O50   S    
C51   C55   S    
C40   C56   D    
O61   H49   S    
C29   C34   D    
C17   C21   D    
C54   O58   S    
C46   O34   A    
Cr12  O12   S    
C45   O33   A    
C45   C74   S    
C15   C59   S    
C38   H10   S    
C19   C23   D    
Cr12  O36   S    
C37   H9    S    
C62   O46   A    
C47   O31   A    
Cr8   O32   S    
Cr5   O17   S    
C83   C84   A    
C48   O32   A    
Cr1   O41   S    
C59   O3    A    
C42   C50   D    
Cr10  O18   S    
C30   H37   S    
Cr9   O33   S    
C61   O49   A    
O63   H51   S    
C57   O1    A    
Cr8   O20   S    
C64   O52   A    
C14   C26   D    
C50   O54   S    
Cr2   O22   S    
Cr5   O29   S    
C30   C66   S    
C18   H26   S    
C57   O37   A    
C4    C17   S    
C17   H25   S    
C60   O4    A    
C63   O51   A    
C74   C78   A    
C60   O40   A    
C29   C65   S    
Cr11  O15   S    
Cr7   O19   S    
C72   O44   A    
C74   C81   A    
C5    C77   A    
Cr3   O23   S    
C6    C12   A    
Cr1   O1    S    
C73   C82   A    
C45   O29   A    
C66   O10   A    
C11   H19   S    
C7    C79   A    
C33   H33   S    
O54   H42   S    
C22   H22   S    
Cr7   O51   S    
C1    C20   S    
Cr1   O45   S    
C46   O30   A    
C30   C33   D    
C2    C19   S    
C18   C22   D    
Cr5   O49   S    
Cr10  O38   S    
C24   C28   S    
Cr3   O3    S    
C31   H40   S    
C13   C25   D    
C26   O62   S    
C10   H18   S    
C44   C52   D    
Cr12  O40   S    
C32   H39   S    
C47   O35   A    
C11   C12   A    
Cr8   O52   S    
C66   O6    A    
Cr3   O19   S    
C44   C61   S    
Cr6   O6    S    
C61   O45   A    
C14   H30   S    
C40   H12   S    
C69   O13   A    
Cr9   O17   S    
Cr2   O18   S    
C35   H35   S    
C37   C53   D    
Cr10  O34   S    
C32   C68   S    
Cr3   O47   S    
C58   O2    A    
Cr2   O46   S    
C4    O24   A    
C5    H13   S    
C43   C51   D    
Cr5   O5    S    
C1    O21   A    
C81   H1    S    
C41   H5    S    
C68   O8    A    
Cr11  O19   S    
C16   H32   S    
O53   H41   S    
C39   H11   S    
C43   H7    S    
C9    H17   S    
C20   H28   S    
C6    C78   A    
Cr2   O2    S    
Cr3   O43   S    
O56   H44   S    
C64   O48   A    
Cr10  O14   S    
C49   O53   S    
C2    O22   A    
C34   H34   S    
C73   C77   A    
C8    C10   A    
O55   H43   S    
C22   C26   S    
C67   O11   A    
C8    C80   A    
C39   C71   S    
C31   C36   D    
C83   H3    S    
C41   C64   S    
Cr11  O35   S    
C65   O9    A    
C42   C63   S    
C20   C24   D    
C46   C73   S    
C52   C56   S    
C43   C62   S    
C12   H20   S    
Cr12  O16   S    
