data_mof_unit_55328.cif
_audit_creation_date              2012-12-10T17:36:42-0500
_audit_creation_method            fapswitch 2.2
_symmetry_space_group_name_H-M    P1
_symmetry_Int_Tables_number       1
_space_group_crystal_system       triclinic
_cell_length_a                    12.098055
_cell_length_b                    12.827139
_cell_length_c                    15.696464
_cell_angle_alpha                 91.041567
_cell_angle_beta                  84.651507
_cell_angle_gamma                 93.227599
_cell_volume                      2421.17413715

loop_
_atom_site_label
_atom_site_type_symbol
_atom_type_description
_atom_site_fract_x
_atom_site_fract_y
_atom_site_fract_z
_atom_type_partial_charge
C1    C     C_R   0.522153 0.700135 0.502412 0.930511
C2    C     C_R   0.477855 0.299859 0.497591 0.928677
C3    C     C_R   0.615724 0.971903 0.564697 -0.225234
C4    C     C_R   0.384168 0.028029 0.435583 -0.254959
C5    C     C_R   0.614939 0.863708 0.557780 0.442101
C6    C     C_R   0.385077 0.136229 0.442328 0.391353
C7    C     C_R   0.461371 0.866825 0.466853 -0.256327
C8    C     C_R   0.538598 0.133169 0.533310 -0.247399
C9    C     C_R   0.461180 0.973613 0.475497 0.120441
C10   C     C_R   0.538758 0.026357 0.524738 0.096404
C11   C     C_R   0.964397 0.483238 0.389041 0.356217
C12   C     C_R   0.035593 0.516645 0.611274 0.347967
C13   C     C_R   0.848276 0.458631 0.404755 0.412384
C14   C     C_R   0.151803 0.541682 0.595284 0.421995
C15   C     C_R   0.853450 0.504928 0.551119 0.055335
C16   C     C_R   0.146416 0.494776 0.449047 0.041185
C17   C     C_R   0.971876 0.504060 0.541370 -0.172735
C18   C     C_R   0.028019 0.495389 0.458961 -0.160876
C19   C     C_R   0.498827 0.499240 0.661941 0.939778
C20   C     C_R   0.501219 0.500537 0.338000 0.930761
C21   C     C_3   0.400034 0.520694 0.036059 0.149260
C22   C     C_3   0.601286 0.475745 0.963366 0.142943
C23   C     C_3   0.474070 0.593041 0.973905 -0.236891
C24   C     C_3   0.527270 0.403385 0.025616 -0.223117
C25   C     C_1   0.496844 0.497860 0.750875 -0.052873
C26   C     C_1   0.503491 0.500583 0.248932 -0.062614
C27   C     C_3   0.424542 0.424900 0.978106 0.167618
C28   C     C_3   0.576777 0.571542 0.021377 0.175800
C29   C     C_3   0.498752 0.496449 0.916849 0.022381
C30   C     C_3   0.502516 0.500017 0.082706 0.023547
C31   C     C_1   0.496923 0.496880 0.826117 -0.046073
C32   C     C_1   0.503904 0.500407 0.173583 -0.032640
C33   C     C_R   0.463885 0.188326 0.491888 -0.157023
C34   C     C_R   0.536139 0.811656 0.508179 -0.177502
H1    H     H_    0.452314 0.669674 0.950346 0.166289
H2    H     H_    0.549049 0.326743 0.049136 0.168777
H3    H     H_    0.598134 0.174025 0.571539 0.177501
H4    H     H_    0.401831 0.825992 0.428611 0.176250
H5    H     H_    0.674912 0.013868 0.602263 0.207793
H6    H     H_    0.324845 0.986013 0.398174 0.189715
H7    H     H_    0.190236 0.474532 0.388547 0.218532
H8    H     H_    0.809482 0.525267 0.611570 0.240852
N1    N     N_R   0.207800 0.519340 0.515560 -0.190889
N2    N     N_R   0.792200 0.480660 0.484440 -0.194711
O1    O     O_R   0.421700 0.658830 0.504150 -0.583005
O2    O     O_R   0.578300 0.341170 0.495850 -0.582638
O3    O     O_R   0.609310 0.646410 0.494170 -0.577056
O4    O     O_R   0.390690 0.353590 0.505830 -0.575597
O5    O     O_R   0.406210 0.506220 0.628210 -0.556048
O6    O     O_R   0.593790 0.493780 0.371790 -0.558785
O7    O     O_R   0.593830 0.493800 0.618230 -0.618600
O8    O     O_R   0.406170 0.506200 0.381770 -0.631017
Zn1   Zn    Zn3+2 0.374730 0.508290 0.506660 1.073560
Zn2   Zn    Zn3+2 0.625270 0.491710 0.493340 1.079808
C35   C     C_3   0.289897 0.551552 0.082969 -0.410317
C36   C     C_3   0.203185 0.571692 0.021506 -0.729545
H9    H     H_    0.235725 0.631990 0.974357 0.244999
H10   H     H_    0.179159 0.498901 0.987138 0.265224
H11   H     H_    0.127587 0.600021 0.058285 0.282282
H12   H     H_    0.257525 0.489149 0.128084 0.247922
H13   H     H_    0.305752 0.623954 0.120841 0.207340
C37   C     C_3   0.711050 0.444839 0.915727 -0.381710
C38   C     C_3   0.799101 0.426472 0.976490 -0.743186
H14   H     H_    0.824027 0.500252 0.009103 0.263289
H15   H     H_    0.767367 0.367623 0.025115 0.262060
H16   H     H_    0.873992 0.397100 0.939450 0.281182
H17   H     H_    0.695153 0.371788 0.878666 0.229027
H18   H     H_    0.742202 0.506530 0.869594 0.246776
C39   C     C_3   0.657371 0.657122 0.052385 -0.409523
C40   C     C_3   0.716822 0.719799 0.978383 -0.782696
H19   H     H_    0.771340 0.669783 0.936667 0.258158
H20   H     H_    0.655653 0.753737 0.939803 0.268252
H21   H     H_    0.769378 0.784492 0.004124 0.261150
H22   H     H_    0.609555 0.710903 0.096053 0.209849
H23   H     H_    0.719287 0.621772 0.089309 0.240784
C41   C     C_3   0.344061 0.339311 0.946935 -0.418909
C42   C     C_3   0.283849 0.276956 0.020832 -0.758694
H24   H     H_    0.344518 0.244029 0.060448 0.258715
H25   H     H_    0.228025 0.326849 0.061570 0.280312
H26   H     H_    0.232453 0.211527 0.994914 0.259706
H27   H     H_    0.282590 0.374569 0.909527 0.240166
H28   H     H_    0.392142 0.285313 0.903657 0.214349
S1    S     S_3+6 0.291627 0.201870 0.384132 0.062916
O9    O     O_2   0.204307 0.247939 0.445673 -0.230555
O10   O     O_2   0.353124 0.288020 0.332591 -0.327328
O11   O     O_3   0.228244 0.118863 0.317560 -0.497242
H29   H     H_    0.285983 0.104694 0.270418 0.350174
S2    S     S_3+6 0.708318 0.797964 0.615935 0.050518
O12   O     O_2   0.645711 0.713004 0.668138 -0.316764
O13   O     O_2   0.795022 0.751012 0.554329 -0.269633
O14   O     O_3   0.771745 0.881581 0.682005 -0.542990
H30   H     H_    0.821496 0.838484 0.711541 0.408491
S3    S     S_3+6 0.210781 0.625579 0.673802 0.097210
O15   O     O_2   0.304668 0.696438 0.636784 -0.273621
O16   O     O_2   0.122616 0.694048 0.713515 -0.258549
O17   O     O_3   0.255030 0.555090 0.752010 -0.528991
H31   H     H_    0.271924 0.606529 0.797486 0.368107
S4    S     S_3+6 0.789746 0.374936 0.326148 0.095809
O18   O     O_2   0.696725 0.303042 0.363188 -0.280174
O19   O     O_2   0.749400 0.438235 0.256803 -0.292639
O20   O     O_3   0.888823 0.299095 0.281227 -0.473853
H32   H     H_    0.856893 0.265764 0.230929 0.384703
S5    S     S_3+6 0.029413 0.509114 0.283805 0.059612
O21   O     O_2   0.090177 0.415389 0.250607 -0.273179
O22   O     O_2   0.947007 0.534628 0.222538 -0.226349
O23   O     O_3   0.120653 0.612776 0.288793 -0.563940
H33   H     H_    0.193052 0.588778 0.263583 0.350097
S6    S     S_3+6 0.970193 0.495048 0.717198 0.048977
O24   O     O_2   0.883883 0.406133 0.715850 -0.317605
O25   O     O_2   0.052789 0.467523 0.777740 -0.259494
O26   O     O_3   0.907123 0.603451 0.752381 -0.527150
H34   H     H_    0.918670 0.609662 0.813949 0.375358

loop_
_geom_bond_atom_site_label_1
_geom_bond_atom_site_label_2
_ccdc_geom_bond_type
C25   C31   T    
C35   C36   S    
C38   H15   S    
C11   C18   A    
C26   C32   T    
S3    O15   D    
C22   C29   S    
C27   C29   S    
C28   C39   S    
C24   C27   S    
C42   H24   S    
S6    O24   D    
C24   H2    S    
C37   H17   S    
C23   C29   S    
C15   N2    A    
O23   H33   S    
C36   H9    S    
C7    C9    A    
C13   S4    S    
C20   O6    A    
C5    S2    S    
N1    Zn1   S    
O26   H34   S    
S6    O25   D    
C12   C17   A    
C40   H19   S    
C9    C10   A    
C14   S3    S    
C21   C27   S    
C38   H16   S    
O1    Zn1   S    
S3    O16   D    
C22   C28   S    
C35   H12   S    
C5    C34   A    
C1    C34   S    
C42   H25   S    
O4    Zn1   S    
O20   H32   S    
C4    H6    S    
C41   C42   S    
C4    C6    A    
C41   H28   S    
O14   H30   S    
C12   S6    S    
O11   H29   S    
C1    O3    A    
C2    O4    A    
C2    O2    A    
C37   C38   S    
N2    Zn2   S    
C22   C37   S    
C19   O5    A    
S1    O9    D    
S2    O14   S    
C29   C31   S    
O17   H31   S    
O2    Zn2   S    
C40   H21   S    
C17   C18   A    
C39   H22   S    
S5    O22   D    
S6    O26   S    
O6    Zn2   S    
C23   C28   S    
C16   N1    A    
O3    Zn2   S    
C2    C33   S    
C8    C10   A    
S1    O10   D    
S2    O13   D    
S3    O17   S    
C23   H1    S    
C21   C23   S    
C7    C34   A    
C22   C24   S    
C8    H3    S    
C27   C41   S    
O8    Zn1   S    
C21   C35   S    
C42   H26   S    
C15   C17   A    
C6    S1    S    
C15   H8    S    
C12   C14   A    
C3    C5    A    
C41   H27   S    
C11   S5    S    
C36   H11   S    
S4    O20   S    
C21   C30   S    
S4    O19   D    
C6    C33   A    
C37   H18   S    
O7    Zn2   S    
C28   C30   S    
C20   O8    A    
C3    C10   A    
C30   C32   S    
C11   C13   A    
C1    O1    A    
C20   C26   S    
O5    Zn1   S    
C35   H13   S    
C7    H4    S    
C36   H10   S    
C39   H23   S    
S5    O23   S    
C8    C33   A    
C39   C40   S    
C19   C25   S    
C24   C30   S    
C3    H5    S    
C38   H14   S    
C19   O7    A    
S1    O11   S    
S2    O12   D    
C16   C18   A    
S4    O18   D    
S5    O21   D    
C40   H20   S    
C4    C9    A    
C16   H7    S    
C13   N2    A    
C14   N1    A    
