data_mof_unit_26215.cif
_audit_creation_date              2012-12-11T17:23:10-0500
_audit_creation_method            fapswitch 2.2
_symmetry_space_group_name_H-M    P1
_symmetry_Int_Tables_number       1
_space_group_crystal_system       triclinic
_cell_length_a                    22.352669
_cell_length_b                    7.093413
_cell_length_c                    19.407981
_cell_angle_alpha                 89.996077
_cell_angle_beta                  99.803742
_cell_angle_gamma                 89.950599
_cell_volume                      3032.32648359

loop_
_atom_site_label
_atom_site_type_symbol
_atom_type_description
_atom_site_fract_x
_atom_site_fract_y
_atom_site_fract_z
_atom_type_partial_charge
O1    O     O_R   0.443980 0.494320 0.557430 -0.534893
O2    O     O_R   0.556020 0.994320 0.442570 -0.528967
O3    O     O_R   0.441210 0.822520 0.414610 -0.529408
O4    O     O_R   0.558790 0.322520 0.585390 -0.535471
C1    C     C_R   0.426698 0.655583 0.388555 0.755004
C2    C     C_R   0.573415 0.155115 0.611327 0.754682
O5    O     O_R   0.436920 0.823940 0.555180 -0.526649
O6    O     O_R   0.563080 0.323940 0.444820 -0.531299
O7    O     O_R   0.551700 0.995760 0.584140 -0.528070
O8    O     O_R   0.448300 0.495760 0.415860 -0.536720
C3    C     C_R   0.421627 0.655452 0.574858 0.724263
C4    C     C_R   0.578308 0.155359 0.425077 0.725346
O9    O     O_3   0.537660 0.661290 0.509340 -0.370526
O10   O     O_3   0.462340 0.161290 0.490660 -0.374264
V1    V     V_3+5 0.493010 0.935560 0.498270 1.571536
V2    V     V_3+5 0.506990 0.435560 0.501730 1.552668
C5    C     C_R   0.787960 0.953923 0.251459 -0.117964
C6    C     C_R   0.211670 0.453788 0.747934 -0.115996
H1    H     H_    0.817576 0.832167 0.253608 0.194956
H2    H     H_    0.182436 0.331363 0.746100 0.197504
C7    C     C_R   0.792852 0.098501 0.203613 -0.080471
C8    C     C_R   0.206324 0.598943 0.795408 -0.082934
C9    C     C_R   0.754376 0.256664 0.201294 0.276983
C10   C     C_R   0.244156 0.758240 0.797146 0.276653
C11   C     C_R   0.710985 0.267671 0.246490 0.258006
C12   C     C_R   0.287650 0.769234 0.752104 0.260770
C13   C     C_R   0.706338 0.121614 0.294925 -0.110463
C14   C     C_R   0.292883 0.622423 0.704163 -0.110524
C15   C     C_R   0.745695 0.963147 0.297245 0.401960
C16   C     C_R   0.253888 0.463352 0.702095 0.401635
C17   C     C_1   0.838106 0.083169 0.157792 0.147895
C18   C     C_1   0.161317 0.583076 0.841501 0.148338
C19   C     C_1   0.661304 0.135441 0.341365 0.094240
C20   C     C_1   0.338182 0.636018 0.658033 0.096190
C21   C     C_1   0.623685 0.145679 0.379756 -0.080650
C22   C     C_1   0.376028 0.646023 0.619916 -0.081291
C23   C     C_1   0.876054 0.072078 0.119869 -0.070399
C24   C     C_1   0.123617 0.571817 0.879721 -0.069654
C25   C     C_R   0.630708 0.123557 0.805569 -0.101403
C26   C     C_R   0.366786 0.696402 0.195149 -0.102649
H3    H     H_    0.610890 0.125356 0.852625 0.212888
H4    H     H_    0.385664 0.723335 0.148401 0.212683
C27   C     C_R   0.614872 0.144267 0.679293 -0.128824
C28   C     C_R   0.385068 0.650780 0.320580 -0.128148
C29   C     C_R   0.910868 0.046867 0.758960 0.095453
C30   C     C_R   0.088773 0.560252 0.241249 0.095618
C31   C     C_R   0.872454 0.014737 0.694220 0.394164
C32   C     C_R   0.124839 0.599753 0.306871 0.396740
C33   C     C_R   0.809126 0.012132 0.690601 0.235261
C34   C     C_R   0.186577 0.644790 0.311074 0.234909
C35   C     C_R   0.782429 0.067301 0.749157 -0.049410
C36   C     C_R   0.215678 0.626437 0.251535 -0.052418
C37   C     C_R   0.821508 0.080847 0.815393 -0.068708
C38   C     C_R   0.177708 0.605220 0.184872 -0.068416
C39   C     C_R   0.718378 0.099307 0.745602 0.097284
C40   C     C_R   0.280390 0.638602 0.254765 0.096601
C41   C     C_R   0.693996 0.108446 0.808690 -0.001689
C42   C     C_R   0.304093 0.665326 0.191875 -0.001721
C43   C     C_R   0.733320 0.106363 0.873633 0.281799
C44   C     C_R   0.264959 0.657131 0.126892 0.280354
C45   C     C_R   0.795848 0.099643 0.876287 -0.150689
C46   C     C_R   0.203440 0.620964 0.123926 -0.149556
C47   C     C_R   0.678010 0.133230 0.681859 -0.183199
C48   C     C_R   0.322800 0.615318 0.317697 -0.190325
C49   C     C_R   0.591426 0.136677 0.741685 0.239239
C50   C     C_R   0.406601 0.694922 0.258842 0.241705
C51   C     C_R   0.885608 0.068989 0.820073 -0.159375
C52   C     C_R   0.114282 0.573439 0.179986 -0.159802
H5    H     H_    0.694846 0.158628 0.633865 0.165744
H6    H     H_    0.308648 0.564691 0.364742 0.164551
H7    H     H_    0.824334 0.105771 0.927275 0.119445
H8    H     H_    0.175562 0.608873 0.072734 0.119359
O11   O     O_R   0.051730 0.724670 0.084120 -0.534369
O12   O     O_R   0.948270 0.224670 0.915880 -0.531862
O13   O     O_R   0.063080 0.393540 0.944820 -0.530210
O14   O     O_R   0.936920 0.893540 0.055180 -0.531987
C53   C     C_R   0.078140 0.562078 0.924879 0.711591
C54   C     C_R   0.921785 0.062175 0.075025 0.712452
O15   O     O_R   0.058800 0.395030 0.085390 -0.531175
O16   O     O_R   0.941200 0.895030 0.914610 -0.534516
O17   O     O_R   0.943980 0.223310 0.057440 -0.524036
O18   O     O_R   0.056020 0.723310 0.942560 -0.525494
C55   C     C_R   0.072985 0.563606 0.111427 0.774053
C56   C     C_R   0.927071 0.063482 0.888556 0.774107
O19   O     O_3   0.962360 0.556290 0.990650 -0.371114
O20   O     O_3   0.037640 0.056290 0.009350 -0.370375
V3    V     V_3+5 0.006980 0.281990 0.001730 1.564720
V4    V     V_3+5 0.993020 0.781990 0.998270 1.558201
O21   O     O_3   0.745022 0.814151 0.343040 -0.591543
H9    H     H_    0.713661 0.834633 0.372547 0.323280
O22   O     O_3   0.254888 0.314061 0.656512 -0.591877
H10   H     H_    0.286023 0.335190 0.626768 0.319066
Br1   Br    Br    0.764662 0.881393 0.610259 -0.468125
Br2   Br    Br    0.222338 0.778764 0.394987 -0.457106
O23   O     O_3   0.894642 0.975463 0.633432 -0.575916
H11   H     H_    0.939177 0.989269 0.640933 0.357117
O24   O     O_3   0.101204 0.605326 0.368260 -0.574720
H12   H     H_    0.058666 0.562067 0.360177 0.357464
Br3   Br    Br    0.761605 0.458364 0.136614 -0.377069
Br4   Br    Br    0.235787 0.961799 0.860674 -0.377547
Br5   Br    Br    0.657631 0.482902 0.241888 -0.336406
Br6   Br    Br    0.340357 0.985475 0.756321 -0.332118
Br7   Br    Br    0.505733 0.151895 0.742043 -0.418973
Br8   Br    Br    0.490961 0.746367 0.258850 -0.425917
Br9   Br    Br    0.705074 0.121984 0.961778 -0.413784
Br10  Br    Br    0.292844 0.683948 0.038902 -0.413478
Br11  Br    Br    0.998465 0.044384 0.766573 -0.510606
Br12  Br    Br    0.002926 0.505184 0.233090 -0.511211

loop_
_geom_bond_atom_site_label_1
_geom_bond_atom_site_label_2
_ccdc_geom_bond_type
C9    Br3   S    
C13   C15   A    
C5    C15   A    
C28   C50   A    
O23   H11   S    
O1    C3    A    
O16   C56   A    
O2    C4    A    
C2    O7    A    
C15   O21   S    
O24   H12   S    
C27   C47   A    
C31   C33   A    
C13   C19   S    
O5    C3    A    
C32   O24   S    
C7    C17   S    
C43   Br9   S    
C8    C18   S    
C3    C22   S    
C10   C12   A    
O20   V4    S    
C41   C43   A    
C38   C52   A    
C42   C44   A    
C25   C41   A    
C44   C46   A    
C29   C31   A    
C5    H1    S    
C37   C45   A    
C47   H5    S    
C33   C35   A    
C30   Br12  S    
C29   C51   A    
C34   C36   A    
C40   C48   A    
C6    C16   A    
C48   H6    S    
O12   V3    S    
O14   V4    S    
C35   C39   A    
C27   C49   A    
C45   H7    S    
C32   C34   A    
C14   C20   S    
C51   C56   S    
O6    V2    S    
C6    C8    A    
C25   C49   A    
O15   V3    S    
C36   C38   A    
O19   V3    S    
C30   C32   A    
C43   C45   A    
C26   C42   A    
C50   Br8   S    
O4    C2    A    
O12   C56   A    
O22   H10   S    
O20   V3    S    
C34   Br2   S    
C38   C46   A    
C5    C7    A    
C17   C23   T    
C39   C47   A    
C35   C37   A    
O4    V2    S    
O11   V4    S    
C30   C52   A    
C26   H4    S    
O6    C4    A    
C46   H8    S    
O1    V2    S    
C4    C21   S    
O2    V1    S    
O13   C53   A    
O17   V3    S    
O13   V3    S    
C1    C28   S    
C18   C24   T    
C2    C27   S    
C39   C41   A    
C8    C10   A    
C49   Br7   S    
C28   C48   A    
C44   Br10  S    
O19   V4    S    
C10   Br4   S    
C52   C55   S    
O14   C54   A    
C16   O22   S    
O3    C1    A    
C24   C53   S    
C11   C13   A    
C23   C54   S    
C12   C14   A    
C7    C9    A    
O7    V1    S    
C14   C16   A    
O16   V4    S    
O8    V2    S    
C12   Br6   S    
O15   C55   A    
C54   O17   A    
C11   Br5   S    
C53   O18   A    
O18   V4    S    
O5    V1    S    
C19   C21   T    
C20   C22   T    
C40   C42   A    
C6    H2    S    
C9    C11   A    
C37   C51   A    
C36   C40   A    
C1    O8    A    
C25   H3    S    
O9    V2    S    
C31   O23   S    
O10   V1    S    
O3    V1    S    
C26   C50   A    
C33   Br1   S    
O21   H9    S    
O11   C55   A    
C29   Br11  S    
