data_mof_unit_54774.cif
_audit_creation_date              2012-10-26T20:07:48-0400
_audit_creation_method            fapswitch 2.2
_symmetry_space_group_name_H-M    P1
_symmetry_Int_Tables_number       1
_space_group_crystal_system       triclinic
_cell_length_a                    9.564036
_cell_length_b                    10.799965
_cell_length_c                    17.107313
_cell_angle_alpha                 88.415723
_cell_angle_beta                  92.801049
_cell_angle_gamma                 90.862626
_cell_volume                      1764.08377908

loop_
_atom_site_label
_atom_site_type_symbol
_atom_type_description
_atom_site_fract_x
_atom_site_fract_y
_atom_site_fract_z
_atom_type_partial_charge
C1    C     C_R   0.499042 0.262552 0.501835 0.552485
C2    C     C_R   0.072079 0.557803 0.441227 -0.006589
C3    C     C_R   0.516117 0.503841 0.650413 0.539688
C4    C     C_R   0.483960 0.497843 0.349401 0.528066
C5    C     C_R   0.521886 0.510154 0.735906 -0.053442
C6    C     C_R   0.475982 0.491177 0.263760 -0.068668
C7    C     C_R   0.417226 0.571131 0.775741 -0.014857
C8    C     C_R   0.576623 0.427952 0.221891 -0.018511
C9    C     C_R   0.412017 0.552432 0.857748 0.310927
C10   C     C_R   0.558485 0.422559 0.139696 0.311800
C11   C     C_R   0.525431 0.492938 0.899809 0.196636
C12   C     C_R   0.501005 0.737611 0.498929 0.572476
C13   C     C_R   0.447796 0.488195 0.099785 0.190024
C14   C     C_R   0.633997 0.444275 0.859247 -0.152996
C15   C     C_R   0.349321 0.547398 0.142302 -0.148297
C16   C     C_R   0.630405 0.449209 0.778213 -0.169504
C17   C     C_R   0.362460 0.548384 0.223249 -0.181125
C18   C     C_R   0.409021 0.067267 0.448162 0.262494
C19   C     C_R   0.595463 0.933660 0.550350 0.247525
C20   C     C_2   0.696349 0.362011 0.262655 0.233105
C21   C     C_2   0.322433 0.661775 0.732807 0.252483
C22   C     C_3   0.587858 0.232963 0.089364 0.007099
C23   C     C_R   0.408201 0.937771 0.446421 -0.033460
C24   C     C_3   0.684261 0.155176 0.043176 -0.335128
C25   C     C_3   0.189257 0.512458 0.892288 0.025103
C26   C     C_3   0.064848 0.563955 0.932258 -0.327833
C27   C     C_3   0.382975 0.159639 0.327106 0.016098
C28   C     C_3   0.276911 0.218055 0.268618 -0.319379
C29   C     C_3   0.821547 0.872311 0.570236 0.036961
C30   C     C_3   0.918060 0.786705 0.619162 -0.315983
C31   C     C_2   0.313565 0.872065 0.388777 0.252946
C32   C     C_2   0.655188 0.126045 0.626483 0.258159
C33   C     C_2   0.146230 0.373986 0.625655 0.276561
C34   C     C_R   0.584651 0.062239 0.558233 -0.034556
C35   C     C_2   0.854847 0.624529 0.373223 0.273366
C36   C     C_R   0.503104 0.871962 0.497225 -0.062630
C37   C     C_R   0.497025 0.128495 0.503521 -0.058302
C38   C     C_R   0.075906 0.440723 0.559082 0.128389
C39   C     C_R   0.924249 0.559144 0.440791 0.117511
C40   C     C_R   0.928048 0.442123 0.558780 -0.024621
Cu1   Cu    Cu3+1 0.640660 0.500020 0.500000 0.981851
Cu2   Cu    Cu3+1 0.359340 0.499980 0.500000 1.009096
H1    H     H_    0.720651 0.399031 0.890974 0.137741
H2    H     H_    0.574255 0.185785 0.147321 0.119723
H3    H     H_    0.788103 0.147273 0.074797 0.181804
H4    H     H_    0.638272 0.060951 0.035798 0.114322
H5    H     H_    0.697989 0.198865 0.984462 0.160515
H6    H     H_    0.218764 0.423020 0.922163 0.130326
H7    H     H_    0.155543 0.493920 0.830404 0.136840
H8    H     H_    0.031337 0.652222 0.902721 0.193799
H9    H     H_    0.976105 0.496488 0.929065 0.100279
H10   H     H_    0.093697 0.581127 0.994697 0.160888
H11   H     H_    0.422014 0.073854 0.301278 0.125934
H12   H     H_    0.262728 0.595097 0.112224 0.145752
H13   H     H_    0.471786 0.225565 0.336486 0.090957
H14   H     H_    0.236078 0.304401 0.292276 0.184532
H15   H     H_    0.327227 0.240664 0.212758 0.068552
H16   H     H_    0.188237 0.152534 0.256919 0.198078
H17   H     H_    0.865413 0.968165 0.573163 0.166727
H18   H     H_    0.820788 0.842952 0.508371 0.177260
H19   H     H_    0.875334 0.690591 0.618651 0.169966
H20   H     H_    0.023623 0.787671 0.594785 0.119004
H21   H     H_    0.927497 0.817863 0.680542 0.200746
H22   H     H_    0.342969 0.783448 0.366642 0.102879
H23   H     H_    0.712520 0.404391 0.748446 0.138534
H24   H     H_    0.647883 0.225285 0.632336 0.115718
H25   H     H_    0.124976 0.399053 0.684880 0.055423
H26   H     H_    0.883900 0.603524 0.314539 0.105854
H27   H     H_    0.284641 0.596650 0.254357 0.142039
H28   H     H_    0.873818 0.394951 0.605322 0.107677
H29   H     H_    0.126468 0.604861 0.394701 0.115341
H30   H     H_    0.688593 0.324388 0.321621 0.114678
H31   H     H_    0.343403 0.693153 0.673752 0.136666
H32   H     H_    0.484454 0.237939 0.056524 0.131838
N1    N     N_2   0.540448 0.485269 0.982661 -0.171203
N2    N     N_2   0.429810 0.495248 0.017133 -0.204333
N3    N     N_R   0.852070 0.500030 0.499980 -0.243497
N4    N     N_R   0.147930 0.499970 0.500020 -0.236648
O1    O     O_R   0.618740 0.319660 0.500000 -0.548123
O2    O     O_2   0.222792 0.706624 0.763208 -0.490165
O3    O     O_3   0.648198 0.352151 0.098617 -0.492560
O4    O     O_3   0.301836 0.599073 0.896892 -0.486593
O5    O     O_3   0.318149 0.134447 0.398314 -0.478104
O6    O     O_3   0.685927 0.865368 0.599809 -0.503912
O7    O     O_2   0.201159 0.915373 0.365951 -0.468231
O8    O     O_2   0.717843 0.068398 0.679296 -0.467873
O9    O     O_2   0.219294 0.284873 0.615740 -0.460386
O10   O     O_2   0.773956 0.708552 0.381739 -0.498069
O11   O     O_R   0.381260 0.680340 0.500000 -0.535153
O12   O     O_R   0.381170 0.319630 0.500010 -0.388084
O13   O     O_R   0.618830 0.680370 0.499990 -0.424194
O14   O     O_R   0.631780 0.498870 0.613920 -0.517799
O15   O     O_R   0.368220 0.501130 0.386080 -0.520780
O16   O     O_R   0.394210 0.498840 0.613930 -0.508192
O17   O     O_R   0.605790 0.501160 0.386070 -0.488617
O18   O     O_2   0.806402 0.349200 0.230675 -0.472844

loop_
_geom_bond_atom_site_label_1
_geom_bond_atom_site_label_2
_ccdc_geom_bond_type
C17   H27   S    
C1    O12   A    
C31   O7    D    
C34   C37   A    
Cu1   Cu2   S    
C12   O13   A    
C28   H14   S    
C28   H15   S    
C8    C20   S    
C40   H28   S    
C24   H3    S    
C39   N3    A    
C18   C37   A    
C19   C36   A    
C26   H8    S    
Cu1   N3    S    
C11   C14   A    
C27   H13   S    
Cu2   O15   S    
C21   H31   S    
C7    C9    A    
C5    C16   A    
C2    C39   A    
C22   H2    S    
C29   H17   S    
C13   N2    S    
C12   C36   S    
C1    C37   S    
C9    O4    S    
C20   O18   D    
C30   H21   S    
C18   C23   A    
C15   H12   S    
C12   O11   A    
C29   O6    S    
C4    C6    S    
C5    C7    A    
C6    C8    A    
C38   N4    A    
C25   C26   S    
C7    C21   S    
C19   C34   A    
C3    O14   A    
Cu2   O12   S    
C32   C34   S    
C35   C39   S    
N1    N2    D    
C22   O3    S    
C29   C30   S    
C2    N4    A    
C26   H10   S    
C4    O17   A    
C35   O10   D    
C29   H18   S    
C32   O8    D    
C18   O5    S    
C9    C11   A    
C25   H6    S    
Cu1   O13   S    
Cu2   N4    S    
C30   H20   S    
C25   O4    S    
C1    O1    A    
C14   C16   A    
C22   H32   S    
C2    H29   S    
C33   H25   S    
C32   H24   S    
C15   C17   A    
C6    C17   A    
Cu2   O16   S    
C24   H5    S    
C31   H22   S    
C3    C5    S    
C10   C13   A    
Cu1   O1    S    
C27   H11   S    
C28   H16   S    
C10   O3    S    
C33   C38   S    
Cu2   O11   S    
C24   H4    S    
C13   C15   A    
C33   O9    D    
C11   N1    S    
C26   H9    S    
C38   C40   A    
Cu1   O17   S    
C35   H26   S    
C21   O2    D    
C27   O5    S    
C3    O16   A    
C22   C24   S    
C25   H7    S    
C4    O15   A    
Cu1   O14   S    
C8    C10   A    
C23   C36   A    
C30   H19   S    
C27   C28   S    
C40   N3    A    
C20   H30   S    
C16   H23   S    
C19   O6    S    
C23   C31   S    
C14   H1    S    
