data_mof_unit_15348.cif
_audit_creation_date              2012-12-10T17:43:18-0500
_audit_creation_method            fapswitch 2.2
_symmetry_space_group_name_H-M    P1
_symmetry_Int_Tables_number       1
_space_group_crystal_system       triclinic
_cell_length_a                    15.089682
_cell_length_b                    13.711275
_cell_length_c                    10.625528
_cell_angle_alpha                 90.291717
_cell_angle_beta                  90.062486
_cell_angle_gamma                 89.877519
_cell_volume                      2198.37397683

loop_
_atom_site_label
_atom_site_type_symbol
_atom_type_description
_atom_site_fract_x
_atom_site_fract_y
_atom_site_fract_z
_atom_type_partial_charge
C1    C     C_R   0.328526 0.500119 0.501039 0.811380
C2    C     C_R   0.671508 0.499894 0.500389 0.809105
C3    C     C_R   0.953580 0.499723 0.510317 0.026120
C4    C     C_R   0.046512 0.500921 0.510624 0.021499
C5    C     C_R   0.907470 0.409710 0.513815 0.044697
C6    C     C_R   0.092594 0.590860 0.506811 0.048197
C7    C     C_R   0.952130 0.677503 0.503514 -0.227363
C8    C     C_R   0.048070 0.323284 0.519137 -0.207494
C9    C     C_R   0.045255 0.680191 0.504893 0.249846
C10   C     C_R   0.955649 0.321024 0.520324 0.233731
C11   C     C_R   0.452980 0.793302 0.588916 0.050273
C12   C     C_R   0.544628 0.206677 0.408639 0.047564
C13   C     C_R   0.546161 0.792417 0.410260 0.059926
C14   C     C_R   0.454256 0.207579 0.590178 0.058194
C15   C     C_R   0.545194 0.895698 0.404433 -0.078235
C16   C     C_R   0.451332 0.104247 0.592049 -0.076916
C17   C     C_R   0.452473 0.896692 0.593277 -0.077362
C18   C     C_R   0.546186 0.103264 0.405283 -0.077114
C19   C     C_R   0.498919 0.948209 0.498910 0.073629
C20   C     C_R   0.498916 0.051755 0.498847 0.073219
C21   C     C_R   0.590196 0.947073 0.308165 -0.077075
C22   C     C_R   0.403682 0.052795 0.685674 -0.070793
C23   C     C_R   0.405153 0.949148 0.687190 -0.072775
C24   C     C_R   0.591399 0.050761 0.309254 -0.071367
C25   C     C_R   0.500065 0.499726 0.259115 0.796458
C26   C     C_R   0.500201 0.500268 0.740894 0.794846
C27   C     C_3   0.427897 0.546978 0.042198 -0.155515
C28   C     C_3   0.572736 0.452990 0.957797 -0.164533
C29   C     C_3   0.501228 0.592842 0.960249 -0.114619
C30   C     C_3   0.499434 0.407086 0.039788 -0.117315
C31   C     C_3   0.427101 0.454971 0.957397 -0.169749
C32   C     C_3   0.573527 0.544964 0.042655 -0.168102
C33   C     C_3   0.500395 0.500790 0.877704 -0.000674
C34   C     C_3   0.500207 0.499167 0.122320 0.007721
C35   C     C_R   0.814717 0.411103 0.508213 -0.238801
C36   C     C_R   0.185386 0.589085 0.502688 -0.227467
C37   C     C_R   0.768368 0.499648 0.503346 -0.075264
C38   C     C_R   0.231738 0.500471 0.504633 -0.083531
C39   C     C_R   0.814496 0.587988 0.502647 -0.214704
C40   C     C_R   0.185659 0.412293 0.511066 -0.207747
C41   C     C_R   0.906715 0.588671 0.505388 0.068777
C42   C     C_R   0.093504 0.411871 0.513601 0.058190
Cu1   Cu    Cu3+1 0.500000 0.597420 0.500000 0.953975
Cu2   Cu    Cu3+1 0.500000 0.402580 0.500000 0.953348
H1    H     H_    0.367286 0.418174 0.919215 0.142390
H2    H     H_    0.633324 0.581782 0.080844 0.140493
H3    H     H_    0.368704 0.585417 0.079888 0.144272
H4    H     H_    0.631950 0.414633 0.920038 0.143670
H5    H     H_    0.502375 0.668878 0.925030 0.192137
H6    H     H_    0.498782 0.330977 0.075007 0.165256
H7    H     H_    0.777727 0.343708 0.506176 0.174851
H8    H     H_    0.222250 0.656488 0.496500 0.174743
H9    H     H_    0.778645 0.656564 0.499107 0.158383
H10   H     H_    0.221454 0.343642 0.513535 0.175485
H11   H     H_    0.914081 0.744485 0.502412 0.157500
H12   H     H_    0.084525 0.255109 0.523408 0.174525
H13   H     H_    0.415706 0.750998 0.655878 0.150629
H14   H     H_    0.578470 0.249032 0.338260 0.158996
H15   H     H_    0.583813 0.749493 0.343651 0.152611
H16   H     H_    0.420417 0.250552 0.660695 0.157598
N1    N     N_R   0.500000 0.743810 0.500000 -0.199505
N2    N     N_R   0.500000 0.256190 0.500000 -0.201276
O1    O     O_R   0.370260 0.582280 0.500030 -0.589776
O2    O     O_R   0.629740 0.417720 0.499970 -0.583675
O3    O     O_R   0.629740 0.582280 0.499970 -0.590888
O4    O     O_R   0.370260 0.417720 0.500030 -0.581871
O5    O     O_R   0.499980 0.582260 0.316850 -0.577300
O6    O     O_R   0.500020 0.417740 0.683150 -0.588769
O7    O     O_R   0.500020 0.582260 0.683150 -0.588288
O8    O     O_R   0.499980 0.417740 0.316850 -0.595458
N3    N     N_2   0.092323 0.770895 0.507023 -0.433988
H17   H     H_    0.136083 0.778641 0.581026 0.264418
C43   C     C_3   0.047704 0.860254 0.471656 -0.625208
H18   H     H_    0.097424 0.919174 0.460698 0.239573
H19   H     H_    0.000099 0.882709 0.546074 0.224567
H20   H     H_    0.012959 0.850673 0.380194 0.238290
N4    N     N_2   0.913344 0.228701 0.530668 -0.438854
H21   H     H_    0.857963 0.226926 0.587230 0.255566
C44   C     C_3   0.903050 0.177074 0.412648 -0.609824
H22   H     H_    0.871674 0.105157 0.429695 0.242972
H23   H     H_    0.968737 0.164468 0.368226 0.229432
H24   H     H_    0.860416 0.219711 0.347698 0.250678
C45   C     C_2   0.636091 0.892777 0.205592 0.859819
O9    O     O_2   0.714841 0.906801 0.185739 -0.583450
O10   O     O_R   0.588664 0.826632 0.131042 -0.745803
H25   H     H_    0.626943 0.794197 0.064504 0.332889
C46   C     C_2   0.353097 0.106956 0.783714 0.860006
O11   O     O_2   0.370172 0.094689 0.895061 -0.550988
O12   O     O_R   0.285413 0.171015 0.748243 -0.778790
H26   H     H_    0.256013 0.203710 0.823163 0.333927
C47   C     C_2   0.355976 0.896066 0.786658 0.860100
O13   O     O_2   0.276161 0.908506 0.798773 -0.580431
O14   O     O_R   0.401428 0.832938 0.867120 -0.756047
H27   H     H_    0.360940 0.801051 0.930842 0.336404
C48   C     C_2   0.637478 0.103773 0.206764 0.858247
O15   O     O_2   0.615344 0.090606 0.097243 -0.551517
O16   O     O_R   0.706609 0.167744 0.235722 -0.795664
H28   H     H_    0.732601 0.199488 0.158146 0.330763

loop_
_geom_bond_atom_site_label_1
_geom_bond_atom_site_label_2
_ccdc_geom_bond_type
C46   O11   D    
O14   H27   S    
C27   C29   S    
C43   H18   S    
Cu2   O4    S    
C48   O15   D    
C25   O5    A    
C7    H11   S    
C2    O3    A    
C8    H12   S    
C6    C9    A    
O16   H28   S    
Cu1   O1    S    
C39   C41   A    
C29   H5    S    
N4    H21   S    
Cu2   O2    S    
C15   C19   A    
C17   C23   A    
C18   C24   A    
C35   C37   A    
C8    C42   A    
C29   C32   S    
C30   C31   S    
C14   N2    A    
C29   C33   S    
C11   C17   A    
C21   C45   S    
C31   C33   S    
Cu2   O8    S    
C18   C20   A    
C36   H8    S    
Cu1   O3    S    
C25   C34   S    
C12   H14   S    
C40   C42   A    
C30   H6    S    
Cu1   O7    S    
C43   H19   S    
C28   H4    S    
C1    O1    A    
C10   N4    S    
C2    O2    A    
N4    C44   S    
C27   C34   S    
C30   C34   S    
C27   C31   S    
C28   C32   S    
C4    C6    A    
C24   C48   S    
C47   O13   D    
C44   H23   S    
Cu2   N2    S    
O10   H25   S    
C32   C34   S    
Cu1   Cu2   S    
C47   O14   S    
C12   N2    A    
C26   C33   S    
C45   O9    D    
C16   C20   A    
C1    O4    A    
C22   C46   S    
C1    C38   S    
C8    C10   A    
C45   O10   S    
C28   C33   S    
C40   H10   S    
C13   C15   A    
C35   H7    S    
C43   H20   S    
C14   C16   A    
Cu2   O6    S    
C3    C4    A    
C3    C5    A    
Cu1   N1    S    
N3    C43   S    
C27   H3    S    
C7    C9    A    
C3    C41   A    
C16   C22   A    
C32   H2    S    
C9    N3    S    
C11   N1    A    
C44   H24   S    
C48   O16   S    
C13   H15   S    
C14   H16   S    
C26   O6    A    
N3    H17   S    
C19   C20   A    
C46   O12   S    
C5    C10   A    
C37   C39   A    
C36   C38   A    
C38   C40   A    
C2    C37   S    
C39   H9    S    
C4    C42   A    
C5    C35   A    
C28   C30   S    
C17   C19   A    
C6    C36   A    
C23   C47   S    
C7    C41   A    
C44   H22   S    
C15   C21   A    
C13   N1    A    
Cu1   O5    S    
C31   H1    S    
C21   C24   A    
C12   C18   A    
C26   O7    A    
C22   C23   A    
C25   O8    A    
O12   H26   S    
C11   H13   S    
