data_mof_unit_50264.cif
_audit_creation_date              2013-03-05T15:46:48-0500
_audit_creation_method            fapswitch 2.2
_symmetry_space_group_name_H-M    P1
_symmetry_Int_Tables_number       1
_space_group_crystal_system       triclinic
_cell_length_a                    17.245457
_cell_length_b                    11.041141
_cell_length_c                    9.797348
_cell_angle_alpha                 111.185553
_cell_angle_beta                  93.551183
_cell_angle_gamma                 91.897626
_cell_volume                      1732.99809111

loop_
_atom_site_label
_atom_site_type_symbol
_atom_site_description
_atom_site_fract_x
_atom_site_fract_y
_atom_site_fract_z
_atom_type_partial_charge
O1    O     O_R   0.507280 0.332200 0.576490 -0.579620
O2    O     O_R   0.492720 0.667800 0.423510 -0.575739
O3    O     O_R   0.484240 0.295800 0.334620 -0.576085
O4    O     O_R   0.515760 0.704200 0.665380 -0.578149
C1    C     C_R   0.494544 0.254180 0.441280 0.868465
C2    C     C_R   0.505760 0.745797 0.558651 0.849178
O5    O     O_R   0.399260 0.520290 0.634950 -0.574923
O6    O     O_R   0.600740 0.479710 0.365050 -0.579673
O7    O     O_R   0.376220 0.483890 0.393080 -0.574235
O8    O     O_R   0.623780 0.516110 0.606920 -0.576145
C3    C     C_R   0.351756 0.507453 0.522130 0.796473
C4    C     C_R   0.648375 0.496420 0.478683 0.811239
Cu1   Cu    Cu3+1 0.513640 0.521550 0.643210 0.929959
Cu2   Cu    Cu3+1 0.486360 0.478450 0.356790 0.932280
C5    C     C_R   0.267489 0.513555 0.537191 -0.094027
C6    C     C_R   0.731661 0.479375 0.460348 -0.073756
C7    C     C_R   0.219520 0.435295 0.414913 -0.242847
C8    C     C_R   0.768727 0.413579 0.541761 -0.248614
C9    C     C_R   0.139912 0.438160 0.414715 -0.199343
C10   C     C_R   0.846314 0.389387 0.530751 -0.201707
C11   C     C_R   0.104918 0.514768 0.539556 0.126015
C12   C     C_R   0.888935 0.429558 0.437473 0.103914
C13   C     C_R   0.151433 0.592314 0.668735 0.161137
C14   C     C_R   0.853656 0.492978 0.348934 0.161592
C15   C     C_R   0.234248 0.596530 0.665289 0.102928
C16   C     C_R   0.773615 0.521447 0.362702 0.120075
C17   C     C_2   0.019456 0.519323 0.528584 -0.188279
C18   C     C_2   0.972743 0.415876 0.447563 -0.249778
H1    H     H_    0.243875 0.372609 0.316294 0.164080
H2    H     H_    0.737190 0.379914 0.614932 0.166371
H3    H     H_    0.994885 0.320501 0.395197 0.150404
H4    H     H_    0.993290 0.609816 0.586843 0.159064
H5    H     H_    0.873915 0.341353 0.598223 0.149749
H6    H     H_    0.105603 0.381305 0.314049 0.142207
C19   C     C_2   0.492045 0.114867 0.408028 -0.361183
C20   C     C_2   0.509354 0.885047 0.591625 -0.364224
C21   C     C_2   0.503038 0.069467 0.516063 -0.156507
C22   C     C_2   0.500323 0.930373 0.483182 -0.153022
H7    H     H_    0.450978 0.413871 0.851471 0.157405
H8    H     H_    0.548019 0.587727 0.148957 0.161260
N1    N     N_2   0.465840 0.446060 0.141630 -0.284513
N2    N     N_2   0.534160 0.553940 0.858370 -0.284151
C23   C     C_2   0.505368 0.512348 0.080853 -0.085879
C24   C     C_2   0.494187 0.488386 0.919365 -0.084951
C25   C     C_3   0.733724 0.597546 0.277982 -0.414522
C26   C     C_3   0.713141 0.732418 0.379727 -0.823883
H9    H     H_    0.668769 0.726006 0.454211 0.246137
H10   H     H_    0.765847 0.787853 0.446981 0.247312
H11   H     H_    0.689090 0.787090 0.312916 0.233665
H12   H     H_    0.769617 0.612959 0.195691 0.207277
H13   H     H_    0.681239 0.541581 0.211597 0.212807
C27   C     C_3   0.286117 0.694944 0.790726 -0.397083
C28   C     C_3   0.305381 0.644610 0.914520 -0.767148
H14   H     H_    0.330066 0.547752 0.871042 0.257270
H15   H     H_    0.348765 0.713351 0.996998 0.232416
H16   H     H_    0.252763 0.635594 0.970386 0.240099
H17   H     H_    0.340959 0.720902 0.751795 0.209473
H18   H     H_    0.259412 0.790074 0.833589 0.172252
C29   C     C_3   0.111882 0.666148 0.808076 -0.421906
C30   C     C_3   0.075496 0.573050 0.873280 -0.827732
H19   H     H_    0.027470 0.509702 0.798272 0.257847
H20   H     H_    0.120256 0.510952 0.895348 0.251060
H21   H     H_    0.051309 0.629907 0.978491 0.234541
H22   H     H_    0.151670 0.735554 0.896000 0.210583
H23   H     H_    0.067062 0.727428 0.785121 0.182198
C31   C     C_3   0.901198 0.523365 0.237600 -0.404290
C32   C     C_3   0.930664 0.666267 0.290985 -0.827427
H24   H     H_    0.882175 0.732198 0.314511 0.254753
H25   H     H_    0.970350 0.691630 0.391937 0.248989
H26   H     H_    0.963444 0.683195 0.204852 0.234391
H27   H     H_    0.952575 0.463303 0.213179 0.206733
H28   H     H_    0.867278 0.494477 0.129599 0.180377
H29   H     H_    0.490444 0.864688 0.369249 0.179961
H30   H     H_    0.513801 0.135123 0.629844 0.179560
H31   H     H_    0.519298 0.951001 0.705346 0.149674
H32   H     H_    0.481193 0.048932 0.294454 0.147686
H33   H     H_    0.574161 0.625196 0.925678 0.191214
H34   H     H_    0.426245 0.374172 0.074134 0.189270

loop_
_geom_bond_atom_site_label_1
_geom_bond_atom_site_label_2
_geom_bond_distance
_ccdc_geom_bond_type
C21   H30   1.088125 S    
C7    H1    1.084051 S    
C23   C24   1.505552 S    
C28   H14   1.108921 S    
C13   C29   1.530130 S    
C26   H11   1.110593 S    
C29   H22   1.102246 S    
C30   H21   1.110621 S    
O1    C1    1.292970 A    
C9    C11   1.397554 A    
C14   C16   1.429507 A    
C5    C15   1.426847 A    
C25   H13   1.106187 S    
C30   H20   1.110956 S    
O4    Cu1   1.947558 S    
C16   C25   1.529644 S    
C3    C5    1.471060 S    
H8    C23   1.084523 S    
C31   H28   1.109322 S    
C4    C6    1.468374 S    
C8    H2    1.084147 S    
C14   C31   1.526978 S    
C31   C32   1.529290 S    
C11   C17   1.474938 S    
C29   C30   1.529704 S    
C12   C18   1.459129 S    
Cu1   Cu2   2.679319 S    
N1    C23   1.298897 D    
O2    C2    1.292828 A    
N2    C24   1.298771 D    
Cu1   N2    2.012735 S    
C28   H15   1.110409 S    
C6    C16   1.427990 A    
C27   H18   1.108544 S    
C26   H10   1.110152 S    
C19   H32   1.087587 S    
C32   H24   1.106891 S    
O4    C2    1.290004 A    
N1    H34   1.030706 S    
C25   C26   1.530732 S    
C9    H6    1.082808 S    
C30   H19   1.109029 S    
C32   H25   1.108306 S    
O5    C3    1.296107 A    
O7    Cu2   1.952838 S    
C21   C22   1.449244 S    
C20   H31   1.087521 S    
C31   H27   1.110201 S    
O6    C4    1.294807 A    
O7    C3    1.296092 A    
O3    Cu2   1.947559 S    
O8    C4    1.296284 A    
Cu2   N1    2.012736 S    
C10   H5    1.084415 S    
C10   C12   1.388069 A    
C11   C13   1.422630 A    
C12   C14   1.419440 A    
O1    Cu1   1.948916 S    
C27   C28   1.529616 S    
C28   H16   1.108083 S    
C5    C7    1.395660 A    
C26   H9    1.107255 S    
O6    Cu2   1.968559 S    
C19   C21   1.331338 D    
C17   H4    1.085020 S    
C18   H3    1.085521 S    
O3    C1    1.290051 A    
O8    Cu1   1.952838 S    
H7    C24   1.084919 S    
C32   H26   1.110284 S    
C20   C22   1.331342 D    
C15   C27   1.524924 S    
C29   H23   1.108551 S    
C25   H12   1.102778 S    
C1    C19   1.451086 S    
C7    C9    1.374190 A    
C2    C20   1.450605 S    
C8    C10   1.376237 A    
C13   C15   1.430286 A    
O2    Cu2   1.948916 S    
C27   H17   1.108091 S    
O5    Cu1   1.968563 S    
N2    H33   1.030742 S    
C6    C8    1.399628 A    
C17   C18   1.337222 D    
C22   H29   1.088178 S    
