data_mof_unit_34313.cif
_audit_creation_date              2012-12-10T19:00:43-0500
_audit_creation_method            fapswitch 2.2
_symmetry_space_group_name_H-M    P1
_symmetry_Int_Tables_number       1
_space_group_crystal_system       triclinic
_cell_length_a                    15.084385
_cell_length_b                    10.822723
_cell_length_c                    9.545477
_cell_angle_alpha                 89.855114
_cell_angle_beta                  89.833514
_cell_angle_gamma                 89.739474
_cell_volume                      1558.31083328

loop_
_atom_site_label
_atom_site_type_symbol
_atom_type_description
_atom_site_fract_x
_atom_site_fract_y
_atom_site_fract_z
_atom_type_partial_charge
C1    C     C_R   0.498503 0.262278 0.500055 0.815249
C2    C     C_R   0.906971 0.531758 0.624013 0.000931
C3    C     C_R   0.954391 0.438305 0.255412 -0.233567
C4    C     C_R   0.046782 0.439524 0.254284 0.599916
C5    C     C_R   0.093460 0.469946 0.376504 -0.003245
C6    C     C_R   0.046753 0.499894 0.500465 -0.013376
C7    C     C_R   0.092931 0.529730 0.624126 0.037400
C8    C     C_R   0.046065 0.560093 0.746350 -0.237313
C9    C     C_R   0.953611 0.561631 0.746467 0.604875
C10   C     C_R   0.185929 0.470914 0.377454 -0.181680
C11   C     C_R   0.231891 0.499926 0.500440 -0.095644
C12   C     C_R   0.328668 0.500011 0.500180 0.802311
C13   C     C_R   0.185314 0.528871 0.623443 -0.176906
C14   C     C_R   0.489042 0.063138 0.625533 0.096416
C15   C     C_R   0.489648 0.129157 0.499793 -0.097192
C16   C     C_R   0.477302 0.064833 0.373505 -0.197958
C17   C     C_R   0.476917 0.935982 0.373364 -0.204321
C18   C     C_R   0.488811 0.870731 0.499531 -0.088239
C19   C     C_R   0.488352 0.935941 0.625438 0.112039
C20   C     C_3   0.550360 0.927727 0.746794 -0.476095
C21   C     C_3   0.551787 0.067913 0.746113 -0.367760
C22   C     C_R   0.548111 0.415776 0.073816 0.167586
C23   C     C_R   0.498040 0.737654 0.499808 0.798092
C24   C     C_R   0.446711 0.579818 0.074444 -0.055395
C25   C     C_R   0.446763 0.579871 0.925511 -0.077307
C26   C     C_R   0.547949 0.415418 0.926148 0.196446
C27   C     C_3   0.646112 0.399710 0.921149 0.427043
C28   C     C_3   0.646111 0.400374 0.079317 -0.532384
C29   C     C_R   0.671445 0.500087 0.499942 0.820132
C30   C     C_R   0.814440 0.533109 0.622000 -0.155959
C31   C     C_R   0.768445 0.500286 0.500254 -0.090811
C32   C     C_R   0.815371 0.467363 0.379087 -0.180181
C33   C     C_R   0.907649 0.468476 0.377769 0.038931
C34   C     C_R   0.953779 0.500055 0.500786 -0.017059
Cu1   Cu    Cu3+1 0.500000 0.499980 0.640670 0.968632
Cu2   Cu    Cu3+1 0.500000 0.500020 0.359330 0.955474
H1    H     H_    0.778227 0.561016 0.714638 0.185262
H2    H     H_    0.471714 0.888153 0.274204 0.162823
H3    H     H_    0.517870 0.888214 0.841412 0.199375
H4    H     H_    0.615225 0.885133 0.718603 0.210553
H5    H     H_    0.520932 0.109501 0.840928 0.213684
H6    H     H_    0.617355 0.106281 0.715896 0.253151
H7    H     H_    0.404780 0.644470 0.130328 0.137645
H8    H     H_    0.404895 0.644589 0.869612 0.141605
H9    H     H_    0.681500 0.479311 0.874421 0.107792
H10   H     H_    0.666255 0.310919 0.127368 0.223045
H11   H     H_    0.780383 0.439488 0.286071 0.150393
H12   H     H_    0.679209 0.483723 0.121389 0.179593
H13   H     H_    0.919362 0.414302 0.160358 0.200048
H14   H     H_    0.222292 0.447918 0.282868 0.204970
H15   H     H_    0.220896 0.551981 0.718334 0.156763
H16   H     H_    0.081027 0.582958 0.841816 0.194792
H17   H     H_    0.472252 0.113296 0.274406 0.170451
N1    N     N_R   0.500570 0.500930 0.147930 -0.179698
N2    N     N_R   0.500570 0.500890 0.852020 -0.220696
O1    O     O_R   0.500000 0.319640 0.618810 -0.557871
O2    O     O_R   0.500010 0.319680 0.381230 -0.583577
O3    O     O_R   0.370250 0.499950 0.618800 -0.583163
O4    O     O_R   0.370260 0.499990 0.381220 -0.587262
O5    O     O_R   0.499990 0.680320 0.618770 -0.586741
O6    O     O_R   0.500000 0.680360 0.381190 -0.587296
O7    O     O_R   0.629740 0.500010 0.618780 -0.584328
O8    O     O_R   0.629750 0.500050 0.381200 -0.583026
F1    F     F_    0.670751 0.286386 0.866745 -0.662086
F2    F     F_    0.090353 0.410714 0.133915 -0.666127
F3    F     F_    0.909936 0.591541 0.866401 -0.669155

loop_
_geom_bond_atom_site_label_1
_geom_bond_atom_site_label_2
_ccdc_geom_bond_type
Cu1   O1    S    
C11   C12   S    
C29   O8    A    
C24   C25   A    
C29   O7    A    
C6    C7    A    
C1    C15   S    
C1    O2    A    
Cu2   O8    S    
C8    H16   S    
C19   C20   S    
C14   C15   A    
C7    C13   A    
C2    C30   A    
Cu2   O4    S    
C12   O3    A    
C32   C33   A    
C27   H9    S    
C17   C18   A    
C3    H13   S    
C5    C10   A    
C22   N1    A    
C22   C28   S    
C26   N2    A    
C23   O5    A    
C11   C13   A    
C28   H10   S    
C26   C27   S    
C5    C6    A    
C6    C34   A    
Cu1   O3    S    
C21   H5    S    
C4    C5    A    
C4    F2    S    
C1    O1    A    
C33   C34   A    
Cu1   O7    S    
C17   H2    S    
Cu2   O6    S    
C22   C26   A    
C30   C31   A    
C20   H4    S    
C32   H11   S    
C7    C8    A    
C10   C11   A    
C3    C33   A    
C24   N1    A    
C18   C23   S    
C10   H14   S    
C25   N2    A    
C23   O6    A    
C2    C9    A    
Cu2   N1    S    
C20   C21   S    
C14   C21   S    
C30   H1    S    
C29   C31   S    
C18   C19   A    
C27   F1    S    
C25   H8    S    
C27   C28   S    
C24   H7    S    
C20   H3    S    
C9    F3    S    
Cu1   O5    S    
Cu2   O2    S    
C21   H6    S    
C2    C34   A    
C13   H15   S    
C12   O4    A    
Cu1   N2    S    
C14   C19   A    
C31   C32   A    
C28   H12   S    
C3    C4    A    
C15   C16   A    
C16   C17   A    
C8    C9    A    
C16   H17   S    
Cu1   Cu2   S    
