data_mof_unit_62982.cif
_audit_creation_date              2012-10-26T19:01:23-0400
_audit_creation_method            fapswitch 2.2
_symmetry_space_group_name_H-M    P1
_symmetry_Int_Tables_number       1
_space_group_crystal_system       triclinic
_cell_length_a                    15.910621
_cell_length_b                    17.756748
_cell_length_c                    16.470474
_cell_angle_alpha                 89.975143
_cell_angle_beta                  89.844091
_cell_angle_gamma                 90.426762
_cell_volume                      4653.10614955

loop_
_atom_site_label
_atom_site_type_symbol
_atom_type_description
_atom_site_fract_x
_atom_site_fract_y
_atom_site_fract_z
_atom_type_partial_charge
C1    C     C_R   0.499828 0.355295 0.499988 0.552126
C2    C     C_R   0.498914 0.153150 0.572710 0.229461
C3    C     C_R   0.500434 0.885511 0.501747 0.065606
C4    C     C_R   0.499566 0.114489 0.498253 0.065606
C5    C     C_1   0.500139 0.966244 0.500535 0.055314
C6    C     C_1   0.499861 0.033756 0.499465 0.055314
C7    C     C_R   0.554691 0.551040 0.827391 0.225997
C8    C     C_R   0.445309 0.448959 0.172609 0.225998
C9    C     C_R   0.552017 0.548537 0.741672 0.074640
C10   C     C_R   0.447984 0.451462 0.258327 0.074641
C11   C     C_R   0.448483 0.452092 0.743909 0.386292
C12   C     C_R   0.500172 0.644705 0.500012 0.552125
C13   C     C_R   0.551517 0.547909 0.256091 0.386293
C14   C     C_R   0.449055 0.452564 0.830119 -0.157465
C15   C     C_R   0.550944 0.547436 0.169880 -0.157465
C16   C     C_R   0.339627 0.499959 0.500076 0.554344
C17   C     C_R   0.660373 0.500041 0.499924 0.554345
C18   C     C_R   0.501950 0.501832 0.873113 -0.011427
C19   C     C_R   0.498050 0.498168 0.126886 -0.011428
C20   C     C_1   0.500633 0.500594 0.962780 -0.011743
C21   C     C_1   0.499366 0.499406 0.037220 -0.011743
C22   C     C_3   0.971762 0.434243 0.534408 -0.153295
C23   C     C_R   0.499944 0.766780 0.574249 -0.066296
C24   C     C_3   0.028238 0.565757 0.465592 -0.153295
C25   C     C_3   0.027799 0.441960 0.457750 0.227542
C26   C     C_3   0.972201 0.558040 0.542250 0.227543
C27   C     C_1   0.250231 0.500294 0.500198 0.022517
C28   C     C_1   0.749769 0.499706 0.499801 0.022517
C29   C     C_3   0.027575 0.495018 0.575450 0.228735
C30   C     C_3   0.972425 0.504982 0.424550 0.228736
C31   C     C_3   0.083584 0.501208 0.499598 0.039018
C32   C     C_3   0.916416 0.498792 0.500402 0.039018
C33   C     C_1   0.174933 0.500691 0.500027 0.049416
C34   C     C_R   0.500056 0.233219 0.425751 -0.066296
C35   C     C_1   0.825067 0.499309 0.499973 0.049416
C36   C     C_R   0.499944 0.845273 0.576058 0.221324
C37   C     C_R   0.500055 0.154727 0.423942 0.221324
C38   C     C_R   0.500402 0.727543 0.500382 -0.068571
C39   C     C_R   0.499598 0.272457 0.499617 -0.068571
C40   C     C_R   0.501078 0.767792 0.427164 -0.127646
C41   C     C_R   0.498922 0.232208 0.572836 -0.127646
C42   C     C_R   0.501086 0.846850 0.427290 0.229461
Cu1   Cu    Cu3+1 0.500000 0.499980 0.580420 1.034435
Cu2   Cu    Cu3+1 0.500000 0.500020 0.419580 1.034435
H1    H     H_    0.408148 0.414509 0.863555 0.111310
H2    H     H_    0.636554 0.627023 0.259220 0.308859
H3    H     H_    0.992281 0.512610 0.310080 0.346004
H4    H     H_    0.007719 0.487390 0.689920 0.346004
H5    H     H_    0.499662 0.934828 0.645569 0.360267
H6    H     H_    0.500338 0.065172 0.354431 0.360267
H7    H     H_    0.499524 0.736461 0.631363 0.177005
H8    H     H_    0.500475 0.263539 0.368637 0.177005
H9    H     H_    0.501565 0.737862 0.369862 0.150678
H10   H     H_    0.498434 0.262138 0.630138 0.150678
H11   H     H_    0.502108 0.851962 0.309180 0.335285
H12   H     H_    0.591851 0.585492 0.136445 0.111309
H13   H     H_    0.497892 0.148038 0.690820 0.335285
H14   H     H_    0.605505 0.598493 0.922496 0.340714
H15   H     H_    0.394496 0.401506 0.077504 0.340714
H16   H     H_    0.949208 0.380871 0.562326 0.134636
H17   H     H_    0.050791 0.619129 0.437674 0.134636
H18   H     H_    0.592295 0.586091 0.707100 0.162948
H19   H     H_    0.407705 0.413909 0.292900 0.162948
H20   H     H_    0.008291 0.353727 0.393449 0.346604
H21   H     H_    0.991709 0.646273 0.606551 0.346604
H22   H     H_    0.363444 0.372977 0.740780 0.308859
N1    N     N_R   0.499980 0.499970 0.701220 -0.231950
N2    N     N_R   0.500020 0.500030 0.298780 -0.231951
O1    O     O_R   0.499990 0.391240 0.567930 -0.450954
O2    O     O_3   0.941311 0.617929 0.588275 -0.657952
O3    O     O_3   0.396287 0.403872 0.701638 -0.641911
O4    O     O_3   0.603712 0.596129 0.298362 -0.641912
O5    O     O_3   0.941779 0.508336 0.345191 -0.658477
O6    O     O_3   0.058221 0.491663 0.654809 -0.658477
O7    O     O_3   0.499400 0.879430 0.651508 -0.661132
O8    O     O_3   0.500600 0.120570 0.348492 -0.661132
O9    O     O_3   0.501669 0.887455 0.355651 -0.683357
O10   O     O_3   0.498331 0.112545 0.644349 -0.683357
O11   O     O_3   0.609398 0.602089 0.862673 -0.678221
O12   O     O_R   0.500010 0.608760 0.432070 -0.450953
O13   O     O_3   0.390603 0.397910 0.137327 -0.678221
O14   O     O_R   0.500000 0.391270 0.432120 -0.525827
O15   O     O_R   0.500000 0.608730 0.567880 -0.525827
O16   O     O_R   0.379070 0.499980 0.567900 -0.437192
O17   O     O_R   0.620930 0.500020 0.432100 -0.437193
O18   O     O_R   0.379080 0.500010 0.432080 -0.517661
O19   O     O_R   0.620920 0.499990 0.567920 -0.517661
O20   O     O_3   0.058689 0.382071 0.411725 -0.657951

loop_
_geom_bond_atom_site_label_1
_geom_bond_atom_site_label_2
_ccdc_geom_bond_type
C25   C31   S    
C38   C40   A    
C3    C42   A    
C26   C32   S    
C24   H17   S    
C22   C29   S    
C34   C37   A    
Cu1   O15   S    
C14   C18   A    
C10   H19   S    
C39   C41   A    
C27   C33   T    
C15   C19   A    
C22   C32   S    
C17   O17   A    
C19   C21   S    
C24   C26   S    
Cu2   O14   S    
C22   H16   S    
C5    C6    T    
H11   O9    S    
C11   C14   A    
C11   O3    S    
C2    C41   A    
H21   O2    S    
C16   O16   A    
C34   C39   A    
C28   C35   T    
C22   C25   S    
H5    O7    S    
H2    O4    S    
C16   C27   S    
C40   C42   A    
Cu1   O1    S    
C16   O18   A    
Cu1   O16   S    
Cu2   O18   S    
C11   N1    A    
C14   H1    S    
C8    C19   A    
C9    H18   S    
C32   C35   S    
H4    O6    S    
Cu2   O12   S    
H3    O5    S    
C4    C6    S    
C30   O5    S    
C29   O6    S    
C1    O14   A    
C25   O20   S    
C1    O1    A    
C8    O13   S    
C12   O15   A    
C2    C4    A    
Cu1   Cu2   S    
C9    N1    A    
C2    O10   S    
C36   O7    S    
H6    O8    S    
C23   H7    S    
H22   O3    S    
C7    C18   A    
C31   C33   S    
C4    C37   A    
H14   O11   S    
C42   O9    S    
C8    C10   A    
C37   O8    S    
C23   C36   A    
C13   C15   A    
C26   O2    S    
Cu2   N2    S    
Cu2   O17   S    
C7    O11   S    
C25   C30   S    
C7    C9    A    
C17   O19   A    
C17   C28   S    
H13   O10   S    
H15   O13   S    
C3    C5    S    
C13   O4    S    
C10   N2    A    
C23   C38   A    
C34   H8    S    
Cu1   O19   S    
C15   H12   S    
C24   C31   S    
C29   C31   S    
C30   C32   S    
C3    C36   A    
C12   O12   A    
C18   C20   S    
C12   C38   S    
C24   C30   S    
C41   H10   S    
C1    C39   S    
C20   C21   T    
C26   C29   S    
Cu1   N1    S    
C40   H9    S    
H20   O20   S    
C13   N2    A    
