data_mof_unit_15759.cif
_audit_creation_date              2012-12-10T17:02:31-0500
_audit_creation_method            fapswitch 2.2
_symmetry_space_group_name_H-M    P1
_symmetry_Int_Tables_number       1
_space_group_crystal_system       triclinic
_cell_length_a                    10.835896
_cell_length_b                    11.045936
_cell_length_c                    9.770586
_cell_angle_alpha                 111.171581
_cell_angle_beta                  97.601436
_cell_angle_gamma                 91.234753
_cell_volume                      1077.90366818

loop_
_atom_site_label
_atom_site_type_symbol
_atom_type_description
_atom_site_fract_x
_atom_site_fract_y
_atom_site_fract_z
_atom_type_partial_charge
C1    C     C_R   0.490955 0.253974 0.440532 0.866942
C2    C     C_R   0.509045 0.746026 0.559468 0.866941
C3    C     C_2   0.485865 0.114691 0.406871 -0.358797
C4    C     C_2   0.514135 0.885309 0.593128 -0.358797
C5    C     C_2   0.502398 0.069557 0.516712 -0.154486
C6    C     C_2   0.497603 0.930443 0.483288 -0.154486
C7    C     C_2   0.507853 0.513224 0.081870 -0.078946
C8    C     C_2   0.492146 0.486777 0.918130 -0.078945
C9    C     C_R   0.261807 0.484766 0.498618 0.806768
C10   C     C_R   0.738192 0.515235 0.501382 0.806769
C11   C     C_R   0.142963 0.514167 0.769651 -0.133012
C12   C     C_R   0.857037 0.485834 0.230350 -0.133011
C13   C     C_R   0.101637 0.578349 0.904835 -0.148714
C14   C     C_R   0.898363 0.421652 0.095166 -0.148715
C15   C     C_R   0.993639 0.644055 0.908338 -0.155477
C16   C     C_R   0.006360 0.355946 0.091662 -0.155476
C17   C     C_R   0.921490 0.635867 0.775810 -0.131621
C18   C     C_R   0.078509 0.364133 0.224191 -0.131622
C19   C     C_R   0.956424 0.560759 0.636860 0.083005
C20   C     C_R   0.043575 0.439243 0.363140 0.083004
C21   C     C_R   0.076686 0.514862 0.634857 0.081339
C22   C     C_R   0.923314 0.485140 0.365144 0.081339
C23   C     C_R   0.874554 0.530631 0.501201 -0.239527
C24   C     C_R   0.125445 0.469370 0.498800 -0.239527
Cu1   Cu    Cu3+1 0.521920 0.521810 0.644910 0.932818
Cu2   Cu    Cu3+1 0.478080 0.478190 0.355090 0.932818
H1    H     H_    0.036117 0.301486 0.986451 0.134199
H2    H     H_    0.963882 0.698514 0.013550 0.134199
H3    H     H_    0.223834 0.459521 0.771866 0.141107
H4    H     H_    0.776165 0.540480 0.228134 0.141106
H5    H     H_    0.480351 0.864560 0.367729 0.179444
H6    H     H_    0.519651 0.135441 0.632271 0.179444
H7    H     H_    0.531420 0.951439 0.708500 0.149693
H8    H     H_    0.468579 0.048561 0.291500 0.149693
H9    H     H_    0.426053 0.408165 0.843758 0.145948
H10   H     H_    0.573946 0.591835 0.156243 0.145948
H11   H     H_    0.616807 0.628979 0.935925 0.183924
H12   H     H_    0.383193 0.371020 0.064075 0.183924
N1    N     N_2   0.445130 0.445420 0.137360 -0.286573
N2    N     N_2   0.554870 0.554580 0.862640 -0.286573
O1    O     O_R   0.511700 0.332340 0.577400 -0.580242
O2    O     O_R   0.488300 0.667660 0.422600 -0.580243
O3    O     O_R   0.474680 0.295500 0.332650 -0.579627
O4    O     O_R   0.525320 0.704500 0.667350 -0.579628
O5    O     O_R   0.338170 0.518410 0.622370 -0.578061
O6    O     O_R   0.661830 0.481590 0.377630 -0.578061
O7    O     O_R   0.301150 0.481570 0.377630 -0.572205
O8    O     O_R   0.698850 0.518430 0.622370 -0.572206
H13   H     H_    0.154408 0.578383 0.007027 0.149463
H14   H     H_    0.845592 0.421618 0.992973 0.149463
H15   H     H_    0.839041 0.690037 0.783264 0.142641
H16   H     H_    0.160957 0.309963 0.216737 0.142641

loop_
_geom_bond_atom_site_label_1
_geom_bond_atom_site_label_2
_ccdc_geom_bond_type
C10   O6    A    
C19   C23   A    
C9    C24   S    
C9    O5    A    
C19   C21   A    
Cu1   O5    S    
C10   C23   S    
C7    H10   S    
C2    C4    S    
C3    C5    D    
C5    H6    S    
C17   H15   S    
C16   H1    S    
C6    H5    S    
C12   C14   A    
C18   H16   S    
C7    C8    S    
C16   C18   A    
C11   C13   A    
Cu1   O8    S    
C11   H3    S    
C15   H2    S    
C14   H14   S    
Cu2   O7    S    
C2    O2    A    
C13   H13   S    
Cu1   O4    S    
C1    O1    A    
C17   C19   A    
C20   C22   A    
Cu2   O3    S    
C9    O7    A    
H11   N2    S    
C18   C20   A    
C13   C15   A    
Cu1   N2    S    
C10   O8    A    
C5    C6    S    
C14   C16   A    
Cu2   N1    S    
Cu2   O6    S    
C11   C21   A    
C12   C22   A    
H12   N1    S    
Cu2   O2    S    
C4    C6    D    
C21   C24   A    
Cu1   O1    S    
C15   C17   A    
C7    N1    D    
C4    H7    S    
C8    N2    D    
C3    H8    S    
C12   H4    S    
Cu1   Cu2   S    
C22   C23   A    
C1    O3    A    
C20   C24   A    
C2    O4    A    
C1    C3    S    
C8    H9    S    
