data_mof_unit_27513.cif
_audit_creation_date              2012-12-10T18:00:46-0500
_audit_creation_method            fapswitch 2.2
_symmetry_space_group_name_H-M    P1
_symmetry_Int_Tables_number       1
_space_group_crystal_system       triclinic
_cell_length_a                    15.915015
_cell_length_b                    10.812727
_cell_length_c                    9.533425
_cell_angle_alpha                 89.349082
_cell_angle_beta                  89.668106
_cell_angle_gamma                 90.495223
_cell_volume                      1640.36108791

loop_
_atom_site_label
_atom_site_type_symbol
_atom_type_description
_atom_site_fract_x
_atom_site_fract_y
_atom_site_fract_z
_atom_type_partial_charge
C1    C     C_R   0.501634 0.262338 0.500900 0.804639
C2    C     C_R   0.498367 0.737662 0.499100 0.806049
C3    C     C_R   0.451057 0.939176 0.397782 0.168252
C4    C     C_R   0.548946 0.060825 0.602216 0.168850
C5    C     C_R   0.497996 0.871574 0.497237 -0.069224
C6    C     C_R   0.502006 0.128426 0.502762 -0.069428
C7    C     C_R   0.448104 0.422311 0.076331 -0.120885
C8    C     C_R   0.551895 0.577689 0.923669 -0.120873
C9    C     C_R   0.447914 0.421950 0.927322 0.274966
C10   C     C_R   0.552083 0.578053 0.072678 0.272455
C11   C     C_R   0.339992 0.499910 0.500323 0.819621
C12   C     C_R   0.660009 0.500093 0.499677 0.819501
C13   C     C_3   0.971294 0.396106 0.565209 0.105859
C14   C     C_3   0.028652 0.603683 0.434801 0.136471
C15   C     C_3   0.027999 0.401282 0.433133 0.095396
C16   C     C_3   0.972064 0.598499 0.566887 0.135506
C17   C     C_1   0.250699 0.500154 0.501016 -0.176644
C18   C     C_1   0.749303 0.499852 0.498987 -0.176615
C19   C     C_3   0.027170 0.497071 0.631470 0.096112
C20   C     C_3   0.972834 0.502711 0.368534 0.097744
C21   C     C_3   0.084182 0.501070 0.500215 0.047281
C22   C     C_3   0.915821 0.498858 0.499800 0.046795
C23   C     C_1   0.175473 0.500486 0.501004 0.009506
C24   C     C_1   0.824529 0.499512 0.499005 0.010578
C25   C     C_R   0.454070 0.067610 0.401715 -0.216222
C26   C     C_R   0.545933 0.932391 0.598283 -0.215324
Cu1   Cu    Cu3+1 0.500000 0.500020 0.640660 0.966086
Cu2   Cu    Cu3+1 0.500000 0.499980 0.359340 0.965552
H1    H     H_    0.417838 0.120960 0.326782 0.147799
H2    H     H_    0.582165 0.879041 0.673216 0.148091
H3    H     H_    0.406666 0.360144 0.134242 0.132630
H4    H     H_    0.593333 0.639856 0.865757 0.133349
N1    N     N_R   0.500020 0.500030 0.852070 -0.157890
N2    N     N_R   0.499980 0.499970 0.147930 -0.157899
O1    O     O_R   0.500000 0.319660 0.618740 -0.552025
O2    O     O_R   0.500000 0.680340 0.381260 -0.551814
O3    O     O_R   0.499990 0.319630 0.381170 -0.593602
O4    O     O_R   0.500010 0.680370 0.618830 -0.592922
O5    O     O_R   0.379080 0.500000 0.618760 -0.544820
O6    O     O_R   0.620920 0.500000 0.381240 -0.545446
O7    O     O_R   0.379080 0.499970 0.381190 -0.586301
O8    O     O_R   0.620920 0.500030 0.618810 -0.586447
N3    N     N_3   0.059116 0.293635 0.359267 -0.576786
H5    H     H_    0.006922 0.245714 0.321022 0.219234
H6    H     H_    0.093160 0.325974 0.272061 0.210922
N4    N     N_3   0.941084 0.706120 0.640945 -0.573308
H7    H     H_    0.993331 0.753303 0.680136 0.233594
H8    H     H_    0.906535 0.673714 0.727572 0.216835
C27   C     C_3   0.939621 0.279017 0.638525 -0.847665
H9    H     H_    0.993817 0.223085 0.673904 0.244270
H10   H     H_    0.900643 0.303871 0.730714 0.226017
H11   H     H_    0.901060 0.224091 0.564810 0.237666
C28   C     C_3   0.060230 0.720743 0.361318 -0.811837
H12   H     H_    0.005982 0.776450 0.325698 0.251083
H13   H     H_    0.098662 0.775905 0.434993 0.228656
H14   H     H_    0.099315 0.695849 0.269267 0.226084
N5    N     N_3   0.942728 0.505137 0.224564 -0.578605
H15   H     H_    0.995383 0.502720 0.158692 0.215580
H16   H     H_    0.909101 0.423092 0.208768 0.212575
N6    N     N_3   0.057224 0.496687 0.775462 -0.589912
H17   H     H_    0.004567 0.490226 0.841211 0.215939
H18   H     H_    0.091332 0.415494 0.790350 0.225985
C29   C     C_3   0.395556 0.877499 0.290833 -0.828804
H19   H     H_    0.352399 0.810256 0.343730 0.225947
H20   H     H_    0.356370 0.945604 0.233362 0.215950
H21   H     H_    0.434656 0.829271 0.212113 0.248513
C30   C     C_3   0.604445 0.122503 0.709168 -0.830925
H22   H     H_    0.647597 0.189756 0.656276 0.225367
H23   H     H_    0.565342 0.170719 0.787894 0.248463
H24   H     H_    0.643636 0.054399 0.766631 0.216170
N7    N     N_3   0.393004 0.339316 0.855264 -0.525737
H25   H     H_    0.407050 0.249088 0.887365 0.187726
H26   H     H_    0.331405 0.357799 0.886868 0.193412
N8    N     N_3   0.606985 0.660697 0.144734 -0.523835
H27   H     H_    0.592945 0.750921 0.112606 0.188282
H28   H     H_    0.668586 0.642204 0.113151 0.198434

loop_
_geom_bond_atom_site_label_1
_geom_bond_atom_site_label_2
_ccdc_geom_bond_type
C29   H20   S    
C28   H12   S    
Cu1   N1    S    
C17   C23   T    
N8    H28   S    
C18   C24   T    
C14   C21   S    
C19   C21   S    
N5    H16   S    
C6    C25   A    
Cu2   O6    S    
Cu1   O4    S    
Cu2   O7    S    
N6    H18   S    
C12   O8    A    
Cu1   O5    S    
C27   H10   S    
C1    O3    A    
C29   H21   S    
Cu2   N2    S    
C9    N1    A    
C28   H13   S    
C25   H1    S    
C15   C20   S    
N4    H8    S    
C7    H3    S    
N8    H27   S    
C13   C19   S    
C30   H22   S    
C8    H4    S    
C14   C20   S    
C3    C25   A    
C4    C6    A    
C16   N4    S    
N7    H26   S    
Cu1   O1    S    
C29   H19   S    
N6    H17   S    
C30   H23   S    
C12   O6    A    
N3    H5    S    
C2    O4    A    
C27   H11   S    
C10   N2    A    
C11   O5    A    
N3    H6    S    
C13   C27   S    
C20   C22   S    
C26   H2    S    
C13   C15   S    
C7    N2    A    
C14   C16   S    
C2    C5    S    
Cu1   Cu2   S    
C1    O1    A    
C28   H14   S    
C2    O2    A    
C7    C9    A    
N4    H7    S    
C11   C17   S    
C16   C22   S    
C9    N7    S    
C3    C5    A    
C4    C30   S    
C4    C26   A    
C3    C29   S    
C19   N6    S    
C30   H24   S    
C21   C23   S    
C15   N3    S    
N7    H25   S    
C10   N8    S    
Cu1   O8    S    
N5    H15   S    
Cu2   O3    S    
C16   C19   S    
C13   C22   S    
C11   O7    A    
C22   C24   S    
C8    N1    A    
C5    C26   A    
C15   C21   S    
C14   C28   S    
Cu2   O2    S    
C8    C10   A    
C27   H9    S    
C12   C18   S    
C1    C6    S    
C20   N5    S    
