data_mof_unit_34158.cif
_audit_creation_date              2012-12-10T16:46:42-0500
_audit_creation_method            fapswitch 2.2
_symmetry_space_group_name_H-M    P1
_symmetry_Int_Tables_number       1
_space_group_crystal_system       triclinic
_cell_length_a                    15.845021
_cell_length_b                    8.716123
_cell_length_c                    7.429061
_cell_angle_alpha                 102.034603
_cell_angle_beta                  94.203899
_cell_angle_gamma                 92.100365
_cell_volume                      999.337341222

loop_
_atom_site_label
_atom_site_type_symbol
_atom_type_description
_atom_site_fract_x
_atom_site_fract_y
_atom_site_fract_z
_atom_type_partial_charge
C1    C     C_R   0.494978 0.200754 0.456020 0.869703
C2    C     C_3   0.948853 0.341606 0.510551 -0.345403
C3    C     C_3   0.917290 0.505730 0.499523 0.203743
C4    C     C_3   0.956649 0.626853 0.671077 -0.404158
C5    C     C_3   0.055177 0.630159 0.678664 0.321951
C6    C     C_1   0.824909 0.503047 0.494269 -0.051929
C7    C     C_1   0.175586 0.506579 0.509810 0.017572
C8    C     C_1   0.251008 0.502887 0.507799 -0.021063
C9    C     C_2   0.477674 0.037052 0.442064 0.007258
C10   C     C_2   0.522057 0.962968 0.558148 0.112992
C11   C     C_R   0.340331 0.499785 0.502448 0.862379
C12   C     C_R   0.504859 0.799248 0.544015 0.862403
C13   C     C_R   0.659707 0.500469 0.497633 0.864263
C14   C     C_3   0.046806 0.344527 0.518244 -0.433592
C15   C     C_3   0.045477 0.548293 0.325495 -0.328918
C16   C     C_3   0.947844 0.552273 0.323825 -0.374513
C17   C     C_1   0.749239 0.501416 0.493385 -0.091602
C18   C     C_3   0.083458 0.510113 0.508676 0.130074
Cu1   Cu    Cu3+1 0.509300 0.517380 0.684380 1.071773
Cu2   Cu    Cu3+1 0.490700 0.482620 0.315620 1.067527
H1    H     H_    0.921689 0.252632 0.387998 0.203967
H2    H     H_    0.072172 0.311752 0.648071 0.198776
H3    H     H_    0.927168 0.305478 0.635494 0.195287
H4    H     H_    0.932657 0.744561 0.666771 0.227452
H5    H     H_    0.435461 0.377093 0.948902 0.244964
H6    H     H_    0.564530 0.622922 0.051100 0.234996
H7    H     H_    0.066514 0.254587 0.401328 0.231261
H8    H     H_    0.072923 0.661667 0.304653 0.240667
H9    H     H_    0.062035 0.456944 0.206494 0.172626
H10   H     H_    0.918112 0.470193 0.197997 0.175280
H11   H     H_    0.928202 0.672327 0.316756 0.204175
H12   H     H_    0.078636 0.591175 0.806014 0.090224
H13   H     H_    0.935492 0.595514 0.799119 0.145863
N1    N     N_2   0.476670 0.456430 0.038530 -0.169431
N2    N     N_2   0.523330 0.543570 0.961470 -0.183162
O1    O     O_R   0.506050 0.286130 0.619770 -0.555334
O2    O     O_R   0.490330 0.256780 0.308370 -0.559020
O3    O     O_R   0.387300 0.514690 0.655770 -0.587532
O4    O     O_R   0.371580 0.485340 0.344370 -0.542908
O5    O     O_R   0.509670 0.743220 0.691630 -0.551890
O6    O     O_R   0.493950 0.713870 0.380230 -0.561887
O7    O     O_R   0.628420 0.514660 0.655630 -0.548287
O8    O     O_R   0.612700 0.485310 0.344230 -0.614237
S1    S     S_3+6 0.385589 0.953347 0.295627 0.038459
O9    O     O_2   0.333371 0.851589 0.390403 -0.257659
O10   O     O_2   0.331775 0.080641 0.249358 -0.278702
O11   O     O_3   0.415015 0.843707 0.098352 -0.465731
H14   H     H_    0.450487 0.916417 0.045544 0.362320
S2    S     S_3+6 0.613770 0.046983 0.705456 -0.005053
O12   O     O_2   0.667190 0.919334 0.752160 -0.298075
O13   O     O_2   0.666129 0.149235 0.611426 -0.323535
O14   O     O_3   0.582776 0.155164 0.902066 -0.516635
H15   H     H_    0.635677 0.206408 0.971502 0.374647
S3    S     S_3+6 0.098636 0.829220 0.705310 0.006500
O15   O     O_2   0.064226 0.901300 0.549939 -0.305911
O16   O     O_2   0.073701 0.924405 0.884642 -0.273628
O17   O     O_3   0.205004 0.833230 0.711627 -0.485426
H16   H     H_    0.222946 0.945591 0.726982 0.396120

loop_
_geom_bond_atom_site_label_1
_geom_bond_atom_site_label_2
_ccdc_geom_bond_type
C12   O5    A    
C11   O3    A    
Cu1   O7    S    
C12   O6    A    
Cu1   O3    S    
C1    O2    A    
C14   H7    S    
C15   C18   S    
Cu2   O4    S    
C9    C10   D    
C5    S3    S    
Cu1   Cu2   S    
S1    O11   S    
C13   C17   S    
H5    N1    S    
C3    C6    S    
Cu2   N1    S    
S2    O14   S    
C2    H1    S    
C2    C3    S    
C15   H8    S    
C7    C8    T    
Cu1   N2    S    
C7    C18   S    
S1    O9    D    
C16   H11   S    
C11   O4    A    
Cu2   O2    S    
C14   H2    S    
O17   H16   S    
C10   C12   S    
C8    C11   S    
C2    C14   S    
C15   C16   S    
C13   O7    A    
S1    O10   D    
C15   H9    S    
Cu1   O1    S    
C4    H4    S    
S3    O16   D    
Cu1   O5    S    
C16   H10   S    
C3    C4    S    
H6    N2    S    
C13   O8    A    
Cu2   O8    S    
C1    C9    S    
O14   H15   S    
N1    N2    D    
C2    H3    S    
S2    O12   D    
C6    C17   T    
C14   C18   S    
C4    H13   S    
C9    S1    S    
C5    C18   S    
S3    O15   D    
C10   S2    S    
C5    H12   S    
C3    C16   S    
O11   H14   S    
C1    O1    A    
Cu2   O6    S    
C4    C5    S    
S2    O13   D    
S3    O17   S    
