data_mof_unit_67380.cif
_audit_creation_date              2012-12-11T19:51:35-0500
_audit_creation_method            fapswitch 2.2
_symmetry_space_group_name_H-M    P1
_symmetry_Int_Tables_number       1
_space_group_crystal_system       triclinic
_cell_length_a                    17.428839
_cell_length_b                    28.337561
_cell_length_c                    9.076324
_cell_angle_alpha                 89.764659
_cell_angle_beta                  103.658778
_cell_angle_gamma                 90.303761
_cell_volume                      4355.85837259

loop_
_atom_site_label
_atom_site_type_symbol
_atom_type_description
_atom_site_fract_x
_atom_site_fract_y
_atom_site_fract_z
_atom_type_partial_charge
Ba1   Ba    Ba6+2 0.000400 0.534870 0.845190 1.795841
Ba2   Ba    Ba6+2 0.000400 0.465130 0.345190 1.800992
Ba3   Ba    Ba6+2 0.500400 0.034870 0.845190 1.780003
Ba4   Ba    Ba6+2 0.500400 0.965130 0.345190 1.783017
C1    C     C_3   0.041195 0.785790 0.687204 0.054110
C2    C     C_3   0.037265 0.214002 0.166761 0.028873
C3    C     C_3   0.527720 0.272925 0.524753 0.058550
C4    C     C_3   0.526054 0.733776 0.006700 0.070636
C5    C     C_R   0.156275 0.609674 0.428607 -0.065338
C6    C     C_R   0.156245 0.390382 0.928867 -0.068802
C7    C     C_R   0.655900 0.109705 0.425835 -0.056141
C8    C     C_R   0.657470 0.891290 0.928893 -0.084575
C9    C     C_2   0.763706 0.356140 0.919150 -0.064017
C10   C     C_2   0.758644 0.641058 0.406728 -0.081821
C11   C     C_2   0.274268 0.853422 0.941488 -0.075900
C12   C     C_2   0.262166 0.142331 0.418400 -0.083893
C13   C     C_2   0.828742 0.386268 0.925722 0.060652
C14   C     C_2   0.825013 0.612268 0.418940 0.056937
C15   C     C_2   0.334094 0.886026 0.936519 0.070470
C16   C     C_2   0.326303 0.112470 0.424438 0.043359
C17   C     C_2   0.852100 0.342550 0.693898 0.017675
C18   C     C_2   0.851876 0.655950 0.190195 0.041914
C19   C     C_2   0.358133 0.842173 0.709726 0.050554
C20   C     C_2   0.352372 0.156129 0.197295 0.068032
C21   C     C_3   0.776286 0.318803 0.682999 -0.002994
C22   C     C_3   0.791379 0.689626 0.206821 -0.013326
C23   C     C_3   0.303386 0.805446 0.736125 -0.038065
C24   C     C_3   0.294900 0.191222 0.219667 -0.030940
C25   C     C_3   0.750413 0.314885 0.825197 0.145674
C26   C     C_3   0.730202 0.669866 0.274878 0.113041
C27   C     C_3   0.246288 0.820847 0.820503 0.088101
C28   C     C_3   0.233985 0.171881 0.289064 0.049755
C29   C     C_2   0.748067 0.278518 0.566623 0.119622
C30   C     C_2   0.756044 0.724494 0.078051 0.103172
C31   C     C_2   0.261539 0.773566 0.603543 0.140927
C32   C     C_2   0.257113 0.225003 0.089586 0.123573
C33   C     C_2   0.256202 0.725718 0.618405 0.163758
C34   C     C_2   0.250490 0.272282 0.113042 0.173083
C35   C     C_2   0.745215 0.231269 0.600643 0.174196
C36   C     C_2   0.749637 0.771495 0.108690 0.203196
C37   C     C_R   0.258049 0.683215 0.374234 0.199137
C38   C     C_R   0.255648 0.316559 0.872942 0.202111
C39   C     C_R   0.755451 0.184127 0.367271 0.177027
C40   C     C_R   0.758189 0.817863 0.873557 0.163937
C41   C     C_R   0.217113 0.691114 0.496050 -0.091126
C42   C     C_R   0.214378 0.308614 0.994409 -0.098474
C43   C     C_R   0.714405 0.191891 0.488772 -0.113567
C44   C     C_R   0.717336 0.810015 0.995413 -0.118450
C45   C     C_3   0.009437 0.728148 0.119975 0.529833
C46   C     C_3   0.013316 0.272176 0.602162 0.532225
C47   C     C_3   0.522928 0.217635 0.066474 0.511953
C48   C     C_3   0.529330 0.780352 0.568636 0.520046
C49   C     C_R   0.245085 0.640307 0.278888 0.089388
C50   C     C_R   0.244277 0.359717 0.778513 0.101037
C51   C     C_R   0.743831 0.140821 0.274355 0.091610
C52   C     C_R   0.745417 0.860728 0.778380 0.099152
C53   C     C_R   0.192474 0.606533 0.292613 -0.079951
C54   C     C_R   0.192234 0.393494 0.792529 -0.081522
C55   C     C_R   0.692286 0.106654 0.290487 -0.087761
C56   C     C_R   0.693146 0.894162 0.792867 -0.092098
C57   C     C_R   0.162620 0.651577 0.519101 0.002394
C58   C     C_R   0.161859 0.348491 0.019838 0.003359
C59   C     C_R   0.662492 0.151417 0.516354 0.027279
C60   C     C_R   0.664603 0.849911 0.021017 0.020961
C61   C     C_3   0.044242 0.773122 0.067975 0.098710
C62   C     C_3   0.044822 0.227676 0.543420 0.118609
C63   C     C_3   0.545461 0.267475 0.026768 0.119464
C64   C     C_3   0.551880 0.731963 0.517811 0.170296
C65   C     C_3   0.712318 0.517405 0.983928 0.497217
C66   C     C_3   0.710653 0.479668 0.485128 0.511379
C67   C     C_3   0.211592 0.015404 0.983784 0.494653
C68   C     C_3   0.210604 0.979417 0.487764 0.520433
C69   C     C_3   0.625004 0.532316 0.899436 0.374179
C70   C     C_3   0.624905 0.468956 0.372890 0.395319
C71   C     C_3   0.124463 0.029956 0.900467 0.379531
C72   C     C_3   0.124607 0.971361 0.373926 0.396539
C73   C     C_3   0.274974 0.493557 0.307076 0.426282
C74   C     C_3   0.277269 0.505254 0.810001 0.424203
C75   C     C_3   0.774608 0.993352 0.306096 0.421709
C76   C     C_3   0.774609 0.007593 0.806825 0.425353
C77   C     C_3   0.339000 0.526890 0.393605 0.016783
C78   C     C_3   0.340636 0.471486 0.896404 0.027259
C79   C     C_3   0.837003 0.027380 0.394253 0.021288
C80   C     C_3   0.838424 0.974933 0.898092 0.031632
C81   C     C_3   0.038557 0.734277 0.634669 0.395253
C82   C     C_3   0.032756 0.266935 0.129222 0.425094
C83   C     C_3   0.510625 0.224284 0.584162 0.436818
C84   C     C_3   0.507196 0.779239 0.079112 0.457014
C85   C     C_2   0.878549 0.374435 0.811357 -0.037574
C86   C     C_2   0.873251 0.621463 0.300698 -0.069152
C87   C     C_2   0.381128 0.876983 0.817731 -0.054378
C88   C     C_2   0.373643 0.121304 0.305375 -0.068074
H1    H     H_    0.228881 0.488426 0.369663 0.058557
H2    H     H_    0.231438 0.511008 0.872656 0.054728
H3    H     H_    0.728073 0.987634 0.367169 0.060629
H4    H     H_    0.727726 0.012728 0.866941 0.054069
H5    H     H_    0.373334 0.542842 0.318831 0.156958
H6    H     H_    0.374684 0.455894 0.821302 0.155235
H7    H     H_    0.871349 0.044361 0.321237 0.153316
H8    H     H_    0.872397 0.957798 0.825510 0.152065
H9    H     H_    0.311925 0.555747 0.444834 0.052599
H10   H     H_    0.312731 0.442367 0.945976 0.048033
H11   H     H_    0.808319 0.055602 0.444844 0.052188
H12   H     H_    0.810372 0.946558 0.950676 0.051695
H13   H     H_    0.060426 0.732871 0.530147 -0.037357
H14   H     H_    0.050555 0.272297 0.022922 -0.053707
H15   H     H_    0.498783 0.199172 0.487915 -0.079369
H16   H     H_    0.493229 0.806525 0.988454 -0.102105
H17   H     H_    0.998469 0.790923 0.757811 0.134070
H18   H     H_    0.995760 0.204624 0.237057 0.134061
H19   H     H_    0.581338 0.269552 0.483249 0.063086
H20   H     H_    0.584974 0.738504 0.985886 0.078115
H21   H     H_    0.100955 0.794914 0.753584 0.077781
H22   H     H_    0.097510 0.204696 0.228124 0.070807
H23   H     H_    0.479147 0.283591 0.429292 0.123621
H24   H     H_    0.483972 0.728258 0.896522 0.135236
H25   H     H_    0.095564 0.784844 0.152792 0.105250
H26   H     H_    0.100452 0.216645 0.618136 0.099663
H27   H     H_    0.609511 0.273802 0.065277 0.090508
H28   H     H_    0.615906 0.725301 0.559895 0.077724
H29   H     H_    0.720935 0.364434 0.984460 0.156769
H30   H     H_    0.718651 0.633945 0.479458 0.144103
H31   H     H_    0.236432 0.859667 0.018574 0.145301
H32   H     H_    0.222930 0.135498 0.492838 0.137718
H33   H     H_    0.068391 0.764849 0.969983 0.061457
H34   H     H_    0.062010 0.236557 0.439149 0.063767
H35   H     H_    0.532267 0.269576 0.902521 0.146729
H36   H     H_    0.539650 0.731571 0.393244 0.129402
O1    O     O_2   0.163830 0.569270 0.980510 -0.412846
O2    O     O_2   0.163830 0.430730 0.480510 -0.416395
O3    O     O_2   0.663830 0.069270 0.980510 -0.423236
O4    O     O_2   0.663830 0.930730 0.480510 -0.422691
O5    O     O_3   0.731445 0.528381 0.512717 -0.604400
O6    O     O_3   0.729994 0.468731 0.983776 -0.573060
O7    O     O_3   0.232740 0.027662 0.522035 -0.604543
O8    O     O_3   0.229491 0.967021 0.979140 -0.575081
O9    O     O_3   0.952751 0.711661 0.993382 -0.544585
O10   O     O_3   0.948418 0.287400 0.488326 -0.547615
O11   O     O_3   0.442064 0.212844 0.998462 -0.563318
O12   O     O_3   0.446699 0.784274 0.515407 -0.564189
O13   O     O_3   0.904940 0.476110 0.001150 -0.488169
O14   O     O_3   0.904940 0.523890 0.501150 -0.482835
O15   O     O_3   0.404940 0.976110 0.001150 -0.481044
O16   O     O_3   0.404940 0.023890 0.501150 -0.479495
O17   O     O_3   0.095420 0.524330 0.188510 -0.487389
O18   O     O_3   0.095420 0.475670 0.688510 -0.480146
O19   O     O_3   0.595420 0.024330 0.188510 -0.483475
O20   O     O_3   0.595420 0.975670 0.688510 -0.478054
O21   O     O_3   0.028940 0.612400 0.656050 -0.472437
O22   O     O_3   0.028940 0.387600 0.156050 -0.481267
O23   O     O_3   0.528940 0.112400 0.656050 -0.498849
O24   O     O_3   0.528940 0.887600 0.156050 -0.506557
O25   O     O_2   0.170196 0.633884 0.813329 -0.385834
O26   O     O_2   0.168433 0.365121 0.316810 -0.381528
O27   O     O_2   0.665142 0.141668 0.821268 -0.389762
O28   O     O_2   0.664085 0.858335 0.325539 -0.384342
O29   O     O_3   0.244658 0.510944 0.161564 -0.646331
O30   O     O_3   0.245981 0.488801 0.663489 -0.645435
O31   O     O_3   0.744515 0.010897 0.160822 -0.645323
O32   O     O_3   0.745291 0.989340 0.661901 -0.643806
O33   O     O_3   0.087394 0.707142 0.748934 -0.595650
O34   O     O_3   0.083991 0.292197 0.245166 -0.604204
O35   O     O_3   0.573975 0.210314 0.703586 -0.603061
O36   O     O_3   0.571616 0.790926 0.199699 -0.609910
O37   O     O_2   0.837400 0.570350 0.710350 -0.378201
O38   O     O_2   0.837400 0.429650 0.210350 -0.396272
O39   O     O_2   0.337400 0.070350 0.710350 -0.379312
O40   O     O_2   0.337400 0.929650 0.210350 -0.408541
O41   O     O_3   0.972820 0.612580 0.035550 -0.437071
O42   O     O_3   0.972820 0.387420 0.535550 -0.439461
O43   O     O_3   0.472820 0.112580 0.035550 -0.459968
O44   O     O_3   0.472820 0.887420 0.535550 -0.473008
O45   O     O_2   0.850440 0.651695 0.872019 -0.361156
O46   O     O_2   0.848623 0.349261 0.377940 -0.361885
O47   O     O_2   0.345026 0.150814 0.878331 -0.368322
O48   O     O_2   0.346016 0.844999 0.391559 -0.374129
P1    P     P_3+3 0.171820 0.553000 0.158080 0.986270
P2    P     P_3+3 0.171820 0.447000 0.658080 0.987247
P3    P     P_3+3 0.671820 0.053000 0.158080 0.979869
P4    P     P_3+3 0.671820 0.947000 0.658080 0.980044
P5    P     P_3+3 0.829210 0.554130 0.532500 1.077307
P6    P     P_3+3 0.829210 0.445870 0.032500 1.089730
P7    P     P_3+3 0.329210 0.054130 0.532500 1.067579
P8    P     P_3+3 0.329210 0.945870 0.032500 1.084556
P9    P     P_3+3 0.906559 0.659368 0.029311 1.089719
P10   P     P_3+3 0.906561 0.340102 0.532141 1.078964
P11   P     P_3+3 0.403751 0.158128 0.033077 1.070080
P12   P     P_3+3 0.407895 0.839604 0.543666 1.041426
P13   P     P_3+3 0.108061 0.347127 0.176641 1.010854
P14   P     P_3+3 0.109061 0.652759 0.675697 1.016220
P15   P     P_3+3 0.607523 0.847312 0.171444 0.986772
P16   P     P_3+3 0.607031 0.153647 0.669618 0.993561
I1    I     I_    0.919746 0.709806 0.607287 -0.331219
I2    I     I_    0.915346 0.288884 0.119510 -0.335592
I3    I     I_    0.401955 0.224674 0.651948 -0.306648
I4    I     I_    0.401448 0.772688 0.157580 -0.321433
N1    N     N_3   0.573143 0.491271 0.888755 -0.394666
H37   H     H_    0.515233 0.502841 0.855792 0.261344
H38   H     H_    0.581671 0.468763 0.803879 0.245563
N2    N     N_3   0.582094 0.512760 0.316935 -0.451847
H39   H     H_    0.614881 0.543515 0.344753 0.237816
H40   H     H_    0.534680 0.517795 0.367055 0.237247
N3    N     N_3   0.073062 0.988659 0.889476 -0.398048
H41   H     H_    0.014906 0.999838 0.858528 0.260916
H42   H     H_    0.081402 0.966621 0.803277 0.241826
N4    N     N_3   0.086500 0.016232 0.314124 -0.467845
H43   H     H_    0.119920 0.046214 0.351313 0.229364
H44   H     H_    0.035590 0.022205 0.353085 0.234837
N5    N     N_3   0.591827 0.570735 0.973547 -0.412571
H45   H     H_    0.576185 0.559334 0.071760 0.256475
H46   H     H_    0.631181 0.599190 0.997352 0.233209
N6    N     N_3   0.572572 0.439029 0.440292 -0.416792
H47   H     H_    0.558663 0.456668 0.530435 0.221387
H48   H     H_    0.518824 0.433475 0.361588 0.277006
N7    N     N_3   0.092035 0.067854 0.976766 -0.411435
H49   H     H_    0.076715 0.056035 0.074329 0.254295
H50   H     H_    0.132074 0.095907 0.002627 0.230827
N8    N     N_3   0.068967 0.945253 0.442896 -0.411919
H51   H     H_    0.058968 0.964855 0.532752 0.218487
H52   H     H_    0.014570 0.941625 0.364600 0.279301
I5    I     I_    0.614208 0.562569 0.679585 -0.316520
I6    I     I_    0.631669 0.425080 0.183843 -0.228170
I7    I     I_    0.112356 0.061199 0.681598 -0.325320
I8    I     I_    0.129136 0.924572 0.189639 -0.239398
I9    I     I_    0.317065 0.424953 0.269993 -0.275347
I10   I     I_    0.322760 0.572907 0.773872 -0.233766
I11   I     I_    0.818046 0.924769 0.269738 -0.264647
I12   I     I_    0.815840 0.076868 0.768148 -0.222401
I13   I     I_    0.421009 0.493530 0.567974 -0.390473
I14   I     I_    0.424480 0.503343 0.074291 -0.344762
I15   I     I_    0.917899 0.994902 0.571475 -0.384518
I16   I     I_    0.921862 0.008808 0.072092 -0.351722
I17   I     I_    0.327959 0.630414 0.151173 -0.202565
I18   I     I_    0.328492 0.369016 0.651783 -0.203895
I19   I     I_    0.824427 0.132721 0.140169 -0.219089
I20   I     I_    0.826534 0.870421 0.646246 -0.214931
N9    N     N_3   0.953640 0.396671 0.821430 -0.449903
H53   H     H_    0.995813 0.370122 0.847084 0.102877
H54   H     H_    0.967927 0.419027 0.912914 0.236560
N10   N     N_3   0.938702 0.591702 0.296198 -0.483143
H55   H     H_    0.918347 0.557581 0.266922 0.222650
H56   H     H_    0.976531 0.591113 0.402937 0.205390
N11   N     N_3   0.447750 0.906453 0.811938 -0.427931
H57   H     H_    0.494226 0.884388 0.805472 0.119735
H58   H     H_    0.470723 0.920565 0.917511 0.228640
N12   N     N_3   0.437841 0.090934 0.297064 -0.470982
H59   H     H_    0.416386 0.057157 0.265775 0.219864
H60   H     H_    0.476478 0.089523 0.402922 0.209888
N13   N     N_3   0.122446 0.567842 0.478701 -0.457453
H61   H     H_    0.141791 0.565120 0.596243 0.202979
H62   H     H_    0.149519 0.538407 0.446745 0.172524
N14   N     N_3   0.122332 0.432106 0.977277 -0.454186
H63   H     H_    0.140288 0.434706 0.094948 0.204258
H64   H     H_    0.150557 0.461550 0.946820 0.174212
N15   N     N_3   0.622112 0.067767 0.475377 -0.456156
H65   H     H_    0.638490 0.065777 0.593380 0.197391
H66   H     H_    0.651799 0.038624 0.448570 0.172758
N16   N     N_3   0.622946 0.932915 0.976444 -0.459821
H67   H     H_    0.639311 0.935253 0.094360 0.201127
H68   H     H_    0.652057 0.962312 0.948233 0.178928
I21   I     I_    0.695993 0.302900 0.346803 -0.385284
I22   I     I_    0.697531 0.695306 0.865999 -0.410732
I23   I     I_    0.190325 0.807132 0.416960 -0.383707
I24   I     I_    0.192212 0.194351 0.889572 -0.416925
I25   I     I_    0.323891 0.696999 0.816864 -0.276747
I26   I     I_    0.311866 0.298053 0.321953 -0.300814
I27   I     I_    0.806926 0.208604 0.813218 -0.247280
I28   I     I_    0.806159 0.793998 0.325948 -0.243923
I29   I     I_    0.008540 0.838632 0.517360 -0.242382
I30   I     I_    0.002905 0.166524 0.983195 -0.251621
I31   I     I_    0.547506 0.331888 0.675229 -0.284173
I32   I     I_    0.531999 0.670741 0.138932 -0.307189
N17   N     N_3   0.074405 0.694496 0.168865 -0.534644
H69   H     H_    0.056373 0.666143 0.226259 0.128124
H70   H     H_    0.090425 0.681006 0.073262 0.210945
N18   N     N_3   0.077974 0.306894 0.632478 -0.526612
H71   H     H_    0.066369 0.333497 0.702583 0.118553
H72   H     H_    0.083177 0.322390 0.530513 0.231155
N19   N     N_3   0.571432 0.184938 0.003184 -0.439860
H73   H     H_    0.595124 0.158690 0.081211 0.171511
H74   H     H_    0.536502 0.168397 0.908428 0.253871
N20   N     N_3   0.572584 0.815797 0.501880 -0.453370
H75   H     H_    0.594179 0.842872 0.578025 0.157086
H76   H     H_    0.534616 0.830733 0.407461 0.252908
N21   N     N_3   0.972159 0.739380 0.244147 -0.451418
H77   H     H_    0.007254 0.763976 0.313909 0.218886
H78   H     H_    0.970939 0.709566 0.311092 0.117057
N22   N     N_3   0.988422 0.259985 0.739848 -0.433266
H79   H     H_    0.977744 0.290409 0.795371 0.107812
H80   H     H_    0.036487 0.243443 0.810054 0.204690
N23   N     N_3   0.536414 0.210693 0.229499 -0.543448
H81   H     H_    0.494105 0.230557 0.264456 0.163582
H82   H     H_    0.592361 0.223025 0.281751 0.148144
N24   N     N_3   0.551691 0.782423 0.733391 -0.509711
H83   H     H_    0.538507 0.815469 0.769420 0.087389
H84   H     H_    0.612779 0.780068 0.765622 0.155639
I33   I     I_    0.963179 0.831118 0.029583 -0.273994
I34   I     I_    0.964979 0.168827 0.521609 -0.258211
I35   I     I_    0.476480 0.322186 0.094809 -0.273224
I36   I     I_    0.484104 0.675415 0.581670 -0.220882
I37   I     I_    0.733971 0.535054 0.193951 -0.505542
I38   I     I_    0.711008 0.445943 0.680171 -0.427186
I39   I     I_    0.236861 0.033202 0.195532 -0.508819
I40   I     I_    0.209539 0.940002 0.676923 -0.411150
I41   I     I_    0.796825 0.562445 0.977961 -0.308030
I42   I     I_    0.804412 0.438849 0.491872 -0.237790
I43   I     I_    0.294668 0.061287 0.976052 -0.301430
I44   I     I_    0.304292 0.938354 0.490584 -0.217498

loop_
_geom_bond_atom_site_label_1
_geom_bond_atom_site_label_2
_ccdc_geom_bond_type
C74   I10   S    
N15   H66   S    
C51   C55   D    
C2    I30   S    
C84   I4    S    
N23   H81   S    
C72   I8    S    
C16   C88   S    
N20   H75   S    
C42   C58   S    
Ba3   O3    S    
Ba1   O1    S    
C19   P12   S    
C84   H16   S    
C35   I27   S    
N1    H38   S    
C66   I42   S    
C13   P6    S    
C61   I33   S    
C66   C70   S    
O35   P16   S    
O36   P15   S    
C64   H36   S    
C45   N17   S    
C77   I13   S    
C78   H6    S    
C72   N4    S    
O48   P12   D    
C21   C25   A    
C23   C27   A    
C80   H8    S    
C24   C28   A    
C13   C85   S    
C51   I19   S    
C88   N12   S    
N4    H43   S    
C23   C31   S    
Ba4   O40   S    
N7    H49   S    
C47   N23   S    
N3    H42   S    
C74   C78   S    
C12   C16   A    
C47   N19   S    
O26   P13   D    
C70   N2    S    
C33   C41   S    
C32   C34   D    
C35   C43   S    
C36   C44   S    
C1    H21   S    
Ba4   O16   S    
C46   O10   S    
C4    H24   S    
C69   I5    S    
O15   P8    S    
C68   I40   S    
C12   H32   S    
C83   I3    S    
N21   H78   S    
C43   C59   S    
C74   H2    S    
C71   N7    S    
C6    N14   S    
N19   H74   S    
O30   P2    S    
C80   I16   S    
C76   O32   S    
C68   I44   S    
O19   P3    S    
C83   H15   S    
N6    H47   S    
N2    H40   S    
C37   C41   S    
C39   C43   S    
C40   C44   S    
N14   H63   S    
Ba2   O22   S    
C45   O9    S    
N16   H68   S    
O38   P6    D    
O7    P7    S    
Ba3   O39   S    
C17   P10   S    
Ba4   O4    S    
C77   H9    S    
C64   I36   S    
O45   P9    D    
N13   H61   S    
C79   H11   S    
C20   P11   S    
C5    C57   A    
C69   N5    S    
N23   H82   S    
C7    C59   A    
C8    C60   A    
C59   P16   S    
O18   P2    S    
C73   H1    S    
C2    H22   S    
Ba1   O14   S    
Ba2   O2    S    
C74   O30   S    
C6    C54   S    
C1    C81   S    
N9    H53   S    
C82   H14   S    
O6    P6    S    
C20   C88   D    
Ba4   O24   S    
C67   C71   S    
C15   C87   S    
C67   O8    S    
C71   N3    S    
C68   O7    S    
C14   P5    S    
C84   O36   S    
C62   I34   S    
C62   H34   S    
C4    C84   S    
N22   H80   S    
C9    H29   S    
N8    H52   S    
N5    H45   S    
C78   H10   S    
C54   P2    S    
C47   C63   S    
C65   C69   S    
C37   C49   S    
O4    P4    D    
O5    P5    S    
O23   P16   S    
C22   C26   A    
Ba2   O14   S    
C50   I18   S    
Ba3   Ba4   S    
C39   C51   S    
C17   C21   A    
N12   H59   S    
Ba4   O44   S    
C63   I35   S    
C20   C24   A    
C87   N11   S    
O33   P14   S    
C15   P8    S    
C11   C27   A    
C12   C28   A    
N20   H76   S    
C2    C82   S    
C9    C13   A    
C63   H27   S    
N16   H67   S    
C4    I32   S    
C64   H28   S    
C53   P1    S    
C79   I15   S    
C80   H12   S    
N10   H55   S    
N17   H70   S    
N1    H37   S    
C34   C42   S    
O27   P16   D    
O47   P11   D    
O28   P15   D    
N18   H71   S    
C61   H25   S    
C52   I20   S    
Ba2   P2    S    
Ba3   P7    S    
C21   C29   S    
C47   O11   S    
C73   I9    S    
C65   O6    S    
C10   H30   S    
C81   O33   S    
C76   C80   S    
C17   C85   D    
Ba2   O17   S    
C11   C15   A    
C9    C25   A    
O10   P10   S    
C67   I39   S    
C4    H20   S    
C75   O31   S    
N24   H83   S    
N4    H44   S    
C44   C60   S    
N11   H57   S    
C29   I21   S    
C38   C42   S    
C31   I23   S    
O2    P2    D    
C3    C83   S    
C72   N8    S    
C7    N15   S    
N19   H73   S    
Ba1   O21   S    
Ba2   O38   S    
C78   I14   S    
O16   P7    S    
O20   P4    S    
C79   H7    S    
C66   I38   S    
C6    C58   A    
Ba4   P4    S    
C7    C55   S    
C58   P13   S    
O9    P9    S    
C14   C86   S    
C85   N9    S    
C67   I43   S    
C49   C53   D    
O11   P11   S    
Ba4   O19   S    
O1    P1    D    
C52   C56   D    
C70   N6    S    
O12   P12   S    
C75   H3    S    
N21   H77   S    
C40   C52   S    
C73   C77   S    
O8    P8    S    
C18   C86   D    
Ba3   O15   S    
C33   I25   S    
C76   I12   S    
C65   I37   S    
Ba2   O42   S    
C16   P7    S    
C36   I28   S    
N6    H48   S    
C57   P14   S    
C49   I17   S    
C60   P15   S    
N14   H64   S    
Ba1   P5    S    
C46   N22   S    
Ba3   O16   S    
O31   P3    S    
O43   P11   S    
C56   P4    S    
C70   I6    S    
C1    I29   S    
C55   P3    S    
O32   P4    S    
C38   C50   S    
O22   P13   S    
C75   C79   S    
C1    H17   S    
C41   C57   S    
C48   O12   S    
C3    H19   S    
Ba1   O13   S    
O14   P5    S    
C24   C32   S    
C18   C22   A    
C65   I41   S    
O34   P13   S    
C82   I2    S    
C83   O35   S    
N3    H41   S    
C10   C14   A    
C68   C72   S    
Ba3   O43   S    
Ba4   O15   S    
C45   N21   S    
O21   P14   S    
C29   C35   D    
C45   C61   S    
C30   C36   D    
C32   I24   S    
C31   C33   D    
O13   P6    S    
O24   P15   S    
N7    H50   S    
Ba1   Ba2   S    
Ba2   P6    S    
C3    H23   S    
Ba3   P3    S    
Ba1   P1    S    
C22   C30   S    
O39   P7    D    
N2    H39   S    
O40   P8    D    
C69   N1    S    
C66   O5    S    
C82   O34   S    
C19   C23   A    
C76   H4    S    
C48   C64   S    
C71   I7    S    
Ba3   O20   S    
C2    H18   S    
O42   P10   S    
Ba1   O18   S    
C11   H31   S    
C8    N16   S    
C10   C26   A    
C81   H13   S    
C75   I11   S    
O25   P14   D    
N12   H60   S    
N13   H62   S    
C30   I22   S    
O3    P3    D    
N11   H58   S    
C61   H33   S    
C5    N13   S    
C63   H35   S    
Ba1   O37   S    
N10   H56   S    
N17   H69   S    
O29   P1    S    
Ba4   P8    S    
C46   C62   S    
N18   H72   S    
N9    H54   S    
C19   C87   D    
C46   N18   S    
N15   H65   S    
C50   C54   D    
Ba3   O23   S    
C86   N10   S    
O37   P5    D    
N22   H79   S    
C18   P9    S    
C34   I26   S    
O41   P9    S    
O46   P10   D    
N24   H84   S    
C81   I1    S    
N8    H51   S    
C77   H5    S    
O44   P12   S    
Ba1   O41   S    
N5    H46   S    
C5    C53   S    
C48   N20   S    
C3    I31   S    
C8    C56   S    
C62   H26   S    
O17   P1    S    
Ba2   O13   S    
C48   N24   S    
C73   O29   S    
