data_mof_unit_25234.cif
_audit_creation_date              2013-03-05T16:34:12-0500
_audit_creation_method            fapswitch 2.2
_symmetry_space_group_name_H-M    P1
_symmetry_Int_Tables_number       1
_space_group_crystal_system       triclinic
_cell_length_a                    10.822942
_cell_length_b                    10.828838
_cell_length_c                    9.54166
_cell_angle_alpha                 89.861504
_cell_angle_beta                  90.076933
_cell_angle_gamma                 90.040073
_cell_volume                      1118.27691437

loop_
_atom_site_label
_atom_site_type_symbol
_atom_site_description
_atom_site_fract_x
_atom_site_fract_y
_atom_site_fract_z
_atom_type_partial_charge
O1    O     O_R   0.500000 0.319640 0.618810 -0.583397
O2    O     O_R   0.500010 0.319680 0.381230 -0.592157
C1    C     C_R   0.494228 0.262451 0.499799 0.811652
O3    O     O_R   0.319640 0.499990 0.618790 -0.580608
O4    O     O_R   0.319650 0.500030 0.381210 -0.570051
C2    C     C_R   0.262255 0.503216 0.499754 0.807778
Cu1   Cu    Cu3+1 0.499990 0.499980 0.640670 0.961986
Cu2   Cu    Cu3+1 0.500010 0.500020 0.359330 0.968449
O5    O     O_R   0.499990 0.680320 0.618770 -0.580255
O6    O     O_R   0.500000 0.680360 0.381190 -0.562152
O7    O     O_R   0.680350 0.499970 0.618790 -0.576547
O8    O     O_R   0.680360 0.500010 0.381210 -0.587969
C3    C     C_R   0.500886 0.737660 0.499542 0.817392
C4    C     C_R   0.737523 0.495630 0.500358 0.793044
H1    H     H_    0.271940 0.744928 0.927198 0.146537
C5    C     C_R   0.237585 0.770955 0.147439 -0.101332
H2    H     H_    0.286742 0.857906 0.152947 0.169914
C6    C     C_R   0.182114 0.721766 0.267568 -0.134512
H3    H     H_    0.188779 0.771069 0.365926 0.124537
C7    C     C_R   0.118733 0.608767 0.260179 0.127046
C8    C     C_R   0.111351 0.545896 0.131982 -0.168413
H4    H     H_    0.063682 0.458148 0.125330 0.128970
C9    C     C_R   0.167072 0.595201 0.012490 -0.156850
H5    H     H_    0.162343 0.546119 0.914005 0.144247
C10   C     C_R   0.229675 0.707620 0.020184 -0.075996
C11   C     C_R   0.932646 0.549149 0.389492 -0.247102
H6    H     H_    0.880658 0.590291 0.304832 0.157527
C12   C     C_R   0.871359 0.492640 0.501023 -0.086770
C13   C     C_R   0.938750 0.438397 0.611876 -0.011804
C14   C     C_R   0.066594 0.450275 0.612512 -0.201308
H7    H     H_    0.118718 0.409473 0.697663 0.197019
C15   C     C_R   0.128120 0.505480 0.499575 -0.084314
C16   C     C_R   0.060397 0.554420 0.385855 0.003623
C17   C     C_R   0.895470 0.383091 0.862499 -0.164205
H8    H     H_    0.944631 0.464898 0.895863 0.110400
C18   C     C_R   0.844138 0.304289 0.963167 -0.130029
H9    H     H_    0.854030 0.325322 0.073471 0.121496
C19   C     C_R   0.780893 0.197919 0.921434 -0.094623
H10   H     H_    0.742210 0.136261 0.999367 0.122025
C20   C     C_R   0.768525 0.170629 0.778992 -0.122721
H11   H     H_    0.721834 0.087112 0.746497 0.109053
C21   C     C_R   0.817284 0.250616 0.678089 -0.077730
H12   H     H_    0.807281 0.228049 0.568107 0.097651
C22   C     C_R   0.880937 0.357747 0.719155 0.147446
C23   C     C_R   0.429928 0.061192 0.606094 0.104489
C24   C     C_R   0.480630 0.129398 0.495398 -0.147293
C25   C     C_R   0.514421 0.065387 0.372724 -0.195743
H13   H     H_    0.544542 0.114133 0.279531 0.174024
C26   C     C_R   0.517798 0.936575 0.372437 -0.208563
H14   H     H_    0.546307 0.889699 0.278046 0.222116
C27   C     C_R   0.492711 0.870759 0.496278 -0.103480
C28   C     C_R   0.444821 0.935538 0.609167 0.064503
C29   C     C_3   0.466190 0.931243 0.763119 -0.504371
C30   C     C_3   0.435483 0.069025 0.762623 0.282602
H15   H     H_    0.399817 0.870948 0.818200 0.229672
H16   H     H_    0.564570 0.912997 0.789101 0.149175
H17   H     H_    0.509625 0.129786 0.803671 0.078515
C31   C     C_R   0.550668 0.596593 0.073144 0.260311
N1    N     N_R   0.500790 0.500930 0.147930 -0.224541
C32   C     C_R   0.440370 0.410822 0.074649 -0.059016
H18   H     H_    0.393572 0.337535 0.130490 0.180158
C33   C     C_R   0.441100 0.410636 0.925935 -0.058727
H19   H     H_    0.396069 0.337290 0.870406 0.211789
N2    N     N_R   0.500790 0.500890 0.852020 -0.192947
C34   C     C_R   0.548512 0.597442 0.925637 0.184855
C35   C     C_3   0.677204 0.643892 0.915263 -0.569414
C36   C     C_3   0.682749 0.638137 0.074624 0.226333
H20   H     H_    0.740453 0.577681 0.864209 0.200995
H21   H     H_    0.680249 0.738659 0.870887 0.196599
H22   H     H_    0.745651 0.565913 0.117167 0.092197
S1    S     S_3+6 0.284855 0.098901 0.834434 -0.038896
O9    O     O_2   0.230462 0.210906 0.764869 -0.339455
O10   O     O_2   0.199959 0.990993 0.810282 -0.292732
O11   O     O_3   0.298546 0.123632 0.007617 -0.582539
H23   H     H_    0.215640 0.151362 0.038071 0.367094
O12   O     O_3   0.694603 0.755063 0.138464 -0.576164
C37   C     C_3   0.815543 0.801799 0.118945 0.074629
H24   H     H_    0.819896 0.853747 0.018426 0.162558
H25   H     H_    0.887758 0.728462 0.116959 0.139956
C38   C     C_3   0.846362 0.890136 0.237697 -0.788549
H26   H     H_    0.840616 0.841089 0.339917 0.247674
H27   H     H_    0.941580 0.926496 0.224010 0.218359
H28   H     H_    0.780511 0.968806 0.237564 0.236878

loop_
_geom_bond_atom_site_label_1
_geom_bond_atom_site_label_2
_geom_bond_distance
_ccdc_geom_bond_type
C2    C15   1.451962 S    
C29   H15   1.103295 S    
C35   H20   1.106002 S    
Cu1   Cu2   2.684449 S    
C25   C26   1.395388 A    
C37   H24   1.111782 S    
Cu1   O7    1.963437 S    
C11   H6    1.079351 S    
C33   H19   1.072326 S    
C12   C13   1.411134 A    
C19   C20   1.397810 A    
C6    H3    1.083152 S    
C38   H28   1.111092 S    
Cu2   N1    2.017137 S    
C19   H10   1.082632 S    
O7    C4    1.290062 A    
H1    C10   1.076457 S    
C35   H21   1.109672 S    
C32   C33   1.419014 A    
C17   H8    1.081419 S    
O5    C3    1.294780 A    
C33   N2    1.366374 A    
C11   C16   1.384252 A    
C3    C27   1.444342 S    
C30   S1    1.799067 S    
C5    H2    1.082515 S    
C26   C27   1.405167 A    
C9    H5    1.081862 S    
C17   C18   1.398666 A    
C29   H16   1.110657 S    
C20   C21   1.397270 A    
C35   C36   1.522807 S    
N1    C32   1.367418 A    
C8    H4    1.082876 S    
C21   C22   1.405110 A    
O3    Cu1   1.962771 S    
C37   H25   1.114843 S    
O11   H23   0.990573 S    
C27   C28   1.388029 A    
C17   C22   1.404260 A    
O12   C37   1.415410 S    
C38   H27   1.110696 S    
S1    O10   1.503992 D    
C23   C28   1.370550 A    
C31   N1    1.367634 A    
C23   C24   1.399811 A    
C32   H18   1.080911 S    
O1    C1    1.296178 A    
C13   C14   1.389530 A    
O4    Cu2   1.963437 S    
C31   C34   1.407630 A    
C25   H13   1.083466 S    
C14   H7    1.082114 S    
Cu2   O8    1.962772 S    
C5    C6    1.398732 A    
C7    C16   1.476840 S    
O3    C2    1.294196 A    
C20   H11   1.081544 S    
O8    C4    1.294361 A    
C23   C30   1.497277 S    
C26   H14   1.080374 S    
C8    C9    1.395408 A    
C13   C22   1.482791 S    
C21   H12   1.083325 S    
C28   C29   1.487368 S    
C37   C38   1.521184 S    
C5    C10   1.398474 A    
Cu1   O5    1.963517 S    
C24   C25   1.410588 A    
C18   H9    1.082538 S    
O1    Cu1   1.964481 S    
O2    Cu2   1.963519 S    
C38   H26   1.111243 S    
O6    C3    1.289854 A    
S1    O11   1.680982 S    
C29   C30   1.528807 S    
C1    C24   1.448908 S    
C11   C12   1.394678 A    
C36   H22   1.112831 S    
N2    C34   1.362047 A    
C18   C19   1.397952 A    
O2    C1    1.290219 A    
S1    O9    1.501435 D    
C15   C16   1.411072 A    
C14   C15   1.400099 A    
O4    C2    1.291727 A    
C6    C7    1.404257 A    
C9    C10   1.394835 A    
Cu1   N2    2.016686 S    
C31   C36   1.498382 S    
C7    C8    1.403508 A    
Cu2   O6    1.964481 S    
C34   C35   1.483883 S    
C36   O12   1.412093 S    
C4    C12   1.448885 S    
C30   H17   1.109004 S    
