data_mof_unit_46545.cif
_audit_creation_date              2012-10-26T21:33:04-0400
_audit_creation_method            fapswitch 2.2
_symmetry_space_group_name_H-M    P1
_symmetry_Int_Tables_number       1
_space_group_crystal_system       triclinic
_cell_length_a                    28.304916
_cell_length_b                    18.735235
_cell_length_c                    17.100121
_cell_angle_alpha                 90.04108
_cell_angle_beta                  59.818001
_cell_angle_gamma                 90.046572
_cell_volume                      7838.83031041

loop_
_atom_site_label
_atom_site_type_symbol
_atom_type_description
_atom_site_fract_x
_atom_site_fract_y
_atom_site_fract_z
_atom_type_partial_charge
C1    C     C_R   0.703757 0.274135 0.674574 0.961640
C2    C     C_R   0.941689 0.627734 0.529213 -0.271671
C3    C     C_R   0.069569 0.895849 0.938066 0.929930
C4    C     C_R   0.576758 0.595940 0.930648 0.972748
C5    C     C_R   0.430309 0.395903 0.061989 0.927245
C6    C     C_R   0.423245 0.595846 0.069413 0.974336
C7    C     C_R   0.569569 0.395849 0.938065 0.929933
C8    C     C_R   0.551357 0.000314 0.493365 0.044097
C9    C     C_R   0.448370 0.000416 0.507349 0.043909
C10   C     C_R   0.051358 0.500314 0.493364 0.044098
C11   C     C_R   0.948370 0.500416 0.507348 0.043909
C12   C     C_R   0.526601 0.065554 0.493639 0.005036
C13   C     C_R   0.941638 0.373172 0.529568 -0.287454
C14   C     C_R   0.473203 0.935322 0.507011 0.008572
C15   C     C_R   0.473387 0.065618 0.506541 0.005141
C16   C     C_R   0.526220 0.935255 0.494361 0.006266
C17   C     C_R   0.026600 0.565554 0.493640 0.005036
C18   C     C_R   0.973204 0.435323 0.507009 0.008572
C19   C     C_R   0.973387 0.565618 0.506542 0.005141
C20   C     C_R   0.026221 0.435255 0.494359 0.006264
C21   C     C_R   0.627400 0.935289 0.489330 -0.109315
C22   C     C_R   0.372087 0.064819 0.511749 -0.108601
C23   C     C_R   0.372228 0.935496 0.511449 -0.107162
C24   C     C_R   0.058550 0.627516 0.470420 -0.271334
C25   C     C_R   0.627923 0.064616 0.488292 -0.109236
C26   C     C_R   0.127400 0.435289 0.489329 -0.109318
C27   C     C_R   0.872087 0.564819 0.511749 -0.108601
C28   C     C_R   0.872229 0.435497 0.511447 -0.107162
C29   C     C_R   0.127923 0.564616 0.488293 -0.109241
C30   C     C_R   0.669485 0.935996 0.512731 -0.163849
C31   C     C_R   0.330237 0.064011 0.487853 -0.171500
C32   C     C_R   0.330357 0.936086 0.487610 -0.164228
C33   C     C_R   0.669767 0.063923 0.512166 -0.171831
C34   C     C_R   0.169485 0.435996 0.512731 -0.163837
C35   C     C_R   0.557520 0.872947 0.472262 -0.285537
C36   C     C_R   0.830237 0.564011 0.487853 -0.171503
C37   C     C_R   0.830357 0.436086 0.487610 -0.164227
C38   C     C_R   0.169766 0.563923 0.512166 -0.171819
C39   C     C_R   0.685818 0.999991 0.532597 0.324296
C40   C     C_R   0.314157 0.000018 0.467486 0.323927
C41   C     C_R   0.185816 0.499991 0.532599 0.324297
C42   C     C_R   0.814156 0.500018 0.467487 0.323925
C43   C     C_R   0.601656 0.000085 0.492204 -0.069617
C44   C     C_R   0.398130 0.000254 0.508323 -0.070114
C45   C     C_R   0.101656 0.500085 0.492204 -0.069615
C46   C     C_R   0.441690 0.127734 0.529210 -0.271671
C47   C     C_R   0.898131 0.500255 0.508321 -0.070114
C48   C     C_R   0.109138 0.374118 0.462702 0.682241
C49   C     C_R   0.889745 0.625938 0.539476 0.682003
C50   C     C_R   0.890120 0.374446 0.538735 0.680188
C51   C     C_R   0.110488 0.625620 0.460157 0.681279
C52   C     C_R   0.609137 0.874118 0.462704 0.682235
C53   C     C_R   0.389745 0.125939 0.539474 0.682003
C54   C     C_R   0.390119 0.874446 0.538738 0.680194
C55   C     C_R   0.610488 0.125619 0.460154 0.681277
C56   C     C_R   0.441637 0.873172 0.529571 -0.287462
C57   C     C_R   0.558551 0.127516 0.470416 -0.271340
C58   C     C_R   0.721630 0.277640 0.955591 -0.268261
C59   C     C_R   0.280357 0.740187 0.047958 -0.234190
C60   C     C_R   0.277091 0.279664 0.045616 -0.329435
C61   C     C_R   0.300945 0.736772 0.323405 0.947219
C62   C     C_R   0.717313 0.744856 0.954029 -0.331228
C63   C     C_R   0.221631 0.777644 0.955588 -0.268281
C64   C     C_R   0.780358 0.240192 0.047958 -0.234188
C65   C     C_R   0.777093 0.779660 0.045613 -0.329431
C66   C     C_R   0.217311 0.244858 0.954031 -0.331230
C67   C     C_R   0.766739 0.230347 0.917214 0.496732
C68   C     C_R   0.229501 0.776260 0.092316 0.585728
C69   C     C_R   0.231244 0.233392 0.084179 0.625659
C70   C     C_R   0.768580 0.780048 0.909396 0.626127
C71   C     C_R   0.266743 0.730355 0.917207 0.496736
C72   C     C_R   0.296189 0.274226 0.325477 0.961461
C73   C     C_R   0.729504 0.276266 0.092316 0.585721
C74   C     C_R   0.731247 0.733388 0.084177 0.625656
C75   C     C_R   0.268578 0.280051 0.909398 0.626129
C76   C     C_R   0.800259 0.221067 0.956083 0.287292
C77   C     C_R   0.205842 0.804188 0.043595 0.283491
C78   C     C_R   0.197475 0.226118 0.046269 0.276314
C79   C     C_R   0.792851 0.806785 0.957831 0.281533
C80   C     C_R   0.300261 0.721070 0.956080 0.287291
C81   C     C_R   0.705843 0.304189 0.043596 0.283493
C82   C     C_R   0.697477 0.726115 0.046267 0.276314
C83   C     C_R   0.698951 0.736999 0.676575 0.944854
C84   C     C_R   0.292849 0.306789 0.957834 0.281534
C85   C     C_R   0.635716 0.317721 0.952417 -0.322325
C86   C     C_R   0.347627 0.662632 0.068769 -0.247963
C87   C     C_R   0.363637 0.318250 0.048019 -0.313786
C88   C     C_R   0.651477 0.664847 0.932452 -0.336161
C89   C     C_R   0.135717 0.817722 0.952416 -0.322331
C90   C     C_R   0.847628 0.162638 0.068770 -0.247934
C91   C     C_R   0.863638 0.818248 0.048018 -0.313789
C92   C     C_R   0.151478 0.164846 0.932453 -0.336164
C93   C     C_R   0.609564 0.338832 0.904417 -0.212557
C94   C     C_R   0.203757 0.774135 0.674574 0.961646
C95   C     C_R   0.380460 0.648661 0.107550 -0.260242
C96   C     C_R   0.390147 0.338978 0.095664 -0.214431
C97   C     C_R   0.619348 0.649193 0.892725 -0.235038
C98   C     C_R   0.109564 0.838831 0.904417 -0.212551
C99   C     C_R   0.880464 0.148670 0.107547 -0.260256
C100  C     C_R   0.890147 0.838978 0.095663 -0.214431
C101  C     C_R   0.119350 0.149188 0.892722 -0.235031
C102  C     C_R   0.628480 0.314812 0.818078 0.520612
C103  C     C_R   0.370710 0.682885 0.185269 0.504843
C104  C     C_R   0.371383 0.314765 0.181841 0.521258
C105  C     C_R   0.800947 0.236776 0.323405 0.947212
C106  C     C_R   0.629382 0.682597 0.814398 0.506794
C107  C     C_R   0.128480 0.814810 0.818079 0.520615
C108  C     C_R   0.870724 0.182905 0.185260 0.504852
C109  C     C_R   0.871383 0.814766 0.181841 0.521258
C110  C     C_R   0.129388 0.182587 0.814393 0.506785
C111  C     C_R   0.681766 0.291448 0.769387 -0.278646
C112  C     C_R   0.327468 0.728999 0.225697 -0.251435
C113  C     C_R   0.318010 0.291740 0.230814 -0.277002
C114  C     C_R   0.672157 0.729517 0.774300 -0.250309
C115  C     C_R   0.181766 0.791449 0.769386 -0.278638
C116  C     C_R   0.796189 0.774226 0.325476 0.961460
C117  C     C_R   0.827476 0.229012 0.225693 -0.251461
C118  C     C_R   0.818010 0.791739 0.230814 -0.276998
C119  C     C_R   0.172159 0.229511 0.774298 -0.250308
C120  C     C_R   0.715314 0.290859 0.809689 0.451999
C121  C     C_R   0.305086 0.758690 0.174956 0.430106
C122  C     C_R   0.284170 0.291830 0.191048 0.439521
C123  C     C_R   0.693715 0.760611 0.825515 0.458405
C124  C     C_R   0.215315 0.790864 0.809686 0.452002
C125  C     C_R   0.805092 0.258700 0.174953 0.430105
C126  C     C_R   0.784172 0.791827 0.191046 0.439518
C127  C     C_R   0.198952 0.236997 0.676574 0.944863
C128  C     C_R   0.193715 0.260609 0.825515 0.458407
C129  C     C_R   0.690702 0.295108 0.905752 0.051264
C130  C     C_R   0.311621 0.721577 0.096922 0.084032
C131  C     C_R   0.308481 0.296144 0.095053 0.049114
C132  C     C_R   0.686817 0.724576 0.904327 0.057830
C133  C     C_R   0.190703 0.795112 0.905749 0.051259
C134  C     C_R   0.811624 0.221586 0.096920 0.084038
C135  C     C_R   0.808482 0.796141 0.095052 0.049115
C136  C     C_R   0.186816 0.224575 0.904328 0.057829
C137  C     C_R   0.695652 0.128476 0.519735 0.938163
C138  C     C_R   0.057521 0.372948 0.472260 -0.285532
C139  C     C_R   0.304431 0.871529 0.480069 0.916842
C140  C     C_R   0.304357 0.128484 0.480231 0.939034
C141  C     C_R   0.695521 0.871522 0.520063 0.915681
C142  C     C_R   0.195652 0.628476 0.519736 0.938158
C143  C     C_R   0.804431 0.371529 0.480069 0.916837
C144  C     C_R   0.804356 0.628484 0.480231 0.939035
C145  C     C_R   0.195521 0.371522 0.520063 0.915681
C146  C     C_R   0.076759 0.095938 0.930647 0.972757
C147  C     C_R   0.930309 0.895903 0.061989 0.927247
C148  C     C_R   0.923245 0.095846 0.069413 0.974311
F1    F     F_    0.142576 0.319619 0.414504 -0.598748
F2    F     F_    0.202344 0.786547 0.183163 -0.546107
F3    F     F_    0.217429 0.195709 0.160477 -0.552606
F4    F     F_    0.795758 0.790299 0.818559 -0.546327
F5    F     F_    0.278450 0.691546 0.842491 -0.598370
F6    F     F_    0.702348 0.286557 0.183162 -0.546107
F7    F     F_    0.717431 0.695706 0.160475 -0.552605
F8    F     F_    0.295756 0.290303 0.818562 -0.546327
F9    F     F_    0.596845 0.321098 0.779283 -0.619896
F10   F     F_    0.400880 0.668016 0.225063 -0.616782
F11   F     F_    0.403253 0.320606 0.220271 -0.619974
F12   F     F_    0.855169 0.679105 0.589677 -0.610270
F13   F     F_    0.599828 0.666366 0.773864 -0.616938
F14   F     F_    0.096843 0.821093 0.779286 -0.619899
F15   F     F_    0.900891 0.168030 0.225064 -0.616761
F16   F     F_    0.903251 0.820609 0.220273 -0.619976
F17   F     F_    0.099839 0.166347 0.773853 -0.616941
F18   F     F_    0.856393 0.320178 0.586999 -0.605182
F19   F     F_    0.145261 0.678555 0.409695 -0.610353
F20   F     F_    0.642577 0.819619 0.414503 -0.598746
F21   F     F_    0.355170 0.179106 0.589675 -0.610272
F22   F     F_    0.356393 0.820176 0.586999 -0.605178
F23   F     F_    0.645263 0.178554 0.409692 -0.610354
F24   F     F_    0.778441 0.191532 0.842504 -0.598395
H1    H     H_    0.044377 0.324302 0.454647 0.192931
H2    H     H_    0.350707 0.626710 0.017108 0.252988
H3    H     H_    0.385693 0.324162 0.975487 0.252199
H4    H     H_    0.647831 0.630633 0.986014 0.250459
H5    H     H_    0.113529 0.823637 0.024958 0.251980
H6    H     H_    0.850703 0.126711 0.017116 0.252962
H7    H     H_    0.885695 0.824160 0.975487 0.252199
H8    H     H_    0.147830 0.130633 0.986017 0.250460
H9    H     H_    0.755338 0.000083 0.524886 0.360761
H10   H     H_    0.244726 0.000010 0.474870 0.361260
H11   H     H_    0.255330 0.500083 0.524909 0.360773
H12   H     H_    0.954771 0.676405 0.546887 0.193197
H13   H     H_    0.744722 0.500010 0.474884 0.361257
H14   H     H_    0.674995 0.393381 0.036091 0.338395
H15   H     H_    0.361746 0.689533 0.840544 0.398568
H16   H     H_    0.324572 0.395261 0.965414 0.338022
H17   H     H_    0.620622 0.726687 0.086246 0.345626
H18   H     H_    0.174992 0.893379 0.036093 0.338398
H19   H     H_    0.861730 0.189476 0.840558 0.398589
H20   H     H_    0.824574 0.895257 0.965410 0.338019
H21   H     H_    0.120620 0.226689 0.086247 0.345627
H22   H     H_    0.787381 0.318972 0.784803 0.343487
H23   H     H_    0.954531 0.324600 0.547661 0.189048
H24   H     H_    0.287585 0.850354 0.144924 0.350830
H25   H     H_    0.212357 0.321770 0.216765 0.345915
H26   H     H_    0.710595 0.853030 0.854974 0.349235
H27   H     H_    0.287379 0.818985 0.784801 0.343482
H28   H     H_    0.787588 0.350363 0.144921 0.350833
H29   H     H_    0.712359 0.821766 0.216762 0.345915
H30   H     H_    0.210591 0.353031 0.854976 0.349236
H31   H     H_    0.045649 0.676113 0.452388 0.193562
H32   H     H_    0.544376 0.824301 0.454649 0.192930
H33   H     H_    0.454773 0.176406 0.546882 0.193196
H34   H     H_    0.454530 0.824600 0.547663 0.189046
H35   H     H_    0.545650 0.176112 0.452382 0.193563
H36   H     H_    0.613528 0.323637 0.024959 0.251983
O1    O     O_R   0.746490 0.236330 0.638080 -0.530895
O2    O     O_R   0.325830 0.813840 0.483730 -0.580694
O3    O     O_R   0.325830 0.186160 0.483730 -0.578332
O4    O     O_R   0.674170 0.813840 0.516270 -0.580745
O5    O     O_R   0.174170 0.686160 0.516270 -0.578316
O6    O     O_R   0.825830 0.313840 0.483730 -0.580696
O7    O     O_R   0.825830 0.686160 0.483730 -0.578332
O8    O     O_R   0.174170 0.313840 0.516270 -0.580743
O9    O     O_R   0.739960 0.127620 0.525000 -0.613507
O10   O     O_R   0.260040 0.872380 0.475000 -0.616960
O11   O     O_R   0.260040 0.127620 0.475000 -0.613182
O12   O     O_R   0.253510 0.763670 0.361920 -0.528688
O13   O     O_R   0.739960 0.872380 0.525000 -0.617336
O14   O     O_R   0.239960 0.627620 0.525000 -0.613517
O15   O     O_R   0.760040 0.372380 0.475000 -0.616955
O16   O     O_R   0.760040 0.627620 0.475000 -0.613177
O17   O     O_R   0.239960 0.372380 0.525000 -0.617345
O18   O     O_R   0.680700 0.294870 0.629350 -0.585440
O19   O     O_R   0.319300 0.705130 0.370650 -0.584584
O20   O     O_R   0.319300 0.294870 0.370650 -0.585977
O21   O     O_R   0.680700 0.705130 0.629350 -0.583671
O22   O     O_R   0.180700 0.794870 0.629350 -0.585442
O23   O     O_R   0.253510 0.236330 0.361920 -0.531014
O24   O     O_R   0.819300 0.205130 0.370650 -0.584585
O25   O     O_R   0.819300 0.794870 0.370650 -0.585976
O26   O     O_R   0.180700 0.205130 0.629350 -0.583662
O27   O     O_R   0.062020 0.072840 0.007170 -0.626191
O28   O     O_R   0.937980 0.927160 0.992830 -0.636559
O29   O     O_R   0.937980 0.072840 0.992830 -0.622488
O30   O     O_R   0.062020 0.927160 0.007170 -0.634023
O31   O     O_R   0.562020 0.572840 0.007170 -0.626189
O32   O     O_R   0.437980 0.427160 0.992830 -0.636557
O33   O     O_R   0.437980 0.572840 0.992830 -0.622493
O34   O     O_R   0.746490 0.763670 0.638080 -0.529520
O35   O     O_R   0.562020 0.427160 0.007170 -0.634021
O36   O     O_R   0.947860 0.073950 0.109290 -0.547879
O37   O     O_R   0.052140 0.926050 0.890710 -0.563864
O38   O     O_R   0.052140 0.073950 0.890710 -0.545848
O39   O     O_R   0.947860 0.926050 0.109290 -0.563874
O40   O     O_R   0.447860 0.573950 0.109290 -0.547873
O41   O     O_R   0.552140 0.426050 0.890710 -0.563862
O42   O     O_R   0.552140 0.573950 0.890710 -0.545856
O43   O     O_R   0.447860 0.426050 0.109290 -0.563877
O44   O     O_3   0.716608 0.000043 0.574501 -0.692667
O45   O     O_R   0.246490 0.736330 0.638080 -0.530895
O46   O     O_3   0.283486 0.999961 0.425372 -0.692656
O47   O     O_3   0.216599 0.500043 0.574514 -0.692688
O48   O     O_3   0.783481 0.499961 0.425382 -0.692653
O49   O     O_3   0.668801 0.358715 0.084141 -0.673076
O50   O     O_3   0.352589 0.694391 0.904364 -0.730791
O51   O     O_3   0.330401 0.360814 0.917307 -0.676478
O52   O     O_3   0.645168 0.701700 0.102900 -0.673966
O53   O     O_3   0.168801 0.858715 0.084142 -0.673077
O54   O     O_3   0.852588 0.194388 0.904365 -0.730807
O55   O     O_3   0.830404 0.860810 0.917304 -0.676483
O56   O     O_R   0.753510 0.263670 0.361920 -0.528685
O57   O     O_3   0.145166 0.201703 0.102902 -0.673966
O58   O     O_3   0.771218 0.293040 0.753303 -0.619942
O59   O     O_3   0.281168 0.825092 0.200336 -0.646288
O60   O     O_3   0.228365 0.295120 0.247951 -0.615703
O61   O     O_3   0.717228 0.827238 0.799729 -0.651982
O62   O     O_3   0.271217 0.793052 0.753299 -0.619953
O63   O     O_3   0.781172 0.325101 0.200334 -0.646285
O64   O     O_3   0.728366 0.795116 0.247948 -0.615700
O65   O     O_3   0.217225 0.327239 0.799731 -0.651984
O66   O     O_R   0.753510 0.736330 0.361920 -0.531013
O67   O     O_R   0.246490 0.263670 0.638080 -0.529524
O68   O     O_R   0.674170 0.186160 0.516270 -0.578317
Zn1   Zn    Zn3+2 0.792340 0.208750 0.507670 1.155228
Zn2   Zn    Zn3+2 0.494040 0.500000 0.919480 1.106837
Zn3   Zn    Zn3+2 0.005960 0.000000 0.080520 1.108350
Zn4   Zn    Zn3+2 0.994040 0.000000 0.919480 1.106832
Zn5   Zn    Zn3+2 0.207660 0.791250 0.492330 1.163127
Zn6   Zn    Zn3+2 0.207660 0.208750 0.492330 1.160011
Zn7   Zn    Zn3+2 0.792340 0.791250 0.507670 1.162408
Zn8   Zn    Zn3+2 0.292340 0.708750 0.507670 1.155224
Zn9   Zn    Zn3+2 0.707660 0.291250 0.492330 1.163131
Zn10  Zn    Zn3+2 0.707660 0.708750 0.492330 1.160010
Zn11  Zn    Zn3+2 0.292340 0.291250 0.507670 1.162405
Zn12  Zn    Zn3+2 0.505960 0.500000 0.080520 1.108350

loop_
_geom_bond_atom_site_label_1
_geom_bond_atom_site_label_2
_ccdc_geom_bond_type
C46   H33   S    
C28   C47   A    
C72   O23   A    
O23   Zn6   S    
C36   C42   A    
O18   Zn9   S    
O67   Zn11  S    
O19   Zn8   S    
H15   O50   S    
O10   Zn5   S    
C61   O19   A    
C77   O53   S    
C13   C18   A    
C125  O63   S    
C63   C133  S    
C126  O64   S    
H11   O47   S    
C16   C35   A    
C90   C134  A    
C62   C70   A    
C37   C42   A    
H26   O61   S    
C92   H8    S    
C85   C129  A    
O15   Zn9   S    
C113  C122  A    
C33   C137  S    
C116  O25   A    
C6    O33   A    
C91   C100  A    
C88   C97   A    
O35   Zn12  S    
C40   O46   S    
C119  C128  A    
C24   C51   A    
C70   C79   A    
C100  C109  A    
C8    C16   A    
C48   F1    S    
C83   C114  S    
C102  C111  A    
C73   C81   A    
C109  C118  A    
O68   Zn9   S    
C7    C93   S    
C64   C134  S    
C82   O52   S    
C62   C132  S    
C89   C133  A    
C32   C139  S    
C101  C110  A    
C145  O17   A    
C72   C113  S    
H9    O44   S    
C29   C45   A    
C103  C112  A    
C86   H2    S    
H29   O64   S    
H30   O65   S    
C107  F14   S    
C70   F4    S    
H10   O46   S    
C65   C135  S    
C66   C136  S    
C124  C133  A    
C63   C71   A    
C96   C104  A    
C104  F11   S    
O17   Zn11  S    
C6    O40   A    
C68   C77   A    
C76   O54   S    
C2    C19   A    
C25   C55   A    
C142  O5    A    
C127  O67   A    
C59   C80   A    
C94   C115  S    
C48   C138  A    
O27   Zn3   S    
H25   O60   S    
C36   C144  S    
C139  O10   A    
C122  C131  A    
O1    Zn1   S    
C46   C53   A    
C4    O31   A    
C116  C118  S    
O37   Zn4   S    
C9    C15   A    
C128  O65   S    
C86   C95   A    
C58   C67   A    
C137  O9    A    
C100  C147  S    
C140  O3    A    
C141  O13   A    
C1    O18   A    
C11   C18   A    
C65   C79   A    
C5    O32   A    
C123  C132  A    
C51   F19   S    
H22   O58   S    
C121  C130  A    
C25   C43   A    
H13   O48   S    
C122  O60   S    
C99   C108  A    
C83   O34   A    
C124  O62   S    
C30   C141  S    
C75   C84   A    
C58   C129  S    
H16   O51   S    
C106  F13   S    
C87   C131  A    
C26   C45   A    
C85   C93   A    
C39   O44   S    
C29   C38   A    
C64   C73   A    
O66   Zn10  S    
C147  O28   A    
C4    C97   S    
C95   C103  A    
C120  O58   S    
C1    O1    A    
C120  C129  A    
C105  O24   A    
C38   C41   A    
O14   Zn8   S    
C10   C20   A    
C86   C130  A    
O36   Zn3   S    
C65   C74   A    
O8    Zn6   S    
C145  O8    A    
C8    C12   A    
C10   C45   A    
C49   F12   S    
C12   C57   A    
O25   Zn7   S    
O21   Zn10  S    
H27   O62   S    
C72   O20   A    
O32   Zn2   S    
C114  C123  A    
C90   C99   A    
C94   O22   A    
C29   C51   A    
C27   C47   A    
C146  O27   A    
O28   Zn4   S    
O33   Zn2   S    
C110  C119  A    
C53   F21   S    
C67   F24   S    
C87   H3    S    
C41   O47   S    
C88   H4    S    
C89   C98   A    
C112  C121  A    
C60   C69   A    
C30   C39   A    
O7    Zn7   S    
O39   Zn3   S    
C68   F2    S    
C3    O30   A    
C104  C113  A    
C56   H34   S    
O11   Zn6   S    
C6    C95   S    
O6    Zn1   S    
C148  O36   A    
C15   C46   A    
C31   C140  S    
C61   C112  S    
C117  C125  A    
C27   C49   A    
C25   C33   A    
C119  C127  S    
C125  C134  A    
C90   H6    S    
C24   H31   S    
C79   O55   S    
C54   F22   S    
C84   O51   S    
C11   C47   A    
C8    C43   A    
C99   C148  S    
O5    Zn5   S    
C11   C19   A    
C7    O41   A    
O42   Zn2   S    
H18   O53   S    
C128  C136  A    
C110  F17   S    
C35   H32   S    
H14   O49   S    
C31   C40   A    
C20   C138  A    
O26   Zn6   S    
C73   F6    S    
C50   F18   S    
O12   Zn5   S    
C26   C48   A    
C123  O61   S    
O9    Zn1   S    
C62   C82   A    
C105  C117  S    
C92   C136  A    
C34   C41   A    
C74   C82   A    
C108  C117  A    
C60   C131  S    
C55   F23   S    
C139  O2    A    
C66   C78   A    
C108  F15   S    
C148  O29   A    
C78   O57   S    
O13   Zn7   S    
C58   C81   A    
O4    Zn10  S    
C83   O21   A    
C23   C44   A    
O24   Zn1   S    
C9    C14   A    
H19   O54   S    
C140  O11   A    
C12   C15   A    
C138  H1    S    
C2    H12   S    
O38   Zn4   S    
C92   C101  A    
C97   C106  A    
C126  C135  A    
C94   O45   A    
C80   O50   S    
O43   Zn12  S    
O34   Zn7   S    
C5    C96   S    
C115  C124  A    
C37   C143  S    
H17   O52   S    
C109  F16   S    
C93   C102  A    
C103  F10   S    
C27   C36   A    
C21   C30   A    
C146  O38   A    
C137  O68   A    
O2    Zn8   S    
C23   C32   A    
H20   O55   S    
C1    C111  S    
O20   Zn11  S    
C105  O56   A    
C66   C75   A    
C74   F7    S    
C98   C107  A    
C91   C135  A    
C13   H23   S    
C35   C52   A    
C3    O37   A    
C3    C98   S    
H28   O63   S    
O16   Zn10  S    
O31   Zn12  S    
C59   C130  S    
C5    O43   A    
C61   O12   A    
O22   Zn5   S    
C33   C39   A    
C106  C114  A    
O56   Zn9   S    
C28   C37   A    
C143  O15   A    
C34   C145  S    
C10   C17   A    
C71   F5    S    
O41   Zn2   S    
C21   C43   A    
C28   C50   A    
C75   F8    S    
C26   C34   A    
C22   C44   A    
C91   H7    S    
C89   H5    S    
O45   Zn8   S    
C147  O39   A    
C38   C142  S    
C69   C78   A    
C102  F9    S    
C71   C80   A    
C22   C53   A    
C54   C56   A    
C101  C146  S    
C17   C24   A    
C22   C31   A    
C69   F3    S    
O29   Zn4   S    
O3    Zn11  S    
O30   Zn3   S    
O40   Zn12  S    
C13   C50   A    
C111  C120  A    
C2    C49   A    
C59   C68   A    
C42   O48   S    
C87   C96   A    
C64   C76   A    
C116  O66   A    
C9    C44   A    
C141  O4    A    
C107  C115  A    
C143  O6    A    
C14   C16   A    
C88   C132  A    
C23   C54   A    
C63   C77   A    
C127  O26   A    
C121  O59   S    
C144  O7    A    
C14   C56   A    
C57   H35   S    
C81   O49   S    
H21   O57   S    
C55   C57   A    
C4    O42   A    
C52   F20   S    
C60   C84   A    
C17   C19   A    
C18   C20   A    
C32   C40   A    
C144  O16   A    
C7    O35   A    
H24   O59   S    
C67   C76   A    
C118  C126  A    
C142  O14   A    
C21   C52   A    
C85   H36   S    
