data_mof_unit_36391.cif
_audit_creation_date              2013-03-05T15:40:11-0500
_audit_creation_method            fapswitch 2.2
_symmetry_space_group_name_H-M    P1
_symmetry_Int_Tables_number       1
_space_group_crystal_system       triclinic
_cell_length_a                    7.444267
_cell_length_b                    8.725907
_cell_length_c                    12.970563
_cell_angle_alpha                 89.975367
_cell_angle_beta                  79.798682
_cell_angle_gamma                 101.789902
_cell_volume                      811.142043415

loop_
_atom_site_label
_atom_site_type_symbol
_atom_site_description
_atom_site_fract_x
_atom_site_fract_y
_atom_site_fract_z
_atom_type_partial_charge
O1    O     O_R   0.621060 0.286250 0.492350 -0.582497
O2    O     O_R   0.378940 0.713750 0.507650 -0.582684
O3    O     O_R   0.306310 0.256580 0.512240 -0.602478
O4    O     O_R   0.693690 0.743420 0.487760 -0.602676
C1    C     C_R   0.455559 0.201070 0.502736 0.835708
C2    C     C_R   0.544435 0.798935 0.497307 0.835683
O5    O     O_R   0.631800 0.512400 0.642670 -0.601855
O6    O     O_R   0.368200 0.487600 0.357330 -0.601609
O7    O     O_R   0.317060 0.482730 0.662570 -0.556710
O8    O     O_R   0.682940 0.517270 0.337430 -0.556608
C3    C     C_R   0.467618 0.493702 0.700937 0.819226
C4    C     C_R   0.532383 0.506322 0.299066 0.819488
Cu1   Cu    Cu3+1 0.686350 0.517570 0.488220 0.965469
Cu2   Cu    Cu3+1 0.313650 0.482430 0.511780 0.965525
N1    N     N_2   0.033570 0.455950 0.529530 -0.213726
N2    N     N_2   0.966430 0.544050 0.470470 -0.213843
C5    C     C_R   0.549665 0.518087 0.186259 -0.127572
C6    C     C_R   0.450327 0.482031 0.813751 -0.127554
C7    C     C_R   0.258166 0.400115 0.983236 0.374156
C8    C     C_R   0.741738 0.600259 0.016794 0.374340
C9    C     C_R   0.282581 0.404800 0.874395 -0.177159
C10   C     C_R   0.717330 0.595514 0.125635 -0.176795
C11   C     C_R   0.600010 0.549802 0.860416 -0.212663
C12   C     C_R   0.400005 0.450289 0.139589 -0.212566
C13   C     C_R   0.587046 0.537203 0.968751 0.006285
C14   C     C_R   0.412918 0.463031 0.031265 0.006241
H1    H     H_    0.276215 0.384661 0.188932 0.198940
H2    H     H_    0.723866 0.615273 0.811053 0.198916
H3    H     H_    0.832799 0.647426 0.163393 0.204721
H4    H     H_    0.167062 0.352995 0.836645 0.204719
H5    H     H_    0.934983 0.380735 0.582039 0.228135
H6    H     H_    0.065016 0.619235 0.417943 0.228061
C15   C     C_2   0.434811 0.037878 0.523683 -0.233813
C16   C     C_2   0.565178 0.962143 0.476420 -0.233700
N3    N     N_R   0.074465 0.337275 0.042028 0.106575
O9    O     O_R   0.959090 0.232824 0.000980 -0.413313
O10   O     O_R   0.008416 0.406572 0.124626 -0.370036
N4    N     N_R   0.925355 0.663413 0.958018 0.106620
O11   O     O_R   0.040358 0.768279 0.999007 -0.413224
O12   O     O_R   0.991768 0.594097 0.875520 -0.369865
C17   C     C_R   0.283642 0.972503 0.612799 0.131328
C18   C     C_R   0.308534 0.011743 0.715083 -0.199702
C19   C     C_R   0.155330 0.989322 0.797090 -0.022816
C20   C     C_R   0.976617 0.926536 0.777783 -0.046960
C21   C     C_R   0.951400 0.883278 0.676809 -0.173686
C22   C     C_R   0.104112 0.907221 0.594222 -0.054455
H7    H     H_    0.444886 0.067919 0.730020 0.121645
H8    H     H_    0.174684 0.024831 0.874984 0.175273
H9    H     H_    0.857442 0.912145 0.840986 0.144700
H10   H     H_    0.812607 0.835875 0.662216 0.147991
H11   H     H_    0.081703 0.881970 0.515222 0.128855
C23   C     C_R   0.716290 0.027561 0.387293 0.131640
C24   C     C_R   0.896100 0.092010 0.405763 -0.054579
C25   C     C_R   0.048562 0.115926 0.323027 -0.173685
C26   C     C_R   0.022778 0.073537 0.222002 -0.046845
C27   C     C_R   0.843778 0.011647 0.202815 -0.022664
C28   C     C_R   0.690839 0.989234 0.284979 -0.200289
H12   H     H_    0.918878 0.116643 0.484768 0.128846
H13   H     H_    0.187569 0.162621 0.337534 0.147464
H14   H     H_    0.141730 0.087902 0.158664 0.144867
H15   H     H_    0.823970 0.976788 0.124881 0.175478
H16   H     H_    0.554218 0.933765 0.270109 0.121730

loop_
_geom_bond_atom_site_label_1
_geom_bond_atom_site_label_2
_geom_bond_distance
_ccdc_geom_bond_type
C20   H9    1.082427 S    
C4    C5    1.447667 S    
C25   H13   1.081193 S    
N4    O12   1.300244 A    
O7    Cu2   1.960483 S    
C3    C6    1.447723 S    
N1    H5    1.029052 S    
C24   H12   1.082533 S    
N2    H6    1.029052 S    
C6    C9    1.392827 A    
C8    N4    1.440827 S    
C17   C18   1.404710 A    
C25   C26   1.396846 A    
C16   C23   1.484614 S    
N3    O9    1.301669 A    
C12   H1    1.077909 S    
O6    C4    1.297208 A    
C19   C20   1.397520 A    
C19   H8    1.082182 S    
C26   H14   1.082416 S    
C26   C27   1.397389 A    
C15   C16   1.343910 D    
C15   C17   1.484661 S    
C28   H16   1.083627 S    
C27   H15   1.082040 S    
C7    N3    1.440873 S    
C24   C25   1.398185 A    
C23   C24   1.404092 A    
O5    C3    1.297229 A    
O7    C3    1.291027 A    
C23   C28   1.404429 A    
O2    C2    1.286650 A    
O3    Cu2   1.960289 S    
O8    C4    1.291021 A    
C21   H10   1.081276 S    
O1    C1    1.286632 A    
N1    N2    1.311386 D    
C7    C9    1.390579 A    
C8    C10   1.390572 A    
C18   H7    1.083764 S    
C11   C13   1.394057 A    
N4    O11   1.301691 A    
O2    Cu2   1.975634 S    
C5    C12   1.388355 A    
O1    Cu1   1.975634 S    
C8    C13   1.418708 A    
C6    C11   1.388378 A    
C21   C22   1.398178 A    
O5    Cu1   1.970900 S    
C20   C21   1.396979 A    
C7    C14   1.418685 A    
O4    C2    1.286771 A    
C9    H4    1.083556 S    
Cu1   N2    2.021542 S    
C10   H3    1.083569 S    
O4    Cu1   1.960289 S    
C27   C28   1.396161 A    
C5    C10   1.392823 A    
Cu2   N1    2.021543 S    
C17   C22   1.404205 A    
O6    Cu2   1.970899 S    
N3    O10   1.300246 A    
C13   C14   1.428649 A    
Cu1   Cu2   2.690183 S    
C22   H11   1.082616 S    
C11   H2    1.077848 S    
C2    C16   1.421408 S    
C18   C19   1.396187 A    
C12   C14   1.394034 A    
O3    C1    1.286740 A    
O8    Cu1   1.960481 S    
C1    C15   1.421395 S    
