data_mof_unit_42382.cif
_audit_creation_date              2013-03-05T15:40:46-0500
_audit_creation_method            fapswitch 2.2
_symmetry_space_group_name_H-M    P1
_symmetry_Int_Tables_number       1
_space_group_crystal_system       triclinic
_cell_length_a                    16.749962
_cell_length_b                    16.85146
_cell_length_c                    16.895948
_cell_angle_alpha                 67.931425
_cell_angle_beta                  67.537559
_cell_angle_gamma                 67.978966
_cell_volume                      3932.44131003

loop_
_atom_site_label
_atom_site_type_symbol
_atom_site_description
_atom_site_fract_x
_atom_site_fract_y
_atom_site_fract_z
_atom_type_partial_charge
O1    O     O_R   0.124540 0.978640 0.385460 -0.526788
O2    O     O_R   0.875460 0.021360 0.614540 -0.512587
O3    O     O_R   0.978640 0.385460 0.124540 -0.521581
O4    O     O_R   0.021360 0.614540 0.875460 -0.520784
O5    O     O_R   0.385460 0.124540 0.978640 -0.518768
O6    O     O_R   0.614540 0.875460 0.021360 -0.525473
O7    O     O_R   0.614540 0.021360 0.875460 -0.514028
O8    O     O_R   0.385460 0.978640 0.124540 -0.526955
O9    O     O_R   0.875460 0.614540 0.021360 -0.504891
O10   O     O_R   0.124540 0.385460 0.978640 -0.505935
O11   O     O_R   0.021360 0.875460 0.614540 -0.513825
O12   O     O_R   0.978640 0.124540 0.385460 -0.516346
Cu1   Cu    Cu3+1 0.995180 0.995180 0.424630 1.066053
Cu2   Cu    Cu3+1 0.004820 0.004820 0.575370 1.081946
Cu3   Cu    Cu3+1 0.995180 0.424630 0.995180 1.078928
Cu4   Cu    Cu3+1 0.004820 0.575370 0.004820 1.080655
Cu5   Cu    Cu3+1 0.424630 0.995180 0.995180 1.072698
Cu6   Cu    Cu3+1 0.575370 0.004820 0.004820 1.071965
C1    C     C_R   0.029021 0.828500 0.564202 0.823063
C2    C     C_R   0.970587 0.171485 0.435930 0.810733
C3    C     C_R   0.828224 0.563720 0.030452 0.809176
C4    C     C_R   0.171743 0.435945 0.970204 0.809018
C5    C     C_R   0.568885 0.017410 0.830583 0.821234
C6    C     C_R   0.435833 0.969793 0.172087 0.837228
C7    C     C_R   0.430781 0.169130 0.983528 0.831123
C8    C     C_R   0.568875 0.830353 0.017650 0.822492
C9    C     C_R   0.983270 0.430929 0.169254 0.815711
C10   C     C_R   0.016507 0.569087 0.830827 0.817693
C11   C     C_R   0.172394 0.968282 0.436310 0.828023
C12   C     C_R   0.828346 0.029371 0.564069 0.813281
O13   O     O_R   0.013780 0.867370 0.487190 -0.598611
O14   O     O_R   0.986220 0.132630 0.512810 -0.602110
O15   O     O_R   0.867370 0.487190 0.013780 -0.618769
O16   O     O_R   0.132630 0.512810 0.986220 -0.617936
O17   O     O_R   0.487190 0.013780 0.867370 -0.605337
O18   O     O_R   0.512810 0.986220 0.132630 -0.627799
O19   O     O_R   0.512810 0.132630 0.986220 -0.594114
O20   O     O_R   0.487190 0.867370 0.013780 -0.593145
O21   O     O_R   0.986220 0.512810 0.132630 -0.593869
O22   O     O_R   0.013780 0.487190 0.867370 -0.593597
O23   O     O_R   0.132630 0.986220 0.512810 -0.607213
O24   O     O_R   0.867370 0.013780 0.487190 -0.605681
H1    H     H_    0.483947 0.918889 0.807650 0.153664
H2    H     H_    0.589479 0.928798 0.229503 0.200810
H3    H     H_    0.102647 0.754121 0.419523 0.215278
H4    H     H_    0.893710 0.246555 0.580531 0.195591
H5    H     H_    0.752583 0.418864 0.108025 0.189348
H6    H     H_    0.248778 0.579103 0.893382 0.188936
H7    H     H_    0.236055 0.904651 0.586938 0.198535
H8    H     H_    0.754951 0.095132 0.417862 0.193063
H9    H     H_    0.504380 0.194687 0.089876 0.165233
H10   H     H_    0.491151 0.801552 0.918184 0.147257
H11   H     H_    0.087581 0.507365 0.195830 0.168554
H12   H     H_    0.912270 0.491774 0.805024 0.168640
H13   H     H_    0.404208 0.899262 0.733675 0.134757
H14   H     H_    0.658151 0.971666 0.297462 0.152605
H15   H     H_    0.092418 0.673517 0.338977 0.152796
H16   H     H_    0.903349 0.327580 0.661593 0.151635
H17   H     H_    0.671010 0.337431 0.098265 0.147526
H18   H     H_    0.329050 0.659843 0.905047 0.146298
H19   H     H_    0.312146 0.924007 0.665952 0.148831
H20   H     H_    0.681444 0.065229 0.340706 0.148619
H21   H     H_    0.583971 0.271495 0.108594 0.139384
H22   H     H_    0.413278 0.725662 0.898556 0.133106
H23   H     H_    0.104596 0.586941 0.272844 0.144002
H24   H     H_    0.895198 0.411908 0.728326 0.143014
C13   C     C_R   0.501861 0.946647 0.737191 -0.147692
C14   C     C_R   0.545698 0.952055 0.286784 -0.130761
C15   C     C_R   0.072537 0.699782 0.457526 -0.115849
C16   C     C_R   0.924482 0.300686 0.542915 -0.120911
C17   C     C_R   0.698262 0.456183 0.077792 -0.129238
C18   C     C_R   0.302059 0.541623 0.925014 -0.131451
C19   C     C_R   0.294756 0.928277 0.547655 -0.119121
C20   C     C_R   0.703590 0.060721 0.457696 -0.118137
C21   C     C_R   0.491295 0.265172 0.057585 -0.146131
C22   C     C_R   0.505789 0.731585 0.949239 -0.144039
C23   C     C_R   0.054761 0.493501 0.266411 -0.141879
C24   C     C_R   0.944572 0.505973 0.734346 -0.141349
C25   C     C_R   0.554477 0.992147 0.552183 0.041037
C26   C     C_R   0.461156 0.965042 0.459812 0.043442
C27   C     C_R   0.006000 0.549727 0.548073 0.040192
C28   C     C_R   0.992059 0.450239 0.452693 0.039754
C29   C     C_R   0.548976 0.546041 0.010342 0.037765
C30   C     C_R   0.449737 0.451061 0.995096 0.036762
C31   C     C_R   0.587157 0.006379 0.459086 0.037011
C32   C     C_R   0.426346 0.953852 0.552615 0.038282
C33   C     C_R   0.967326 0.477123 0.594853 0.044930
C34   C     C_R   0.030901 0.522698 0.405985 0.045148
C35   C     C_R   0.477173 0.592615 0.970953 0.047127
C36   C     C_R   0.521326 0.404286 0.034827 0.043885
C37   C     C_R   0.545311 0.983819 0.414988 0.042292
C38   C     C_R   0.477146 0.960459 0.599691 0.048676
C39   C     C_R   0.426385 0.545176 0.964547 0.037367
C40   C     C_R   0.572590 0.451878 0.040633 0.036445
C41   C     C_R   0.961681 0.426170 0.547060 0.035742
C42   C     C_R   0.036031 0.573904 0.453724 0.036092
C43   C     C_R   0.455284 0.933615 0.692862 -0.194525
C44   C     C_R   0.588401 0.972344 0.329538 -0.218047
C45   C     C_R   0.069355 0.649627 0.410244 -0.187644
C46   C     C_R   0.927463 0.350908 0.590372 -0.184748
C47   C     C_R   0.647789 0.408620 0.074706 -0.192675
C48   C     C_R   0.352019 0.588742 0.929210 -0.193401
C49   C     C_R   0.342955 0.934177 0.595315 -0.196320
C50   C     C_R   0.659621 0.044548 0.412601 -0.202295
C51   C     C_R   0.537127 0.311228 0.069959 -0.190416
C52   C     C_R   0.460517 0.685573 0.936631 -0.190934
C53   C     C_R   0.066220 0.539394 0.312701 -0.187620
C54   C     C_R   0.932870 0.460008 0.688223 -0.187417
C55   C     C_R   0.570118 0.990668 0.691665 0.018876
C56   C     C_R   0.453625 0.954452 0.321497 0.009256
C57   C     C_R   0.042798 0.677421 0.550694 0.002711
C58   C     C_R   0.955272 0.322753 0.449761 0.004846
C59   C     C_R   0.676224 0.549250 0.047456 0.004224
C60   C     C_R   0.323370 0.448781 0.955986 0.004700
C61   C     C_R   0.325311 0.944833 0.454324 0.007133
C62   C     C_R   0.679077 0.036779 0.551250 0.007844
C63   C     C_R   0.427712 0.309448 0.009120 0.013388
C64   C     C_R   0.570489 0.688104 0.996062 0.020929
C65   C     C_R   0.007074 0.428754 0.310492 0.014505
C66   C     C_R   0.991861 0.571100 0.690055 0.015165
C67   C     C_R   0.609438 0.017542 0.735833 -0.229080
C68   C     C_R   0.403920 0.948330 0.272190 -0.213114
C69   C     C_R   0.041736 0.730310 0.600122 -0.209321
C70   C     C_R   0.957127 0.269723 0.400121 -0.212121
C71   C     C_R   0.729412 0.599128 0.045448 -0.213459
C72   C     C_R   0.270281 0.399700 0.956773 -0.212872
C73   C     C_R   0.273738 0.944598 0.403933 -0.212580
C74   C     C_R   0.729700 0.042082 0.599392 -0.212079
C75   C     C_R   0.389190 0.263681 0.983607 -0.235073
C76   C     C_R   0.609768 0.734906 0.019520 -0.226206
C77   C     C_R   0.982934 0.389531 0.264251 -0.230055
C78   C     C_R   0.016355 0.610425 0.735988 -0.229181
C79   C     C_R   0.688521 0.045189 0.687943 0.270452
C80   C     C_R   0.320242 0.927557 0.319253 0.267294
C81   C     C_R   0.041669 0.690527 0.689558 0.273360
C82   C     C_R   0.957610 0.309415 0.310540 0.274264
C83   C     C_R   0.689624 0.688811 0.045154 0.271132
C84   C     C_R   0.309814 0.310137 0.957086 0.268124
C85   C     C_R   0.600722 0.007464 0.598294 0.076649
C86   C     C_R   0.412966 0.955265 0.411610 0.073575
C87   C     C_R   0.014252 0.599020 0.596200 0.079671
C88   C     C_R   0.984067 0.400993 0.404407 0.079699
C89   C     C_R   0.598104 0.594351 0.018790 0.079580
C90   C     C_R   0.400678 0.403167 0.986127 0.080153
N1    N     N_R   0.725787 0.080192 0.727316 0.146755
O25   O     O_R   0.723621 0.164033 0.697855 -0.367786
O26   O     O_R   0.776014 0.026418 0.779358 -0.299051
N2    N     N_R   0.293932 0.871324 0.291562 0.151524
O27   O     O_R   0.350554 0.832652 0.230142 -0.335722
O28   O     O_R   0.228631 0.836006 0.344399 -0.377404
N3    N     N_R   0.070313 0.730727 0.731756 0.145390
O29   O     O_R   0.154033 0.730816 0.706507 -0.377971
O30   O     O_R   0.011126 0.779589 0.783699 -0.300577
N4    N     N_R   0.929494 0.269052 0.268049 0.146717
O31   O     O_R   0.989046 0.220339 0.216123 -0.311611
O32   O     O_R   0.845901 0.268626 0.293042 -0.378683
N5    N     N_R   0.729618 0.731541 0.073602 0.148855
O33   O     O_R   0.779468 0.783044 0.014974 -0.300896
O34   O     O_R   0.728983 0.706819 0.156575 -0.349239
N6    N     N_R   0.270337 0.268039 0.927355 0.153057
O35   O     O_R   0.272056 0.293172 0.844010 -0.338892
O36   O     O_R   0.220119 0.216514 0.985077 -0.308566

loop_
_geom_bond_atom_site_label_1
_geom_bond_atom_site_label_2
_geom_bond_distance
_ccdc_geom_bond_type
C25   C85   1.426816 A    
C34   C42   1.426229 A    
N5    O33   1.302715 A    
C9    C77   1.489156 S    
H11   C23   1.079319 S    
C21   C63   1.404612 A    
C73   C80   1.423247 A    
H14   C44   1.081481 S    
C28   C88   1.430979 A    
C1    O13   1.294334 A    
N1    O25   1.300817 A    
C31   C37   1.415159 A    
C5    C67   1.480457 S    
O10   C4    1.302461 A    
C1    C69   1.493802 S    
C6    O18   1.286720 A    
C81   N3    1.437194 S    
H19   C49   1.077990 S    
O9    Cu4   1.952455 S    
N2    O28   1.300110 A    
C58   C70   1.423174 A    
O10   Cu3   1.952454 S    
H8    C20   1.080619 S    
C60   C72   1.417463 A    
O11   Cu2   1.967200 S    
O7    C5    1.297422 A    
C4    C72   1.486847 S    
C3    O15   1.292352 A    
C30   C90   1.426197 A    
Cu3   Cu4   2.672776 S    
H15   C45   1.076161 S    
C42   C45   1.412757 A    
C18   C60   1.399186 A    
C61   C73   1.427659 A    
C17   C59   1.401782 A    
C24   C54   1.389185 A    
Cu6   O19   1.971345 S    
C58   C88   1.411885 A    
C68   C80   1.423527 A    
C29   C35   1.420094 A    
C26   C32   1.412721 A    
O4    C10   1.299831 A    
C13   C55   1.408652 A    
C33   C54   1.411450 A    
C40   C47   1.414067 A    
C9    O21   1.294381 A    
C33   C41   1.427756 A    
C35   C52   1.407576 A    
C65   C77   1.428485 A    
N3    O29   1.300918 A    
H21   C51   1.076591 S    
C63   C75   1.425664 A    
N4    O32   1.300901 A    
C8    C76   1.486405 S    
C30   C39   1.417281 A    
C62   C85   1.411486 A    
Cu4   O16   1.958480 S    
C27   C87   1.431728 A    
C17   C47   1.390364 A    
C7    C75   1.480714 S    
N5    O34   1.300803 A    
Cu1   Cu2   2.680289 S    
C35   C39   1.421202 A    
O12   C2    1.307744 A    
C55   C85   1.409603 A    
C30   C36   1.420752 A    
H6    C18   1.081284 S    
H18   C48   1.075663 S    
C32   C49   1.406750 A    
C6    C68   1.507175 S    
Cu1   O24   1.953250 S    
N1    O26   1.302667 A    
C16   C46   1.390647 A    
C38   C43   1.401958 A    
C36   C40   1.424781 A    
H20   C50   1.081094 S    
C4    O16   1.292956 A    
O6    Cu6   1.967324 S    
C12   C74   1.486388 S    
C2    C70   1.493024 S    
C70   C82   1.404375 A    
H3    C15   1.078046 S    
H17   C47   1.076310 S    
C23   C53   1.388234 A    
C63   C90   1.409698 A    
H16   C46   1.076057 S    
N2    O27   1.301418 A    
C64   C89   1.410416 A    
Cu2   O14   1.972533 S    
C27   C42   1.418851 A    
C13   C43   1.384367 A    
C41   C46   1.414120 A    
C8    O20   1.289616 A    
H10   C22   1.068755 S    
C26   C86   1.429996 A    
C29   C40   1.417764 A    
C57   C69   1.424145 A    
C22   C64   1.400474 A    
C59   C89   1.409369 A    
C69   C81   1.403884 A    
C10   C78   1.488605 S    
C60   C90   1.410788 A    
O4    Cu4   1.969745 S    
C24   C66   1.404884 A    
C64   C76   1.426616 A    
C82   N4    1.437134 S    
C79   N1    1.438185 S    
O7    Cu6   1.966934 S    
C20   C62   1.406766 A    
H13   C43   1.078502 S    
O1    C11   1.311401 A    
Cu5   Cu6   2.658893 S    
C25   C38   1.417508 A    
C14   C56   1.415620 A    
O12   Cu1   1.967200 S    
H5    C17   1.081187 S    
N4    O31   1.302681 A    
C27   C33   1.420444 A    
C31   C50   1.407549 A    
C16   C58   1.401869 A    
Cu2   O23   1.953251 S    
O5    C7    1.292284 A    
C15   C45   1.388924 A    
N6    O36   1.302717 A    
C21   C51   1.388078 A    
C5    O17   1.283295 A    
C11   C73   1.512115 S    
C75   C84   1.411541 A    
H7    C19   1.078017 S    
H2    C14   1.074802 S    
O1    Cu1   1.949492 S    
C3    C71   1.487342 S    
C25   C31   1.410110 A    
O3    Cu3   1.969743 S    
H9    C21   1.079695 S    
C20   C50   1.390152 A    
C2    O14   1.294922 A    
C34   C53   1.411514 A    
C72   C84   1.401298 A    
C22   C52   1.382047 A    
C28   C41   1.419318 A    
C11   O23   1.300155 A    
C66   C78   1.429491 A    
Cu1   O13   1.972534 S    
C66   C87   1.412044 A    
C36   C51   1.410982 A    
H24   C54   1.076288 S    
C23   C65   1.404097 A    
C39   C48   1.414290 A    
H22   C52   1.076035 S    
C80   N2    1.454280 S    
O8    Cu5   1.966932 S    
C19   C61   1.409321 A    
C83   N5    1.437401 S    
O2    C12   1.309969 A    
C71   C83   1.403482 A    
N6    O35   1.301239 A    
C77   C82   1.413091 A    
C26   C37   1.413952 A    
C56   C86   1.413667 A    
C32   C38   1.422611 A    
C74   C79   1.400052 A    
C56   C68   1.434176 A    
C29   C89   1.428177 A    
C15   C57   1.401396 A    
O9    C3    1.303598 A    
O6    C8    1.294292 A    
C18   C48   1.386260 A    
C78   C81   1.412991 A    
C28   C34   1.419975 A    
C59   C71   1.420674 A    
O3    C9    1.299300 A    
O8    C6    1.308882 A    
Cu3   O15   1.958481 S    
Cu5   O20   1.971344 S    
N3    O30   1.302707 A    
C37   C44   1.396990 A    
O11   C1    1.308533 A    
O2    Cu2   1.949492 S    
C14   C44   1.383522 A    
Cu3   O22   1.973138 S    
H4    C16   1.080887 S    
C57   C87   1.412358 A    
Cu4   O21   1.973137 S    
C84   N6    1.437437 S    
C19   C49   1.388262 A    
O5    Cu5   1.967323 S    
C61   C86   1.412770 A    
H1    C13   1.067668 S    
C62   C74   1.423761 A    
C65   C88   1.412570 A    
C10   O22   1.293585 A    
C12   O24   1.289344 A    
C55   C67   1.431412 A    
Cu5   O17   1.966752 S    
C67   C79   1.409581 A    
C76   C83   1.410981 A    
Cu6   O18   1.966750 S    
H23   C53   1.076388 S    
C7    O19   1.288882 A    
H12   C24   1.079208 S    
