data_mof_unit_53984.cif
_audit_creation_date              2012-12-10T17:47:14-0500
_audit_creation_method            fapswitch 2.2
_symmetry_space_group_name_H-M    P1
_symmetry_Int_Tables_number       1
_space_group_crystal_system       triclinic
_cell_length_a                    11.674788
_cell_length_b                    14.813767
_cell_length_c                    14.819452
_cell_angle_alpha                 64.327282
_cell_angle_beta                  105.044921
_cell_angle_gamma                 102.199175
_cell_volume                      2216.36441694

loop_
_atom_site_label
_atom_site_type_symbol
_atom_type_description
_atom_site_fract_x
_atom_site_fract_y
_atom_site_fract_z
_atom_type_partial_charge
C1    C     C_R   0.483560 0.119672 0.312192 0.839372
C2    C     C_R   0.512709 0.880785 0.687776 0.829329
C3    C     C_R   0.451788 0.326704 0.998663 0.053536
C4    C     C_R   0.502118 0.678301 0.000048 0.062407
C5    C     C_R   0.474318 0.466967 0.051840 0.099904
C6    C     C_R   0.457510 0.535423 0.947947 0.083149
C7    C     C_R   0.421897 0.495644 0.872549 -0.183404
C8    C     C_R   0.504015 0.506426 0.127462 -0.217422
C9    C     C_R   0.424154 0.394460 0.896997 -0.197149
C10   C     C_R   0.514130 0.609146 0.102011 -0.223462
C11   C     C_R   0.727503 0.297864 0.640367 -0.355553
C12   C     C_R   0.311557 0.727245 0.317995 -0.359660
C13   C     C_R   0.681876 0.208949 0.626046 0.443696
C14   C     C_R   0.335979 0.802782 0.355414 0.454065
C15   C     C_R   0.510375 0.285740 0.511413 0.053070
C16   C     C_R   0.489215 0.713669 0.487767 0.070469
C17   C     C_R   0.559375 0.381224 0.515969 -0.081608
C18   C     C_R   0.474249 0.640027 0.445860 -0.072977
C19   C     C_R   0.668895 0.384109 0.584054 0.114384
C20   C     C_R   0.380192 0.646910 0.362087 0.107542
C21   C     C_R   0.503177 0.472929 0.459155 0.090607
C22   C     C_R   0.544862 0.557064 0.486588 0.103186
C23   C     C_R   0.284391 0.000297 0.499788 0.812581
C24   C     C_R   0.715613 0.999716 0.500230 0.830522
C25   C     C_R   0.659877 0.558536 0.546945 -0.186201
C26   C     C_R   0.414242 0.487459 0.370737 -0.213188
C27   C     C_R   0.720012 0.473468 0.595522 -0.171105
C28   C     C_R   0.354501 0.572922 0.322940 -0.180955
C29   C     C_1   0.162699 0.000527 0.499933 -0.175366
C30   C     C_1   0.837334 0.999603 0.500083 -0.169785
C31   C     C_1   0.060051 0.000359 0.500000 0.003710
C32   C     C_1   0.940023 0.999905 0.500039 -0.002564
C33   C     C_R   0.478364 0.188406 0.203582 -0.139861
C34   C     C_R   0.504881 0.814676 0.795916 -0.157478
C35   C     C_R   0.464613 0.224717 0.024313 0.180172
C36   C     C_R   0.516520 0.783814 0.973962 0.192072
C37   C     C_R   0.483361 0.156395 0.127759 0.223566
C38   C     C_R   0.515116 0.852101 0.871312 0.225629
C39   C     C_R   0.470867 0.289950 0.176952 -0.302958
C40   C     C_R   0.482916 0.710970 0.822479 -0.321165
C41   C     C_R   0.466129 0.361598 0.076620 0.040313
C42   C     C_R   0.477838 0.641340 0.922577 0.050800
Cu1   Cu    Cu3+1 0.469550 0.918260 0.475690 0.985102
Cu2   Cu    Cu3+1 0.530450 0.081740 0.524310 0.985903
H1    H     H_    0.402663 0.370225 0.834837 0.168855
H2    H     H_    0.536168 0.633384 0.164196 0.164301
H3    H     H_    0.707497 0.626557 0.554132 0.159276
H4    H     H_    0.394157 0.436569 0.333185 0.160969
H5    H     H_    0.474757 0.685458 0.763620 0.214168
H6    H     H_    0.465175 0.311500 0.236014 0.207814
H7    H     H_    0.391259 0.541039 0.793315 0.184803
H8    H     H_    0.523772 0.460274 0.207893 0.145063
H9    H     H_    0.807007 0.477481 0.643409 0.141732
H10   H     H_    0.285978 0.580195 0.255638 0.142197
H11   H     H_    0.809547 0.300121 0.694553 0.150791
H12   H     H_    0.238683 0.730880 0.254427 0.156994
N1    N     N_R   0.576230 0.204580 0.560790 -0.232373
N2    N     N_R   0.423770 0.795420 0.439210 -0.238954
O1    O     O_R   0.459870 0.022090 0.338120 -0.526463
O2    O     O_R   0.540130 0.977910 0.661880 -0.540126
O3    O     O_R   0.511290 0.160150 0.379180 -0.562011
O4    O     O_R   0.488710 0.839850 0.620820 -0.577959
O5    O     O_R   0.311490 0.930960 0.479480 -0.586453
O6    O     O_R   0.688510 0.069040 0.520520 -0.557916
O7    O     O_R   0.362910 0.069020 0.520540 -0.556928
O8    O     O_R   0.637090 0.930980 0.479460 -0.535044
N3    N     N_2   0.527188 0.958006 0.844708 -0.424291
H13   H     H_    0.580497 0.982025 0.899317 0.263551
C43   C     C_3   0.416805 0.003920 0.799552 -0.592056
H14   H     H_    0.367103 0.990089 0.859543 0.207451
H15   H     H_    0.359148 0.973947 0.743828 0.221110
H16   H     H_    0.437412 0.086498 0.758441 0.227325
N4    N     N_2   0.505282 0.055782 0.154929 -0.407919
H17   H     H_    0.469887 0.028498 0.099067 0.271317
C44   C     C_3   0.627829 0.035372 0.200166 -0.622759
H18   H     H_    0.685936 0.077039 0.142860 0.206785
H19   H     H_    0.633186 0.953395 0.228127 0.222674
H20   H     H_    0.661576 0.057500 0.265796 0.213028
N5    N     N_2   0.462495 0.190167 0.947720 -0.450538
H21   H     H_    0.386712 0.202191 0.891613 0.247502
C45   C     C_3   0.571875 0.216899 0.908558 -0.671627
H22   H     H_    0.587667 0.299643 0.865219 0.237556
H23   H     H_    0.565526 0.179317 0.856694 0.223925
H24   H     H_    0.649058 0.191810 0.971806 0.231395
N6    N     N_2   0.535828 0.822703 0.050127 -0.442096
H25   H     H_    0.607364 0.797336 0.108485 0.244502
C46   C     C_3   0.429784 0.819313 0.085370 -0.702890
H26   H     H_    0.386528 0.740881 0.117930 0.227391
H27   H     H_    0.364854 0.866017 0.021746 0.233989
H28   H     H_    0.454485 0.849051 0.145680 0.230729
C47   C     C_2   0.556580 0.690542 0.592978 0.853095
O9    O     O_2   0.525988 0.612435 0.661464 -0.650690
O10   O     O_R   0.660916 0.750545 0.613332 -0.748590
H29   H     H_    0.699749 0.724082 0.688233 0.316075
C48   C     C_2   0.381612 0.267526 0.472769 0.879017
O11   O     O_2   0.309790 0.265056 0.521150 -0.606510
O12   O     O_R   0.341435 0.256271 0.380396 -0.780321
H30   H     H_    0.251146 0.245701 0.362077 0.320023
N7    N     N_2   0.263966 0.883545 0.311274 -0.365957
H31   H     H_    0.195097 0.869959 0.348749 0.248594
C49   C     C_3   0.226505 0.926816 0.201412 -0.713390
H32   H     H_    0.298240 0.930127 0.163292 0.235273
H33   H     H_    0.205285 0.004688 0.176381 0.236187
H34   H     H_    0.145215 0.881614 0.177758 0.203562
N8    N     N_2   0.741605 0.121136 0.683643 -0.372710
H35   H     H_    0.725690 0.084388 0.757016 0.240960
C50   C     C_3   0.866598 0.132080 0.679409 -0.671778
H36   H     H_    0.896572 0.056202 0.710377 0.226843
H37   H     H_    0.921883 0.173108 0.726159 0.199946
H38   H     H_    0.880343 0.172862 0.599339 0.248353

loop_
_geom_bond_atom_site_label_1
_geom_bond_atom_site_label_2
_ccdc_geom_bond_type
C21   C26   A    
C4    C36   A    
C9    H1    S    
O10   H29   S    
Cu1   O1    S    
C50   H37   S    
N4    H17   S    
C48   O11   D    
Cu1   Cu2   S    
C45   H22   S    
Cu1   O5    S    
C14   N7    S    
C39   C41   A    
N6    H25   S    
Cu2   O6    S    
N8    C50   S    
C11   C19   A    
C33   C39   A    
C34   C40   A    
C23   C29   S    
C35   C37   A    
C1    O1    A    
C15   C48   S    
C5    C6    A    
C2    O2    A    
C13   N1    A    
C40   H5    S    
C7    C9    A    
C43   H15   S    
C5    C41   A    
Cu1   N2    S    
C31   C32   S    
C22   C25   A    
C10   H2    S    
C50   H36   S    
C19   C27   A    
C8    H8    S    
C24   O8    A    
C2    C34   S    
C23   O5    A    
C49   H33   S    
C34   C38   A    
C21   C22   A    
N4    C44   S    
Cu2   O7    S    
C45   H23   S    
O12   H30   S    
C24   C30   S    
N6    C46   S    
C14   N2    A    
C1    C33   S    
N3    H13   S    
C49   H32   S    
C13   N8    S    
C47   O9    D    
N5    C45   S    
C28   H10   S    
C20   C28   A    
C33   C37   A    
N3    C43   S    
C43   H16   S    
C44   H18   S    
C3    C9    A    
C47   O10   S    
N7    H31   S    
C3    C35   A    
Cu2   N1    S    
C12   C20   A    
C27   H9    S    
C16   N2    A    
C44   H19   S    
C12   H12   S    
C16   C47   S    
C16   C18   A    
N7    C49   S    
C12   C14   A    
C49   H34   S    
C46   H27   S    
Cu2   O3    S    
C50   H38   S    
C4    C10   A    
C45   H24   S    
C11   H11   S    
C15   C17   A    
C37   N4    S    
C25   H3    S    
C3    C41   A    
C18   C22   A    
C40   C42   A    
C1    O3    A    
C5    C8    A    
C48   O12   S    
C6    C7    A    
C26   H4    S    
C36   N6    S    
C25   C27   A    
N8    H35   S    
C26   C28   A    
C23   O7    A    
C36   C38   A    
C7    H7    S    
C29   C31   T    
C30   C32   T    
C11   C13   A    
C4    C42   A    
Cu2   O2    S    
Cu1   O8    S    
C15   N1    A    
C35   N5    S    
C17   C19   A    
C24   O6    A    
C18   C20   A    
C43   H14   S    
C44   H20   S    
C17   C21   A    
N5    H21   S    
C39   H6    S    
C38   N3    S    
C46   H26   S    
C8    C10   A    
C6    C42   A    
C46   H28   S    
C2    O4    A    
Cu1   O4    S    
