data_mof_unit_62397.cif
_audit_creation_date              2012-10-26T18:04:18-0400
_audit_creation_method            fapswitch 2.2
_symmetry_space_group_name_H-M    P1
_symmetry_Int_Tables_number       1
_space_group_crystal_system       triclinic
_cell_length_a                    38.746718
_cell_length_b                    32.238511
_cell_length_c                    21.424184
_cell_angle_alpha                 90.000634
_cell_angle_beta                  123.663613
_cell_angle_gamma                 90.000147
_cell_volume                      22273.9571199

loop_
_atom_site_label
_atom_site_type_symbol
_atom_type_description
_atom_site_fract_x
_atom_site_fract_y
_atom_site_fract_z
_atom_type_partial_charge
C1    C     C_R   0.920421 0.000006 0.420324 0.558463
C2    C     C_R   0.271956 0.981642 0.819564 -0.119620
C3    C     C_R   0.975197 0.228420 0.932643 -0.104287
C4    C     C_R   0.521529 0.728421 0.067944 -0.104133
C5    C     C_R   0.478472 0.728420 0.932056 -0.104134
C6    C     C_R   0.000001 0.206550 1.000000 0.037806
C7    C     C_R   0.500001 0.706550 0.000000 0.037991
C8    C     C_1   0.500000 0.838520 0.999999 -0.055020
C9    C     C_1   0.000000 0.338520 0.999999 -0.055265
C10   C     C_3   0.018772 0.965317 0.789659 -0.120634
C11   C     C_3   0.981360 0.965245 0.210470 -0.120593
C12   C     C_3   0.519156 0.465527 0.790041 -0.120788
C13   C     C_R   0.228045 0.478345 0.183702 -0.119637
C14   C     C_3   0.480524 0.465705 0.209638 -0.120884
C15   C     C_1   0.000001 0.161767 0.000000 -0.058024
C16   C     C_1   0.500001 0.661766 0.000001 -0.057830
C17   C     C_1   0.000001 0.124288 0.000000 -0.025169
C18   C     C_1   0.500001 0.624288 0.000001 -0.025076
C19   C     C_1   0.500000 0.876000 0.999999 -0.018972
C20   C     C_1   0.000000 0.376000 0.999999 -0.019332
C21   C     C_3   0.999815 0.000012 0.810887 0.023564
C22   C     C_3   0.000184 0.000013 0.189110 0.023563
C23   C     C_3   0.499814 0.500008 0.810885 0.023568
C24   C     C_R   0.771953 0.478951 0.816959 -0.119644
C25   C     C_3   0.500184 0.500004 0.189110 0.023564
C26   C     C_3   0.960261 0.000700 0.731098 -0.137369
C27   C     C_3   0.039736 0.000851 0.268895 -0.137377
C28   C     C_3   0.460255 0.500256 0.731091 -0.137321
C29   C     C_3   0.539746 0.499883 0.268900 -0.137322
C30   C     C_3   0.980444 0.034526 0.709869 -0.138224
C31   C     C_3   0.019427 0.034601 0.290000 -0.138248
C32   C     C_3   0.480059 0.534305 0.709483 -0.138153
C33   C     C_3   0.520268 0.534116 0.290840 -0.138087
C34   C     C_3   0.019978 0.033986 0.790797 -0.084850
C35   C     C_R   0.706354 0.000619 0.207717 0.023657
C36   C     C_3   0.979894 0.033910 0.209076 -0.084875
C37   C     C_3   0.519598 0.534205 0.790417 -0.084799
C38   C     C_3   0.480724 0.534385 0.209905 -0.084717
C39   C     C_3   0.037792 0.999319 0.767671 0.113751
C40   C     C_3   0.962213 0.999173 0.232336 0.113753
C41   C     C_3   0.537797 0.499740 0.767675 0.113695
C42   C     C_3   0.462208 0.500093 0.232335 0.113714
C43   C     C_1   0.707511 0.039865 0.308856 0.196043
C44   C     C_1   0.292485 0.039482 0.690798 0.196046
C45   C     C_1   0.207509 0.546581 0.302171 0.195996
C46   C     C_R   0.293647 0.000614 0.792274 0.023651
C47   C     C_1   0.792494 0.545269 0.696412 0.196010
C48   C     C_R   0.206353 0.500727 0.207618 0.023742
C49   C     C_R   0.793647 0.500704 0.792362 0.023723
C50   C     C_R   0.728636 0.019789 0.278856 0.007541
C51   C     C_R   0.271363 0.019598 0.720972 0.007542
C52   C     C_R   0.228635 0.523125 0.275537 0.007549
C53   C     C_R   0.079579 0.000006 0.579677 0.558421
C54   C     C_R   0.771366 0.522474 0.723760 0.007548
C55   C     C_R   0.772159 0.019496 0.321671 -0.108607
C56   C     C_R   0.227840 0.019308 0.678161 -0.108606
C57   C     C_R   0.272158 0.522784 0.318397 -0.108426
C58   C     C_R   0.727843 0.522145 0.680908 -0.108473
C59   C     C_R   0.793608 0.000288 0.294188 0.024932
C60   C     C_R   0.206392 0.000285 0.705810 0.024936
C61   C     C_R   0.293607 0.500342 0.294133 0.024931
C62   C     C_R   0.706393 0.500333 0.705854 0.024930
C63   C     C_R   0.771432 0.981295 0.223572 -0.106976
C64   C     C_R   0.420421 0.500006 0.420324 0.558253
C65   C     C_R   0.228569 0.981476 0.776586 -0.106974
C66   C     C_R   0.271432 0.478151 0.226705 -0.107192
C67   C     C_R   0.728566 0.478764 0.773959 -0.107135
C68   C     C_1   0.661462 0.000281 0.162007 -0.043237
C69   C     C_1   0.338538 0.000281 0.837987 -0.043238
C70   C     C_1   0.161462 0.500333 0.161970 -0.043258
C71   C     C_1   0.838538 0.500321 0.838024 -0.043263
C72   C     C_1   0.838364 0.000098 0.338517 -0.051949
C73   C     C_1   0.161636 0.000097 0.661483 -0.051961
C74   C     C_1   0.338364 0.500119 0.338492 -0.052101
C75   C     C_R   0.579579 0.500007 0.579676 0.558331
C76   C     C_1   0.661636 0.500117 0.661501 -0.052050
C77   C     C_1   0.875820 0.000015 0.375788 -0.016949
C78   C     C_1   0.124180 0.000015 0.624213 -0.016983
C79   C     C_1   0.375820 0.500020 0.375778 -0.017238
C80   C     C_1   0.624180 0.500020 0.624219 -0.017129
C81   C     C_R   0.999763 0.000007 0.620336 0.571551
C82   C     C_R   0.000239 0.000007 0.379666 0.571576
C83   C     C_R   0.499763 0.500006 0.620335 0.571509
C84   C     C_R   0.500244 0.500005 0.379670 0.571418
C85   C     C_1   0.624004 0.000103 0.124158 -0.008676
C86   C     C_3   0.999316 0.000014 0.688159 0.067195
C87   C     C_1   0.375996 0.000104 0.875840 -0.008678
C88   C     C_1   0.124003 0.500124 0.124150 -0.008714
C89   C     C_1   0.875996 0.500118 0.875849 -0.008716
C90   C     C_R   1.000000 0.920451 1.000000 0.552831
C91   C     C_R   0.500000 0.420451 1.000000 0.552856
C92   C     C_R   0.999955 0.000050 0.879311 0.555017
C93   C     C_R   0.000045 0.000051 0.120688 0.555019
C94   C     C_R   0.499954 0.500048 0.879310 0.555007
C95   C     C_R   0.500045 0.500045 0.120687 0.555017
C96   C     C_R   0.000000 0.079656 0.000000 0.552537
C97   C     C_3   0.000688 0.000016 0.311844 0.067188
C98   C     C_R   0.500000 0.579656 0.000000 0.552491
C99   C     C_R   0.500000 0.920637 1.000000 0.548817
C100  C     C_R   0.000000 0.420637 1.000000 0.548543
C101  C     C_R   0.579398 0.999998 0.079392 0.551287
C102  C     C_R   0.420602 0.999998 0.920608 0.551279
C103  C     C_R   0.079397 0.499998 0.079392 0.551421
C104  C     C_R   0.920602 0.499998 0.920608 0.551394
C105  C     C_R   0.500000 0.079473 0.000000 0.552911
C106  C     C_R   0.000000 0.579473 0.000000 0.553480
C107  C     C_R   0.481212 0.228245 0.030151 -0.102321
C108  C     C_3   0.499316 0.500007 0.688158 0.067195
C109  C     C_R   0.518787 0.228245 0.969850 -0.102314
C110  C     C_R   0.982984 0.728245 0.033374 -0.102010
C111  C     C_R   0.017017 0.728245 0.966631 -0.101992
C112  C     C_R   0.500000 0.206374 0.000001 0.038667
C113  C     C_R   0.000001 0.706374 0.000002 0.038789
C114  C     C_R   0.017016 0.771688 0.966629 -0.103490
C115  C     C_R   0.982985 0.771688 0.033375 -0.103496
C116  C     C_R   0.518786 0.271688 0.969848 -0.103706
C117  C     C_R   0.481212 0.271689 0.030152 -0.103706
C118  C     C_3   0.979242 0.966176 0.708683 -0.144276
C119  C     C_3   0.500695 0.500001 0.311850 0.067166
C120  C     C_3   0.020888 0.966255 0.291443 -0.144245
C121  C     C_3   0.479621 0.465946 0.709062 -0.144342
C122  C     C_3   0.520064 0.465754 0.290615 -0.144407
C123  C     C_R   0.000000 0.793558 0.000001 0.038569
C124  C     C_R   0.499999 0.293558 1.000000 0.038463
C125  C     C_1   0.500000 0.161590 0.000001 -0.051387
C126  C     C_1   0.000000 0.661590 0.000002 -0.050794
C127  C     C_1   1.000000 0.838341 0.000001 -0.058075
C128  C     C_1   0.499999 0.338341 0.999999 -0.058280
C129  C     C_1   1.000000 0.875819 0.000000 -0.025652
C130  C     C_R   0.728045 0.981462 0.180591 -0.119621
C131  C     C_1   0.499999 0.375819 0.999999 -0.025781
C132  C     C_1   0.500000 0.124110 0.000001 -0.014362
C133  C     C_1   0.000000 0.624110 0.000001 -0.013652
C134  C     C_R   0.478471 0.771862 0.932056 -0.103793
C135  C     C_R   0.521530 0.771864 0.067943 -0.103796
C136  C     C_R   0.975196 0.271863 0.932643 -0.103953
C137  C     C_R   0.024806 0.271864 0.067356 -0.103973
C138  C     C_R   0.500001 0.793734 1.000000 0.037356
C139  C     C_R   0.000001 0.293735 0.999999 0.037448
C140  C     C_R   0.024805 0.228421 0.067357 -0.104293
Cu1   Cu    Cu3+1 0.000000 0.041030 0.500000 0.963411
Cu2   Cu    Cu3+1 0.499990 0.000050 0.937250 0.970422
Cu3   Cu    Cu3+1 0.000010 0.500050 0.062750 0.969916
Cu4   Cu    Cu3+1 0.999990 0.500050 0.937250 0.970117
Cu5   Cu    Cu3+1 0.500000 0.541030 0.500000 0.964051
Cu6   Cu    Cu3+1 1.000000 0.958990 0.500000 0.937774
Cu7   Cu    Cu3+1 0.500000 0.458990 0.500000 0.937125
Cu8   Cu    Cu3+1 0.041030 0.000050 0.040990 0.941721
Cu9   Cu    Cu3+1 0.958970 0.000050 0.959010 0.941709
Cu10  Cu    Cu3+1 0.541030 0.500050 0.040990 0.941650
Cu11  Cu    Cu3+1 0.458970 0.500050 0.959010 0.941634
Cu12  Cu    Cu3+1 0.500010 0.000050 0.062750 0.970375
H1    H     H_    0.035022 0.937355 0.823731 0.111223
H2    H     H_    0.030265 0.788202 0.940642 0.111599
H3    H     H_    0.466584 0.288202 0.053631 0.111576
H4    H     H_    0.533415 0.288201 0.946368 0.111575
H5    H     H_    0.466582 0.211733 0.053627 0.115350
H6    H     H_    0.533418 0.211732 0.946374 0.115360
H7    H     H_    0.969734 0.711733 0.059358 0.115631
H8    H     H_    0.030268 0.711732 0.940646 0.115656
H9    H     H_    0.955882 0.211907 0.880192 0.113152
H10   H     H_    0.044120 0.211910 0.119808 0.113137
H11   H     H_    0.461707 0.711907 0.879150 0.112975
H12   H     H_    0.965213 0.937223 0.176502 0.111168
H13   H     H_    0.538295 0.711910 0.120851 0.112976
H14   H     H_    0.461704 0.788373 0.879149 0.115064
H15   H     H_    0.538298 0.788375 0.120850 0.115054
H16   H     H_    0.955879 0.288373 0.880192 0.114708
H17   H     H_    0.044122 0.288375 0.119807 0.114672
H18   H     H_    0.962379 0.938632 0.673817 0.125469
H19   H     H_    0.037856 0.938774 0.326413 0.125425
H20   H     H_    0.463065 0.438215 0.674509 0.125566
H21   H     H_    0.536363 0.437868 0.324904 0.125685
H22   H     H_    0.928030 0.001273 0.716963 0.134612
H23   H     H_    0.535716 0.437747 0.824421 0.111317
H24   H     H_    0.071961 0.001548 0.283011 0.134623
H25   H     H_    0.428019 0.500466 0.716947 0.134597
H26   H     H_    0.571976 0.499790 0.283013 0.134629
H27   H     H_    0.964572 0.062657 0.676011 0.123987
H28   H     H_    0.035194 0.062793 0.323751 0.124035
H29   H     H_    0.463875 0.562256 0.675309 0.123799
H30   H     H_    0.536713 0.561916 0.325278 0.123664
H31   H     H_    0.037206 0.061357 0.825849 0.121194
H32   H     H_    0.962559 0.061215 0.173921 0.121252
H33   H     H_    0.536518 0.561766 0.825163 0.120990
H34   H     H_    0.463698 0.438082 0.174997 0.111442
H35   H     H_    0.464057 0.562102 0.175415 0.120868
H36   H     H_    0.787680 0.966352 0.201733 0.117522
H37   H     H_    0.212322 0.966677 0.798554 0.117510
H38   H     H_    0.287680 0.460691 0.207371 0.116991
H39   H     H_    0.712317 0.461795 0.793824 0.117115
H40   H     H_    0.711375 0.966612 0.126076 0.117836
H41   H     H_    0.288628 0.966937 0.874205 0.117849
H42   H     H_    0.211375 0.460995 0.131679 0.117547
H43   H     H_    0.788621 0.462088 0.869510 0.117595
H44   H     H_    0.099941 0.997008 0.844207 0.230466
H45   H     H_    0.789334 0.034215 0.376369 0.115987
H46   H     H_    0.083697 0.971413 0.764255 0.228881
H47   H     H_    0.900070 0.996624 0.155820 0.230458
H48   H     H_    0.916417 0.971093 0.235872 0.228950
H49   H     H_    0.599965 0.498116 0.844234 0.230632
H50   H     H_    0.584007 0.472351 0.764557 0.228651
H51   H     H_    0.400020 0.499035 0.155790 0.230671
H52   H     H_    0.415755 0.473141 0.235246 0.228482
H53   H     H_    0.210664 0.033884 0.623339 0.115973
H54   H     H_    0.289332 0.539981 0.370624 0.116384
H55   H     H_    0.710670 0.538859 0.628157 0.116298
H56   H     H_    0.969736 0.788202 0.059362 0.111586
N1    N     N_3   0.080000 0.998871 0.785876 -0.620162
N2    N     N_3   0.920009 0.998565 0.214144 -0.620204
N3    N     N_3   0.580007 0.499764 0.785883 -0.619663
N4    N     N_3   0.420004 0.500510 0.214152 -0.619411
N5    N     N_1   0.690568 0.055952 0.332875 -0.286634
N6    N     N_1   0.309426 0.055414 0.666638 -0.286630
N7    N     N_1   0.190564 0.565374 0.323490 -0.286748
N8    N     N_1   0.809442 0.563534 0.674522 -0.286712
O1    O     O_R   0.940150 0.034650 0.440170 -0.499787
O2    O     O_R   0.440150 0.999980 0.993200 -0.505710
O3    O     O_R   0.059850 0.499980 0.006800 -0.505402
O4    O     O_R   0.940150 0.499980 0.993200 -0.505459
O5    O     O_R   0.500000 0.059900 0.052920 -0.500488
O6    O     O_R   0.500000 0.059900 0.947080 -0.500493
O7    O     O_R   0.000000 0.559900 0.052920 -0.500325
O8    O     O_R   1.000000 0.559900 0.947080 -0.500333
O9    O     O_R   0.940170 0.965370 0.440140 -0.506722
O10   O     O_R   0.059830 0.965370 0.559860 -0.506732
O11   O     O_R   0.440170 0.465370 0.440140 -0.506930
O12   O     O_R   0.059850 0.034650 0.559830 -0.499757
O13   O     O_R   0.559830 0.465370 0.559860 -0.506865
O14   O     O_R   0.000010 0.034650 0.591580 -0.505218
O15   O     O_R   0.999990 0.034650 0.408420 -0.505307
O16   O     O_R   0.500010 0.534650 0.591580 -0.504927
O17   O     O_R   0.499990 0.534650 0.408420 -0.504660
O18   O     O_R   0.000020 0.965370 0.591550 -0.517637
O19   O     O_R   0.999980 0.965370 0.408450 -0.517590
O20   O     O_R   0.500020 0.465370 0.591550 -0.517789
O21   O     O_R   0.499980 0.465370 0.408450 -0.517895
O22   O     O_R   0.034640 0.940200 0.034570 -0.502963
O23   O     O_R   0.440150 0.534650 0.440170 -0.499621
O24   O     O_R   0.965360 0.940200 0.965430 -0.502979
O25   O     O_R   0.534640 0.440200 0.034570 -0.503097
O26   O     O_R   0.465360 0.440200 0.965430 -0.503101
O27   O     O_R   0.034640 0.000050 0.943030 -0.511483
O28   O     O_R   0.965360 0.000050 0.056970 -0.511487
O29   O     O_R   0.534640 0.500050 0.943030 -0.511467
O30   O     O_R   0.465360 0.500050 0.056970 -0.511460
O31   O     O_R   0.965370 0.000070 0.873780 -0.510805
O32   O     O_R   0.034630 0.000070 0.126220 -0.510801
O33   O     O_R   0.465370 0.500070 0.873780 -0.510837
O34   O     O_R   0.559850 0.534650 0.559830 -0.499716
O35   O     O_R   0.534630 0.500070 0.126220 -0.510850
O36   O     O_R   0.034650 0.059910 0.034650 -0.503066
O37   O     O_R   0.965350 0.059910 0.965350 -0.503059
O38   O     O_R   0.534650 0.559910 0.034650 -0.502904
O39   O     O_R   0.465350 0.559910 0.965350 -0.502906
O40   O     O_R   0.500030 0.940190 0.053050 -0.502927
O41   O     O_R   0.499970 0.940190 0.946950 -0.502921
O42   O     O_R   0.000030 0.440190 0.053050 -0.503030
O43   O     O_R   0.999970 0.440190 0.946950 -0.503004
O44   O     O_R   0.559860 0.000050 0.112810 -0.495145
O45   O     O_R   0.440140 0.000050 0.887190 -0.495117
O46   O     O_R   0.059860 0.500050 0.112810 -0.495688
O47   O     O_R   0.940140 0.500050 0.887190 -0.495582
O48   O     O_R   0.559850 0.999980 0.006800 -0.505697

loop_
_geom_bond_atom_site_label_1
_geom_bond_atom_site_label_2
_ccdc_geom_bond_type
C58   C62   A    
Cu10  O29   S    
C82   O15   A    
Cu6   O18   S    
Cu9   O28   S    
C14   C122  S    
C41   C108  S    
Cu5   O17   S    
C135  C138  A    
C1    C77   S    
C107  C112  A    
C12   H23   S    
C84   O21   A    
C98   O38   A    
H50   N3    S    
C21   C26   S    
C2    C65   A    
C70   C88   T    
Cu11  O30   S    
C110  H7    S    
C85   C101  S    
Cu10  O35   S    
Cu11  O33   S    
C27   C120  S    
C2    C46   A    
C137  C139  A    
C12   C23   S    
C99   O40   A    
C62   C67   A    
C46   C51   A    
Cu8   O22   S    
C140  H10   S    
C5    H11   S    
C25   C95   S    
C24   C49   A    
C117  C124  A    
C96   O37   A    
C38   C42   S    
C55   C59   A    
C136  C139  A    
C95   O30   A    
Cu3   O7    S    
C14   H34   S    
C92   O27   A    
C67   H39   S    
C42   C119  S    
Cu10  O38   S    
C91   C131  S    
C83   O16   A    
C99   O41   A    
Cu9   O37   S    
C38   H35   S    
C101  O44   A    
C29   C33   S    
C60   C73   S    
Cu8   O32   S    
Cu9   O24   S    
C35   C68   S    
C4    H13   S    
C39   N1    S    
C8    C138  S    
C51   C56   A    
C63   C130  A    
Cu2   Cu12  S    
C57   C61   A    
C75   O13   A    
Cu4   O43   S    
C104  O4    A    
C46   C69   S    
C109  C116  A    
Cu1   O1    S    
C6    C15   S    
C90   C129  S    
C61   C66   A    
C106  C133  S    
C106  O8    A    
C12   C121  S    
C91   O25   A    
C126  C133  T    
C82   O19   A    
C64   O23   A    
Cu6   O9    S    
Cu12  O2    S    
C117  H3    S    
Cu8   O27   S    
C73   C78   T    
C134  H14   S    
C36   H32   S    
C104  O47   A    
C114  H2    S    
C30   C86   S    
C75   O34   A    
C75   C80   S    
C108  C121  S    
C137  H17   S    
C81   C86   S    
C24   C67   A    
C59   C72   S    
C14   C42   S    
Cu7   O20   S    
C3    C6    A    
Cu1   O12   S    
Cu3   O4    S    
C100  O43   A    
Cu9   O31   S    
C49   C54   A    
C115  H56   S    
C29   C122  S    
C6    C140  A    
C68   C85   T    
C96   O36   A    
C62   C76   S    
Cu3   O42   S    
Cu2   O48   S    
C4    C7    A    
C135  H15   S    
C109  H6    S    
C9    C139  S    
C10   H1    S    
C98   O39   A    
Cu5   Cu7   S    
C92   O31   A    
C130  H40   S    
C105  C132  S    
C84   O17   A    
C13   C66   A    
Cu7   O21   S    
C10   C21   S    
C25   C29   S    
C5    C134  A    
C137  C140  A    
C100  O42   A    
Cu8   O36   S    
C8    C19   T    
C115  C123  A    
C90   O22   A    
C29   H26   S    
C27   C31   S    
C34   C39   S    
C53   O10   A    
C26   C118  S    
C32   H29   S    
C36   C40   S    
C107  H5    S    
Cu8   Cu9   S    
Cu4   O3    S    
C111  C113  A    
C109  C112  A    
C95   O35   A    
C40   C97   S    
Cu12  O40   S    
C30   C34   S    
C28   C121  S    
C21   C34   S    
C136  H16   S    
C45   C52   S    
Cu1   O14   S    
C32   C37   S    
C57   H54   S    
H48   N2    S    
C56   C60   A    
C37   H33   S    
C10   C39   S    
Cu2   O41   S    
C27   H24   S    
C111  H8    S    
C127  C129  T    
C12   C41   S    
C10   C118  S    
C93   O32   A    
C25   C38   S    
C13   C48   A    
C87   C102  S    
Cu12  O44   S    
C9    C20   T    
C123  C127  S    
C106  O7    A    
C71   C89   T    
C91   O26   A    
C28   C32   S    
C56   H53   S    
C50   C55   A    
H49   N3    S    
C47   N8    T    
H52   N4    S    
C35   C50   A    
C19   C99   S    
C112  C125  S    
C102  O45   A    
C34   H31   S    
C86   C118  S    
C17   C96   S    
C23   C28   S    
C43   C50   S    
C3    H9    S    
C35   C130  A    
C83   C108  S    
Cu1   Cu6   S    
C47   C54   S    
H44   N1    S    
C44   C51   S    
C7    C16   S    
Cu2   O45   S    
Cu5   O16   S    
C65   H37   S    
C60   C65   A    
C26   C30   S    
C74   C79   T    
C4    C135  A    
C89   C104  S    
C49   C71   S    
C22   C27   S    
C64   C79   S    
C44   N6    T    
Cu5   O34   S    
C114  C123  A    
C116  H4    S    
C43   N5    T    
C128  C131  T    
C3    C136  A    
C88   C103  S    
C42   N4    S    
C82   C97   S    
C5    C7    A    
C54   C58   A    
C119  C122  S    
C1    O9    A    
Cu11  O39   S    
C15   C17   T    
C26   H22   S    
Cu6   O19   S    
C11   C120  S    
C116  C124  A    
Cu10  Cu11  S    
C66   H38   S    
C21   C92   S    
C76   C80   T    
C48   C70   S    
C93   O28   A    
C69   C87   T    
C94   O33   A    
C134  C138  A    
C72   C77   T    
C120  H19   S    
C33   C119  S    
C113  C126  S    
C28   H25   S    
C90   O24   A    
C61   C74   S    
Cu1   O15   S    
C122  H21   S    
C22   C36   S    
C11   C22   S    
C59   C63   A    
C33   C38   S    
C24   H43   S    
C23   C94   S    
C124  C128  S    
C31   H28   S    
C13   H42   S    
C40   N2    S    
C2    H41   S    
C97   C120  S    
Cu3   Cu4   S    
C20   C100  S    
C53   O12   A    
C23   C37   S    
Cu11  O26   S    
Cu7   O13   S    
C125  C132  T    
C55   H45   S    
C30   H27   S    
C58   H55   S    
C84   C119  S    
C105  O5    A    
Cu5   O23   S    
H46   N1    S    
C11   H12   S    
C45   N7    T    
C103  O46   A    
C107  C117  A    
C53   C78   S    
C111  C114  A    
C31   C97   S    
C14   C25   S    
C37   C41   S    
C11   C40   S    
H51   N4    S    
C94   O29   A    
Cu4   O8    S    
C22   C93   S    
C52   C57   A    
C102  O2    A    
Cu3   O46   S    
C41   N3    S    
C48   C52   A    
C121  H20   S    
C81   O18   A    
C83   O20   A    
C16   C18   T    
C63   H36   S    
C32   C108  S    
C101  O48   A    
C110  C113  A    
C33   H30   S    
C118  H18   S    
C31   C36   S    
Cu10  O25   S    
C1    O1    A    
C18   C98   S    
C39   C86   S    
Cu7   O11   S    
Cu12  O5    S    
Cu4   O47   S    
Cu6   O10   S    
C110  C115  A    
Cu2   O6    S    
C64   O11   A    
C81   O14   A    
C105  O6    A    
C103  O3    A    
H47   N2    S    
