data_mof_unit_17988.cif
_audit_creation_date              2012-12-10T17:20:56-0500
_audit_creation_method            fapswitch 2.2
_symmetry_space_group_name_H-M    P1
_symmetry_Int_Tables_number       1
_space_group_crystal_system       triclinic
_cell_length_a                    18.298096
_cell_length_b                    25.862272
_cell_length_c                    18.267093
_cell_angle_alpha                 89.958507
_cell_angle_beta                  89.858505
_cell_angle_gamma                 89.986658
_cell_volume                      8644.5136973

loop_
_atom_site_label
_atom_site_type_symbol
_atom_type_description
_atom_site_fract_x
_atom_site_fract_y
_atom_site_fract_z
_atom_type_partial_charge
C1    C     C_R   0.389804 0.250019 0.139836 0.477657
C2    C     C_R   0.573620 0.350144 0.877659 -0.123503
C3    C     C_R   0.926509 0.350430 0.122230 -0.099572
C4    C     C_R   0.396088 0.806029 0.407966 -0.110730
C5    C     C_R   0.427187 0.149012 0.622935 -0.107214
C6    C     C_R   0.396258 0.193686 0.407996 -0.107400
C7    C     C_R   0.426457 0.850378 0.622183 -0.099307
C8    C     C_R   0.966006 0.287909 0.891862 -0.079323
C9    C     C_R   0.987048 0.682041 0.128812 -0.075636
C10   C     C_R   0.966088 0.712013 0.891915 -0.064782
C11   C     C_R   0.986428 0.317429 0.128179 -0.054215
C12   C     C_R   0.465994 0.787883 0.391872 -0.079448
C13   C     C_R   0.604144 0.305512 0.091754 -0.115702
C14   C     C_R   0.487066 0.182027 0.628826 -0.075420
C15   C     C_R   0.466101 0.211956 0.391900 -0.064941
C16   C     C_R   0.486386 0.817388 0.628142 -0.054048
C17   C     C_R   0.297455 0.053859 0.872955 -0.084635
C18   C     C_R   0.297375 0.946218 0.872954 -0.084681
C19   C     C_R   0.702766 0.553779 0.627058 -0.082980
C20   C     C_R   0.702693 0.446138 0.627059 -0.083119
C21   C     C_R   0.320752 0.026909 0.811139 -0.107577
C22   C     C_R   0.320706 0.973203 0.811136 -0.107669
C23   C     C_R   0.679527 0.526794 0.688907 -0.112867
C24   C     C_R   0.573936 0.650057 0.878050 -0.123502
C25   C     C_R   0.679487 0.473087 0.688905 -0.112964
C26   C     C_R   0.274266 0.972823 0.936837 0.013723
C27   C     C_R   0.274298 0.027217 0.936836 0.013704
C28   C     C_R   0.725794 0.472782 0.563161 0.014497
C29   C     C_R   0.725824 0.527176 0.563159 0.014519
C30   C     C_R   0.250018 0.946279 0.000003 0.017466
C31   C     C_R   0.250064 0.053719 0.999996 0.017437
C32   C     C_R   0.750018 0.446280 0.500002 0.017445
C33   C     C_R   0.750065 0.553720 0.499995 0.017420
C34   C     C_R   0.225868 0.972781 0.063192 0.014494
C35   C     C_R   0.104231 0.194595 0.591839 -0.115701
C36   C     C_R   0.225896 0.027175 0.063190 0.014516
C37   C     C_R   0.774340 0.472823 0.436868 0.013727
C38   C     C_R   0.774369 0.527217 0.436866 0.013708
C39   C     C_R   0.202841 0.946136 0.127117 -0.083112
C40   C     C_R   0.202907 0.053778 0.127116 -0.082975
C41   C     C_R   0.797524 0.446220 0.373013 -0.084683
C42   C     C_R   0.797594 0.553860 0.373012 -0.084639
C43   C     C_R   0.179712 0.973084 0.188998 -0.112934
C44   C     C_R   0.179748 0.026792 0.188999 -0.112837
C45   C     C_R   0.820930 0.473205 0.311228 -0.107710
C46   C     C_R   0.073649 0.850114 0.377686 -0.123503
C47   C     C_R   0.820970 0.526910 0.311231 -0.107623
C48   C     C_R   0.250024 0.109347 0.999977 0.483014
C49   C     C_R   0.250008 0.890652 0.000007 0.482841
C50   C     C_R   0.750025 0.609347 0.499976 0.483002
C51   C     C_R   0.750008 0.390653 0.500007 0.482832
C52   C     C_R   0.247535 0.391237 0.999966 0.493170
C53   C     C_R   0.247442 0.608769 0.000094 0.495704
C54   C     C_R   0.747527 0.891237 0.499963 0.493301
C55   C     C_R   0.747452 0.108769 0.500090 0.495550
C56   C     C_3   0.202836 0.469577 0.070564 -0.092809
C57   C     C_R   0.104167 0.805419 0.591727 -0.115726
C58   C     C_3   0.198869 0.530454 0.932350 -0.094628
C59   C     C_3   0.209028 0.529864 0.074227 -0.120699
C60   C     C_3   0.205046 0.470135 0.928271 -0.121772
C61   C     C_3   0.702502 0.969580 0.570352 -0.092778
C62   C     C_3   0.699203 0.030455 0.432123 -0.094640
C63   C     C_3   0.708683 0.029871 0.574043 -0.120638
C64   C     C_3   0.705391 0.970140 0.428074 -0.121802
C65   C     C_3   0.321832 0.470251 0.000620 -0.277436
C66   C     C_3   0.321620 0.529774 0.994810 -0.277475
C67   C     C_3   0.821822 0.970248 0.500984 -0.277433
C68   C     C_R   0.073913 0.150038 0.378033 -0.123478
C69   C     C_3   0.821646 0.029771 0.495174 -0.277511
C70   C     C_3   0.242432 0.448909 0.999813 -0.025386
C71   C     C_3   0.242371 0.551103 0.000510 -0.025260
C72   C     C_3   0.742429 0.948910 0.499793 -0.025414
C73   C     C_3   0.742378 0.051104 0.500490 -0.025274
C74   C     C_R   0.141875 0.212719 0.715529 -0.085028
C75   C     C_R   0.121652 0.817163 0.263830 -0.090904
C76   C     C_R   0.141811 0.787351 0.715475 -0.085400
C77   C     C_R   0.121795 0.182927 0.264031 -0.091141
C78   C     C_R   0.641882 0.712736 0.215523 -0.085005
C79   C     C_R   0.534268 0.712630 0.107960 -0.086038
C80   C     C_R   0.621639 0.317177 0.763818 -0.090937
C81   C     C_R   0.641796 0.287410 0.215494 -0.085357
C82   C     C_R   0.621813 0.682944 0.764046 -0.091192
C83   C     C_R   0.157889 0.194629 0.645485 -0.115698
C84   C     C_R   0.127559 0.850034 0.323943 -0.127643
C85   C     C_R   0.157812 0.805424 0.645385 -0.115141
C86   C     C_R   0.127779 0.150093 0.324246 -0.127268
C87   C     C_R   0.657900 0.694654 0.145476 -0.115695
C88   C     C_R   0.627535 0.350058 0.823922 -0.127671
C89   C     C_R   0.657788 0.305518 0.145413 -0.115108
C90   C     C_R   0.513583 0.317272 0.871658 -0.089284
C91   C     C_R   0.627803 0.650114 0.824264 -0.127329
C92   C     C_2   0.125470 0.449243 0.078515 0.255925
C93   C     C_2   0.121163 0.550730 0.929362 0.257314
C94   C     C_2   0.140253 0.557347 0.100314 0.227454
C95   C     C_2   0.135152 0.442491 0.906372 0.225568
C96   C     C_2   0.625105 0.949249 0.577937 0.255722
C97   C     C_2   0.621516 0.050733 0.428763 0.257492
C98   C     C_2   0.639800 0.057369 0.599793 0.227169
C99   C     C_2   0.635594 0.942511 0.405836 0.225851
C100  C     C_R   0.534210 0.287427 0.107901 -0.085989
C101  C     C_R   0.389739 0.749995 0.860190 0.477822
C102  C     C_R   0.513840 0.682894 0.871971 -0.089357
C103  C     C_R   0.034261 0.212617 0.607966 -0.086043
C104  C     C_R   0.013604 0.817251 0.371677 -0.089283
C105  C     C_R   0.034225 0.787369 0.607885 -0.086003
C106  C     C_R   0.013823 0.182881 0.371958 -0.089341
C107  C     C_R   0.516809 0.731833 0.178563 0.014758
C108  C     C_R   0.506361 0.283523 0.811053 0.016475
C109  C     C_R   0.516781 0.268194 0.178535 0.015010
C110  C     C_R   0.506492 0.716562 0.811220 0.016772
C111  C     C_R   0.016805 0.231826 0.678566 0.014747
C112  C     C_R   0.389805 0.749956 0.139843 0.479025
C113  C     C_R   0.006370 0.783513 0.311062 0.016481
C114  C     C_R   0.016788 0.768164 0.678528 0.015008
C115  C     C_R   0.006483 0.216554 0.311212 0.016777
C116  C     C_R   0.071372 0.231904 0.733076 0.015702
C117  C     C_R   0.061071 0.783466 0.256474 0.017383
C118  C     C_R   0.071340 0.768134 0.733055 0.014388
C119  C     C_R   0.061148 0.216582 0.256585 0.016613
C120  C     C_R   0.571376 0.731912 0.233073 0.015724
C121  C     C_R   0.561064 0.283474 0.756468 0.017370
C122  C     C_R   0.571332 0.268163 0.233064 0.014413
C123  C     C_R   0.389721 0.249993 0.860151 0.479490
C124  C     C_R   0.561158 0.716591 0.756593 0.016611
C125  C     C_R   0.445909 0.749937 0.195984 0.013936
C126  C     C_R   0.445825 0.250002 0.804000 0.017608
C127  C     C_R   0.445927 0.250006 0.195965 0.014263
C128  C     C_R   0.445853 0.750003 0.804047 0.018338
C129  C     C_R   0.945909 0.249938 0.695984 0.013931
C130  C     C_R   0.945826 0.750001 0.304002 0.017611
C131  C     C_R   0.945926 0.750006 0.695966 0.014248
C132  C     C_R   0.945852 0.250005 0.304046 0.018337
C133  C     C_R   0.428698 0.768265 0.266904 0.016251
C134  C     C_R   0.889804 0.750018 0.639837 0.477658
C135  C     C_R   0.439073 0.216278 0.743572 0.018497
C136  C     C_R   0.428755 0.231621 0.266910 0.015262
C137  C     C_R   0.438901 0.783569 0.743400 0.017011
C138  C     C_R   0.928702 0.268276 0.766900 0.016241
C139  C     C_R   0.939068 0.716281 0.243569 0.018531
C140  C     C_R   0.928748 0.731650 0.766918 0.015246
C141  C     C_R   0.938916 0.283586 0.243413 0.017034
C142  C     C_R   0.983309 0.268432 0.821373 0.018805
C143  C     C_R   0.993889 0.716127 0.189093 0.019404
C144  C     C_R   0.983345 0.731534 0.821404 0.022235
C145  C     C_R   0.889738 0.249996 0.360189 0.477814
C146  C     C_R   0.993606 0.283629 0.188806 0.019718
C147  C     C_R   0.483304 0.768420 0.321377 0.018782
C148  C     C_R   0.493897 0.216121 0.689099 0.019382
C149  C     C_R   0.483352 0.231505 0.321396 0.022257
C150  C     C_R   0.493587 0.783609 0.688788 0.019604
C151  C     C_R   0.054119 0.250152 0.804018 0.016814
C152  C     C_R   0.054206 0.749849 0.195967 0.018503
C153  C     C_R   0.054106 0.749888 0.804039 0.019430
C154  C     C_R   0.054137 0.250090 0.195901 0.018951
C155  C     C_R   0.554118 0.750152 0.304018 0.016814
C156  C     C_R   0.889805 0.249956 0.639843 0.479038
C157  C     C_R   0.554207 0.249849 0.695968 0.018490
C158  C     C_R   0.554105 0.249887 0.304039 0.019482
C159  C     C_R   0.554135 0.750088 0.695899 0.018902
C160  C     C_R   0.358233 0.787513 0.284443 -0.082045
C161  C     C_R   0.378579 0.182506 0.736250 -0.088808
C162  C     C_R   0.358347 0.212274 0.284459 -0.082320
C163  C     C_R   0.378339 0.817302 0.736000 -0.090076
C164  C     C_R   0.858242 0.287534 0.784435 -0.082042
C165  C     C_R   0.878573 0.682509 0.236248 -0.088806
C166  C     C_R   0.858332 0.712333 0.784478 -0.082351
C167  C     C_R   0.889722 0.749993 0.360152 0.479480
C168  C     C_R   0.878365 0.317330 0.236022 -0.090060
C169  C     C_R   0.342345 0.805831 0.354402 -0.110933
C170  C     C_R   0.373002 0.149343 0.676409 -0.122218
C171  C     C_R   0.342515 0.193866 0.354429 -0.111656
C172  C     C_R   0.372522 0.850276 0.675907 -0.125057
C173  C     C_R   0.842362 0.305870 0.854387 -0.110891
C174  C     C_R   0.872990 0.649351 0.176403 -0.122305
C175  C     C_R   0.842493 0.693960 0.854455 -0.111681
C176  C     C_R   0.872566 0.350320 0.175946 -0.125053
C177  C     C_R   0.110184 0.250057 0.860168 0.480877
C178  C     C_R   0.604242 0.694619 0.091830 -0.115705
C179  C     C_R   0.110233 0.749946 0.139791 0.480555
C180  C     C_R   0.110185 0.749964 0.860178 0.488218
C181  C     C_R   0.110215 0.250050 0.139760 0.483143
C182  C     C_R   0.610184 0.750058 0.360168 0.480852
C183  C     C_R   0.610234 0.249947 0.639792 0.480560
C184  C     C_R   0.610184 0.249963 0.360178 0.488173
C185  C     C_R   0.610214 0.750050 0.639759 0.483165
C186  C     C_R   0.896106 0.306072 0.907951 -0.110631
C187  C     C_R   0.927166 0.649028 0.122920 -0.107501
C188  C     C_R   0.896237 0.693778 0.908021 -0.107312
H1    H     H_    0.233548 0.454566 0.118807 0.177929
H2    H     H_    0.335133 0.181340 0.776538 0.096421
H3    H     H_    0.110944 0.413072 0.941064 0.099273
H4    H     H_    0.581803 0.963688 0.543196 0.079560
H5    H     H_    0.579785 0.035720 0.465125 0.082263
H6    H     H_    0.613489 0.086537 0.566355 0.099017
H7    H     H_    0.611178 0.913122 0.440429 0.099458
H8    H     H_    0.314925 0.210780 0.244442 0.116134
H9    H     H_    0.335044 0.818605 0.776440 0.096634
H10   H     H_    0.814811 0.289010 0.744425 0.116607
H11   H     H_    0.835133 0.681338 0.276542 0.096415
H12   H     H_    0.814909 0.710835 0.744463 0.116178
H13   H     H_    0.835066 0.318628 0.276459 0.096617
H14   H     H_    0.788229 0.320261 0.866955 0.110836
H15   H     H_    0.826443 0.623775 0.171547 0.094096
H16   H     H_    0.788395 0.679520 0.867041 0.110893
H17   H     H_    0.226684 0.545553 0.882297 0.178138
H18   H     H_    0.826022 0.375920 0.171083 0.093980
H19   H     H_    0.288208 0.820210 0.366975 0.110838
H20   H     H_    0.326453 0.123771 0.671550 0.094058
H21   H     H_    0.288423 0.179401 0.367008 0.110848
H22   H     H_    0.325971 0.875868 0.671037 0.093967
H23   H     H_    0.006164 0.289689 0.935145 0.114349
H24   H     H_    0.027778 0.680484 0.085794 0.102428
H25   H     H_    0.006249 0.710253 0.935203 0.123056
H26   H     H_    0.026960 0.318805 0.084962 0.119801
H27   H     H_    0.506151 0.789662 0.435156 0.114366
H28   H     H_    0.249888 0.538637 0.117710 0.157524
H29   H     H_    0.527800 0.180466 0.585814 0.102374
H30   H     H_    0.506263 0.210200 0.435188 0.122886
H31   H     H_    0.526911 0.818756 0.584917 0.120062
H32   H     H_    0.162131 0.047641 0.237264 0.111158
H33   H     H_    0.162061 0.952207 0.237260 0.111124
H34   H     H_    0.838821 0.547781 0.263045 0.119233
H35   H     H_    0.838742 0.452358 0.263038 0.119539
H36   H     H_    0.297492 0.095630 0.869779 0.115678
H37   H     H_    0.297343 0.904451 0.869775 0.115454
H38   H     H_    0.702805 0.595547 0.630239 0.115776
H39   H     H_    0.243467 0.461450 0.882385 0.158405
H40   H     H_    0.702669 0.404367 0.630239 0.115942
H41   H     H_    0.338549 0.047779 0.762929 0.119207
H42   H     H_    0.338458 0.952357 0.762920 0.119511
H43   H     H_    0.661853 0.547645 0.737147 0.111227
H44   H     H_    0.661776 0.452210 0.737142 0.111183
H45   H     H_    0.202817 0.904365 0.130291 0.115871
H46   H     H_    0.202939 0.095546 0.130292 0.115704
H47   H     H_    0.797493 0.404453 0.369828 0.115519
H48   H     H_    0.797624 0.595630 0.369829 0.115737
H49   H     H_    0.349861 0.458409 0.052011 0.129531
H50   H     H_    0.732981 0.954566 0.618737 0.177982
H51   H     H_    0.346700 0.541621 0.941787 0.131429
H52   H     H_    0.356422 0.546163 0.039007 0.127479
H53   H     H_    0.354118 0.453875 0.954365 0.129268
H54   H     H_    0.849601 0.958404 0.552508 0.129710
H55   H     H_    0.846981 0.041617 0.442275 0.131255
H56   H     H_    0.856234 0.046158 0.539538 0.127651
H57   H     H_    0.854327 0.953869 0.454887 0.129101
H58   H     H_    0.883705 0.320623 0.962107 0.107205
H59   H     H_    0.922793 0.623112 0.076629 0.107890
H60   H     H_    0.883879 0.679187 0.962195 0.108752
H61   H     H_    0.727257 0.045550 0.382204 0.178121
H62   H     H_    0.921952 0.376198 0.075738 0.107900
H63   H     H_    0.383681 0.820566 0.462128 0.107174
H64   H     H_    0.422822 0.123087 0.576653 0.107864
H65   H     H_    0.383904 0.179070 0.462164 0.108668
H66   H     H_    0.421885 0.876132 0.575678 0.108029
H67   H     H_    0.185259 0.211145 0.755582 0.115488
H68   H     H_    0.164956 0.818460 0.223396 0.097585
H69   H     H_    0.185182 0.788959 0.755537 0.112953
H70   H     H_    0.165060 0.181602 0.223559 0.096313
H71   H     H_    0.685266 0.711163 0.255576 0.115510
H72   H     H_    0.749333 0.038640 0.617720 0.157575
H73   H     H_    0.664946 0.318471 0.723388 0.097589
H74   H     H_    0.685165 0.289013 0.255558 0.112923
H75   H     H_    0.665077 0.681621 0.723574 0.096321
H76   H     H_    0.212067 0.180314 0.632906 0.109852
H77   H     H_    0.174166 0.875552 0.328827 0.096882
H78   H     H_    0.211967 0.819756 0.632776 0.109497
H79   H     H_    0.174401 0.124570 0.329163 0.097115
H80   H     H_    0.712081 0.680348 0.132894 0.109876
H81   H     H_    0.674138 0.375580 0.828803 0.096929
H82   H     H_    0.711937 0.319874 0.132811 0.109480
H83   H     H_    0.744029 0.961451 0.382375 0.158382
H84   H     H_    0.674428 0.624595 0.829183 0.097190
H85   H     H_    0.616764 0.680299 0.037580 0.110711
H86   H     H_    0.578297 0.375800 0.924205 0.099850
H87   H     H_    0.616643 0.319855 0.037477 0.110550
H88   H     H_    0.578687 0.624441 0.924685 0.099859
H89   H     H_    0.116750 0.180268 0.537591 0.110706
H90   H     H_    0.078336 0.875761 0.424241 0.099851
H91   H     H_    0.116672 0.819736 0.537444 0.110580
H92   H     H_    0.078661 0.124420 0.424666 0.099848
H93   H     H_    0.494193 0.710972 0.064597 0.116274
H94   H     H_    0.314802 0.788990 0.244432 0.116614
H95   H     H_    0.473059 0.318644 0.914876 0.102085
H96   H     H_    0.494143 0.289047 0.064522 0.116164
H97   H     H_    0.473351 0.681544 0.915226 0.101670
H98   H     H_    0.994185 0.210961 0.564603 0.116270
H99   H     H_    0.973083 0.818619 0.414899 0.102080
H100  H     H_    0.994159 0.788992 0.564506 0.116202
H101  H     H_    0.973335 0.181533 0.415213 0.101674
H102  H     H_    0.082006 0.463668 0.043961 0.079460
H103  H     H_    0.079595 0.535693 0.965894 0.082335
H104  H     H_    0.113736 0.586485 0.066985 0.099224
O1    O     O_3   0.249990 0.250010 0.000000 -0.451842
O2    O     O_R   0.835430 0.219350 0.353840 -0.544069
O3    O     O_R   0.835430 0.219350 0.646160 -0.542936
O4    O     O_R   0.835430 0.780650 0.353840 -0.541440
O5    O     O_R   0.164550 0.280640 0.853840 -0.533205
O6    O     O_R   0.164550 0.719360 0.146160 -0.532536
O7    O     O_R   0.164550 0.719360 0.853840 -0.515155
O8    O     O_R   0.164550 0.280640 0.146160 -0.514791
O9    O     O_R   0.664550 0.780640 0.353840 -0.533206
O10   O     O_R   0.664550 0.219360 0.646160 -0.532536
O11   O     O_R   0.664550 0.219360 0.353840 -0.515045
O12   O     O_3   0.249990 0.749990 0.000000 -0.451811
O13   O     O_R   0.664550 0.780640 0.646160 -0.514889
O14   O     O_R   0.396160 0.219380 0.914560 -0.538363
O15   O     O_R   0.396160 0.780620 0.085440 -0.535105
O16   O     O_R   0.396160 0.780620 0.914560 -0.538702
O17   O     O_R   0.396160 0.219380 0.085440 -0.535288
O18   O     O_R   0.896160 0.719380 0.414560 -0.538394
O19   O     O_R   0.896160 0.280620 0.585440 -0.535088
O20   O     O_R   0.896160 0.280620 0.414560 -0.538717
O21   O     O_R   0.896160 0.719380 0.585440 -0.535290
O22   O     O_R   0.103840 0.219370 0.085450 -0.548459
O23   O     O_3   0.749990 0.750010 0.500000 -0.451816
O24   O     O_R   0.103840 0.780630 0.914550 -0.547322
O25   O     O_R   0.103840 0.780630 0.085450 -0.544216
O26   O     O_R   0.103840 0.219370 0.914550 -0.542667
O27   O     O_R   0.603840 0.719370 0.585450 -0.548466
O28   O     O_R   0.603840 0.280630 0.414550 -0.547314
O29   O     O_R   0.603840 0.280630 0.585450 -0.544229
O30   O     O_R   0.603840 0.719370 0.414550 -0.542660
O31   O     O_R   0.310730 0.133160 0.000000 -0.536114
O32   O     O_R   0.310730 0.866840 0.000000 -0.536084
O33   O     O_R   0.810730 0.633160 0.500000 -0.536129
O34   O     O_3   0.749990 0.249990 0.500000 -0.451827
O35   O     O_R   0.810730 0.366840 0.500000 -0.536097
O36   O     O_R   0.249970 0.366860 0.060720 -0.517866
O37   O     O_R   0.249970 0.633140 0.939280 -0.518362
O38   O     O_R   0.249970 0.633140 0.060720 -0.547023
O39   O     O_R   0.249970 0.366860 0.939280 -0.546460
O40   O     O_R   0.749970 0.866860 0.560720 -0.517955
O41   O     O_R   0.749970 0.133140 0.439280 -0.518267
O42   O     O_R   0.749970 0.133140 0.560720 -0.547004
O43   O     O_R   0.749970 0.866860 0.439280 -0.546478
O44   O     O_R   0.189290 0.133150 0.000000 -0.542666
O45   O     O_R   0.335430 0.280650 0.146160 -0.544849
O46   O     O_R   0.189290 0.866850 0.000000 -0.543126
O47   O     O_R   0.689290 0.633150 0.500000 -0.542683
O48   O     O_R   0.689290 0.366850 0.500000 -0.543137
O49   O     O_2   0.110821 0.417143 0.125348 -0.471102
O50   O     O_2   0.104075 0.583613 0.884554 -0.467989
O51   O     O_2   0.115198 0.548175 0.160968 -0.464681
O52   O     O_2   0.106529 0.451813 0.847504 -0.463867
O53   O     O_2   0.610245 0.917135 0.624681 -0.471607
O54   O     O_2   0.604630 0.083586 0.383835 -0.467590
O55   O     O_2   0.614422 0.048181 0.660304 -0.464847
O56   O     O_R   0.335430 0.719350 0.853840 -0.544125
O57   O     O_2   0.607290 0.951815 0.346811 -0.463749
O58   O     O_R   0.335430 0.719350 0.146160 -0.542908
O59   O     O_R   0.335430 0.280650 0.853840 -0.541479
O60   O     O_R   0.835430 0.780650 0.646160 -0.544909
Zn1   Zn    Zn3+2 0.249990 0.293780 0.913250 0.933018
Zn2   Zn    Zn3+2 0.336760 0.793760 0.000000 0.931832
Zn3   Zn    Zn3+2 0.836760 0.706240 0.500000 0.932113
Zn4   Zn    Zn3+2 0.836760 0.293760 0.500000 0.931824
Zn5   Zn    Zn3+2 0.163250 0.206230 0.000000 0.923030
Zn6   Zn    Zn3+2 0.163250 0.793770 0.000000 0.924122
Zn7   Zn    Zn3+2 0.663250 0.706230 0.500000 0.923043
Zn8   Zn    Zn3+2 0.663250 0.293770 0.500000 0.924078
Zn9   Zn    Zn3+2 0.249990 0.706220 0.086750 0.934304
Zn10  Zn    Zn3+2 0.249990 0.706220 0.913250 0.953447
Zn11  Zn    Zn3+2 0.249990 0.293780 0.086750 0.952632
Zn12  Zn    Zn3+2 0.749990 0.793780 0.413250 0.933109
Zn13  Zn    Zn3+2 0.749990 0.206220 0.586750 0.934207
Zn14  Zn    Zn3+2 0.749990 0.206220 0.413250 0.953546
Zn15  Zn    Zn3+2 0.749990 0.793780 0.586750 0.952524
Zn16  Zn    Zn3+2 0.336760 0.206240 0.000000 0.932132

loop_
_geom_bond_atom_site_label_1
_geom_bond_atom_site_label_2
_ccdc_geom_bond_type
C181  O22   A    
O58   Zn9   S    
C75   C117  A    
C3    H62   S    
C74   C83   A    
O1    Zn1   S    
C9    C143  A    
C155  C182  S    
C101  O16   A    
C136  C162  A    
C98   O55   D    
C160  H94   S    
C102  H97   S    
C19   H38   S    
C63   C98   S    
C171  H21   S    
O34   Zn8   S    
C58   C60   S    
C99   H7    S    
O39   Zn1   S    
C101  C128  S    
C16   H31   S    
C97   H5    S    
C2    C90   A    
C97   O54   D    
O1    Zn16  S    
C62   C64   S    
C131  C140  A    
C175  C188  A    
C130  C167  S    
C109  C127  A    
C162  C171  A    
C78   H71   S    
C4    C12   A    
C8    H23   S    
C147  C155  A    
C40   C44   A    
C87   H80   S    
O15   Zn2   S    
C153  C180  S    
C100  C109  A    
C7    C172  A    
C82   C124  A    
C80   C121  A    
C45   C47   A    
C105  H100  S    
C150  C159  A    
C27   C31   A    
C28   C32   A    
C127  C136  A    
C106  H101  S    
C39   H45   S    
C123  C126  S    
C180  O24   A    
C58   H17   S    
C33   C50   S    
C51   O48   A    
C120  C155  A    
C76   C118  A    
C82   C91   A    
C89   H82   S    
C142  C151  A    
C78   C120  A    
C43   C44   A    
C37   C38   A    
C49   O32   A    
C2    H86   S    
C146  C154  A    
O36   Zn11  S    
C100  H96   S    
C122  C158  A    
C164  C173  A    
C69   H56   S    
C15   H30   S    
C163  C172  A    
C112  C125  S    
C46   C84   A    
O33   Zn3   S    
C50   O33   A    
C31   C48   S    
O20   Zn4   S    
C53   C71   S    
C107  C120  A    
C15   C149  A    
C141  C168  A    
C66   H52   S    
C169  H19   S    
C129  C156  S    
C10   H25   S    
C68   H92   S    
C79   H93   S    
O11   Zn14  S    
O12   Zn2   S    
C106  C115  A    
C33   C38   A    
C56   C59   S    
O44   Zn5   S    
C133  C160  A    
C80   C88   A    
O37   Zn10  S    
C57   C85   A    
O6    Zn9   S    
C3    C11   A    
C13   H87   S    
C11   H26   S    
C60   C95   S    
C3    C176  A    
C92   H102  S    
C41   C45   A    
C31   C36   A    
C177  O26   A    
O29   Zn8   S    
C108  C126  A    
C76   C85   A    
C23   H43   S    
C110  C128  A    
C87   C178  A    
C78   C87   A    
C25   H44   S    
C182  O30   A    
C29   C33   A    
O23   Zn3   S    
C44   H32   S    
C61   C96   S    
C101  O56   A    
C118  C153  A    
C132  C145  S    
O34   Zn13  S    
C175  H16   S    
C75   C84   A    
C151  C177  S    
C176  H18   S    
C65   C70   S    
C61   C63   S    
C67   C72   S    
C139  C165  A    
C187  H59   S    
C139  C143  A    
C64   C99   S    
C53   O37   A    
O19   Zn4   S    
C10   C188  A    
C5    C170  A    
C62   C73   S    
C133  C147  A    
C149  C158  A    
O13   Zn15  S    
O26   Zn5   S    
O12   Zn6   S    
C185  O13   A    
C135  C161  A    
C5    H64   S    
C67   H54   S    
O34   Zn4   S    
C115  C132  A    
C167  O18   A    
C113  C130  A    
C30   C34   A    
C96   O53   D    
C17   C27   A    
C107  C125  A    
C91   H84   S    
C137  C163  A    
C41   H47   S    
C8    C186  A    
C165  C174  A    
C65   H53   S    
C6    H65   S    
C184  O28   A    
C170  H20   S    
C18   H37   S    
C174  C187  A    
C62   C97   S    
C88   H81   S    
O12   Zn9   S    
C52   O39   A    
O14   Zn16  S    
C10   C144  A    
C32   C37   A    
C113  C117  A    
C178  H85   S    
C185  O27   A    
C115  C119  A    
C7    H66   S    
C55   O41   A    
C137  C150  A    
C186  H58   S    
O17   Zn16  S    
C24   H88   S    
C132  C141  A    
C168  C176  A    
C156  O3    A    
C158  C184  S    
C90   H95   S    
C18   C22   A    
O30   Zn7   S    
C161  H2    S    
C11   C146  A    
C26   C30   A    
C76   H69   S    
O23   Zn12  S    
C20   H40   S    
C159  C185  S    
O25   Zn6   S    
C90   C108  A    
C67   H57   S    
C145  O20   A    
C51   O35   A    
O42   Zn13  S    
C180  O7    A    
C50   O47   A    
C34   C36   A    
C148  C157  A    
C37   C41   A    
O41   Zn14  S    
C104  C113  A    
C55   C73   S    
O3    Zn13  S    
C163  H9    S    
C16   C150  A    
C21   C22   A    
C116  C151  A    
C52   O36   A    
C114  C131  A    
C18   C26   A    
C108  C121  A    
C131  C134  S    
C136  C149  A    
C95   O52   D    
C26   C27   A    
O47   Zn7   S    
C123  O14   A    
C54   O40   A    
C61   H50   S    
C12   C147  A    
C28   C29   A    
C43   H33   S    
C58   C93   S    
C35   C103  A    
C145  O2    A    
C58   C71   S    
C20   C25   A    
C9    H24   S    
O21   Zn3   S    
C154  C181  S    
C167  O4    A    
C98   H6    S    
C103  C111  A    
C110  C124  A    
C123  O59   A    
C111  C129  A    
O23   Zn15  S    
C160  C169  A    
C69   C73   S    
C111  C116  A    
C59   C94   S    
C74   H67   S    
O9    Zn12  S    
C81   C89   A    
C48   O44   A    
C177  O5    A    
C86   H79   S    
C130  C139  A    
C85   H78   S    
C164  H10   S    
C140  C166  A    
O60   Zn15  S    
C45   H35   S    
C40   H46   S    
C138  C142  A    
C35   C83   A    
C59   H28   S    
C69   H55   S    
C63   C73   S    
C77   C119  A    
C46   C104  A    
C173  H14   S    
C32   C51   S    
C66   C71   S    
C21   H41   S    
O46   Zn6   S    
C79   C107  A    
O22   Zn5   S    
C134  O21   A    
C5    C14   A    
C141  C146  A    
C61   C72   S    
O56   Zn10  S    
C143  C152  A    
C156  O19   A    
C126  C135  A    
C119  C154  A    
O5    Zn1   S    
O18   Zn3   S    
C102  C110  A    
C19   C29   A    
O28   Zn8   S    
C1    O17   A    
C140  C144  A    
C4    H63   S    
O59   Zn1   S    
C38   C42   A    
C20   C28   A    
C81   C122  A    
C152  C179  S    
C92   O49   D    
O38   Zn9   S    
O1    Zn5   S    
C96   H4    S    
C94   O51   D    
C112  O15   A    
O16   Zn2   S    
C46   H90   S    
C24   C102  A    
O32   Zn2   S    
C184  O11   A    
O31   Zn16  S    
C162  H8    S    
C8    C142  A    
C157  C183  S    
C12   H27   S    
C93   O50   D    
C112  O58   A    
C17   C21   A    
C49   O46   A    
C57   C105  A    
O45   Zn11  S    
C66   H51   S    
C68   C86   A    
C19   C23   A    
C183  O10   A    
C182  O9    A    
O1    Zn11  S    
C172  H22   S    
C165  H11   S    
C109  C122  A    
C124  C159  A    
C14   C148  A    
C168  H13   S    
C54   O43   A    
C144  C153  A    
O34   Zn14  S    
C6    C15   A    
C42   H48   S    
C34   C39   A    
C62   H61   S    
O12   Zn10  S    
C129  C138  A    
C22   H42   S    
O43   Zn12  S    
C14   H29   S    
C2    C88   A    
O2    Zn14  S    
C179  O25   A    
C95   H3    S    
O4    Zn12  S    
C64   C72   S    
C81   H74   S    
C121  C157  A    
C65   H49   S    
C83   H76   S    
C68   C106  A    
O24   Zn6   S    
C6    C171  A    
C48   O31   A    
C173  C186  A    
C4    C169  A    
C93   H103  S    
C94   H104  S    
C105  C114  A    
C36   C40   A    
O27   Zn7   S    
C75   H68   S    
C39   C43   A    
C67   C69   S    
O7    Zn10  S    
C128  C137  A    
C103  H98   S    
C166  C175  A    
C64   H83   S    
C53   O38   A    
C60   C70   S    
C74   C116  A    
C79   C178  A    
C114  C118  A    
C161  C170  A    
C57   H91   S    
C183  O29   A    
C47   H34   S    
C77   C86   A    
C65   C66   S    
C56   C70   S    
C77   H70   S    
O48   Zn8   S    
C1    O45   A    
C24   C91   A    
O8    Zn11  S    
C125  C133  A    
C56   H1    S    
C7    C16   A    
C35   H89   S    
C181  O8    A    
C13   C89   A    
C30   C49   S    
C179  O6    A    
C80   H73   S    
C1    C127  S    
C9    C187  A    
C99   O57   D    
O35   Zn4   S    
C60   H39   S    
O23   Zn7   S    
C13   C100  A    
C17   H36   S    
C63   H72   S    
O40   Zn15  S    
C174  H15   S    
C84   H77   S    
C188  H60   S    
C117  C152  A    
C134  O60   A    
C42   C47   A    
C23   C25   A    
C166  H12   S    
C52   C70   S    
C104  H99   S    
C56   C92   S    
C54   C72   S    
C135  C148  A    
O10   Zn13  S    
C82   H75   S    
C55   O42   A    
C138  C164  A    
C59   C71   S    
