data_mof_unit_7872.cif
_audit_creation_date              2013-03-05T16:10:11-0500
_audit_creation_method            fapswitch 2.2
_symmetry_space_group_name_H-M    P1
_symmetry_Int_Tables_number       1
_space_group_crystal_system       triclinic
_cell_length_a                    15.099981
_cell_length_b                    7.260835
_cell_length_c                    13.279327
_cell_angle_alpha                 88.753699
_cell_angle_beta                  100.970611
_cell_angle_gamma                 92.050656
_cell_volume                      1428.23696433

loop_
_atom_site_label
_atom_site_type_symbol
_atom_site_description
_atom_site_fract_x
_atom_site_fract_y
_atom_site_fract_z
_atom_type_partial_charge
O1    O     O_R   0.648180 0.355050 0.151550 -0.573871
O2    O     O_R   0.351820 0.644950 0.848450 -0.574644
O3    O     O_R   0.851820 0.855050 0.348450 -0.526295
O4    O     O_R   0.148180 0.144950 0.651550 -0.526292
O5    O     O_R   0.835240 0.681980 0.154280 -0.558995
O6    O     O_R   0.164760 0.318020 0.845720 -0.559013
O7    O     O_R   0.664760 0.181980 0.345720 -0.588714
O8    O     O_R   0.335240 0.818020 0.654280 -0.588682
H1    H     H_    0.662958 0.004192 0.846947 0.220609
H2    H     H_    0.337020 0.996646 0.153041 0.220418
H3    H     H_    0.837822 0.469763 0.653029 0.218489
H4    H     H_    0.162164 0.530014 0.346973 0.218546
C1    C     C_R   0.862094 0.519000 0.130380 0.972878
C2    C     C_R   0.137900 0.480999 0.869614 0.972915
C3    C     C_R   0.637698 0.012622 0.368977 0.966708
C4    C     C_R   0.362345 0.987390 0.631070 0.965918
O9    O     O_R   0.647870 0.684600 0.139630 -0.526055
O10   O     O_R   0.352130 0.315400 0.860370 -0.525925
O11   O     O_R   0.852130 0.184600 0.360370 -0.568400
O12   O     O_R   0.147870 0.815400 0.639630 -0.568279
O13   O     O_R   0.663110 0.857440 0.333700 -0.552505
O14   O     O_R   0.336890 0.142560 0.666300 -0.552107
O15   O     O_R   0.836890 0.357440 0.166300 -0.585522
O16   O     O_R   0.163110 0.642560 0.833700 -0.585463
C5    C     C_R   0.613975 0.515320 0.114790 1.090771
C6    C     C_R   0.386034 0.484676 0.885197 1.091450
C7    C     C_R   0.886346 0.017354 0.384813 1.073936
C8    C     C_R   0.113654 0.982644 0.615186 1.074225
O17   O     O_3   0.755220 0.522230 0.313690 -0.268566
O18   O     O_3   0.244780 0.477770 0.686310 -0.268316
O19   O     O_3   0.744780 0.022230 0.186310 -0.272331
O20   O     O_3   0.255220 0.977770 0.813690 -0.272806
V1    V     V_3+5 0.749030 0.796100 0.238190 1.379696
V2    V     V_3+5 0.250970 0.203900 0.761810 1.379657
V3    V     V_3+5 0.750970 0.296100 0.261810 1.331461
V4    V     V_3+5 0.249030 0.703900 0.738190 1.331313
C9    C     C_1   0.966729 0.006714 0.465967 0.013055
C10   C     C_1   0.033277 0.993281 0.534024 0.012988
C11   C     C_1   0.533475 0.504463 0.033919 0.005818
C12   C     C_1   0.466545 0.495519 0.966049 0.004773
C13   C     C_R   0.554926 0.021650 0.717829 0.261918
C14   C     C_R   0.445088 0.979345 0.282106 0.262238
C15   C     C_R   0.945228 0.456368 0.783141 0.264671
C16   C     C_R   0.054765 0.543530 0.216860 0.264667
C17   C     C_R   0.643386 0.990975 0.764506 -0.276956
C18   C     C_R   0.356575 0.009591 0.235499 -0.276313
C19   C     C_R   0.857123 0.487704 0.735195 -0.284282
C20   C     C_R   0.142866 0.512142 0.264802 -0.284218
C21   C     C_R   0.708730 0.966349 0.706476 0.485648
C22   C     C_R   0.291210 0.033616 0.293569 0.485196
C23   C     C_R   0.791554 0.518222 0.792159 0.486540
C24   C     C_R   0.208437 0.481682 0.207832 0.486381
C25   C     C_R   0.685300 0.972687 0.599378 0.232765
C26   C     C_R   0.314676 0.027158 0.400658 0.232910
C27   C     C_R   0.814728 0.520568 0.899255 0.232488
C28   C     C_R   0.185267 0.479426 0.100735 0.232491
C29   C     C_R   0.593532 0.990184 0.547176 -0.138356
C30   C     C_R   0.406468 0.009890 0.452825 -0.138274
C31   C     C_R   0.906540 0.508076 0.952208 -0.136422
C32   C     C_R   0.093455 0.491916 0.047785 -0.136441
C33   C     C_R   0.525879 0.005240 0.609180 -0.042562
C34   C     C_R   0.474133 0.995162 0.390795 -0.043151
C35   C     C_R   0.974214 0.482209 0.891219 -0.040143
C36   C     C_R   0.025780 0.517755 0.108777 -0.040157
C37   C     C_R   0.567928 0.994471 0.437079 -0.148930
C38   C     C_R   0.432084 0.005637 0.562922 -0.148231
C39   C     C_R   0.932042 0.518915 0.062155 -0.154053
C40   C     C_R   0.067953 0.481081 0.937839 -0.154061
N1    N     N_R   0.503019 0.112467 0.779420 0.232002
O21   O     O_R   0.499467 0.290798 0.770246 -0.398882
O22   O     O_R   0.486891 0.032331 0.862989 -0.352988
N2    N     N_R   0.497137 0.889651 0.220258 0.231818
O23   O     O_R   0.499971 0.711102 0.227966 -0.398715
O24   O     O_R   0.514071 0.971741 0.137557 -0.352810
N3    N     N_R   0.997104 0.359010 0.724049 0.230296
O25   O     O_R   0.000497 0.181266 0.737380 -0.392969
O26   O     O_R   0.013819 0.432274 0.639038 -0.358871
N4    N     N_R   0.002896 0.640871 0.275968 0.230319
O27   O     O_R   0.999515 0.818622 0.262662 -0.392923
O28   O     O_R   0.986174 0.567574 0.360967 -0.358836
O29   O     O_3   0.201570 0.051431 0.247796 -0.678114
H5    H     H_    0.195794 0.051375 0.172123 0.325854
O30   O     O_3   0.798340 0.948227 0.752289 -0.678200
H6    H     H_    0.804102 0.948459 0.827957 0.325914
O31   O     O_3   0.298045 0.466713 0.254387 -0.680036
H7    H     H_    0.303561 0.472068 0.329916 0.325856
O32   O     O_3   0.701947 0.533183 0.745601 -0.679837
H8    H     H_    0.696427 0.527750 0.670075 0.325937
N5    N     N_R   0.758520 0.968587 0.546856 0.208688
O33   O     O_R   0.789537 0.808818 0.531560 -0.416670
O34   O     O_R   0.812722 0.112974 0.554894 -0.411838
N6    N     N_R   0.241471 0.031014 0.453209 0.208731
O35   O     O_R   0.210282 0.190679 0.468380 -0.416746
O36   O     O_R   0.187413 0.886407 0.445269 -0.411689
N7    N     N_R   0.741222 0.525662 0.951322 0.208685
O37   O     O_R   0.701923 0.681715 0.952972 -0.425267
O38   O     O_R   0.694783 0.372693 0.956872 -0.410251
N8    N     N_R   0.258774 0.474424 0.048663 0.208742
O39   O     O_R   0.298119 0.318424 0.047019 -0.425325
O40   O     O_R   0.305164 0.627448 0.043082 -0.410075

loop_
_geom_bond_atom_site_label_1
_geom_bond_atom_site_label_2
_geom_bond_distance
_ccdc_geom_bond_type
C30   C34   1.437305 A    
C16   C20   1.385651 A    
O32   H8    0.992005 S    
H1    C17   1.083726 S    
C27   C31   1.435223 A    
H3    C19   1.083907 S    
N7    O37   1.300243 A    
O10   C6    1.337831 A    
C13   C33   1.432166 A    
H4    C20   1.083907 S    
O29   H5    0.991990 S    
C15   C35   1.432947 A    
O31   H7    0.992007 S    
C16   C36   1.432948 A    
C22   C26   1.398761 A    
C24   O31   1.383486 S    
C14   C18   1.384883 A    
N4    O28   1.301451 A    
O13   V1    2.045094 S    
O3    V1    1.962362 S    
C3    C37   1.514130 S    
C1    O15   1.327118 A    
O8    V4    2.014326 S    
C2    O16   1.327120 A    
N1    O22   1.301539 A    
C31   C39   1.440479 A    
C33   C38   1.432598 A    
C30   C38   1.439345 A    
O5    V1    2.071771 S    
H2    C18   1.083724 S    
O19   V1    1.765237 S    
C28   N8    1.416881 S    
N5    O34   1.300213 A    
O11   C7    1.345677 A    
C14   C34   1.432259 A    
O5    C1    1.328604 A    
O7    C3    1.330428 A    
O8    C4    1.330542 A    
O1    C5    1.334759 A    
O9    V1    1.974430 S    
N6    O36   1.300220 A    
O4    C8    1.333696 A    
C15   N3    1.423645 S    
O14   V2    2.045093 S    
O4    V2    1.962364 S    
C36   C39   1.433153 A    
C27   N7    1.416872 S    
C23   O32   1.383487 S    
C11   C12   1.220263 T    
C25   C29   1.435272 A    
N4    O27   1.300336 A    
C19   C23   1.381891 A    
O12   C8    1.345667 A    
C28   C32   1.435217 A    
O20   V2    1.765238 S    
N3    O25   1.300337 A    
C26   N6    1.416449 S    
C9    C10   1.222126 T    
O6    C2    1.328601 A    
O10   V2    1.974429 S    
O30   H6    0.991990 S    
C17   C21   1.381081 A    
C14   N2    1.421943 S    
O2    C6    1.334790 A    
O16   V4    2.012601 S    
N3    O26   1.301452 A    
N2    O24   1.301622 A    
N8    O40   1.300447 A    
C25   N5    1.416494 S    
C4    C38   1.514257 S    
O1    V3    1.972673 S    
C13   N1    1.422158 S    
C26   C30   1.435263 A    
O2    V4    1.972670 S    
O17   V3    1.788685 S    
C35   C40   1.433147 A    
C4    O14   1.326023 A    
C34   C37   1.432754 A    
O7    V3    2.014329 S    
C1    C39   1.516789 S    
C29   C37   1.439341 A    
N2    O23   1.299825 A    
N7    O38   1.300444 A    
C29   C33   1.437178 A    
C18   C22   1.380977 A    
C31   C35   1.439031 A    
O18   V4    1.788685 S    
C32   C36   1.439028 A    
O9    C5    1.337852 A    
C21   O30   1.383568 S    
O3    C7    1.333684 A    
N5    O33   1.300655 A    
O11   V3    1.995792 S    
C5    C11   1.461859 S    
C6    C12   1.461829 S    
C3    O13   1.326116 A    
C7    C9    1.464870 S    
C21   C25   1.398835 A    
C16   N4    1.423653 S    
N6    O35   1.300656 A    
C23   C27   1.398749 A    
C2    C40   1.516785 S    
N1    O21   1.299975 A    
O15   V3    2.012598 S    
O12   V4    1.995793 S    
O6    V2    2.071772 S    
C20   C24   1.381899 A    
C32   C40   1.440469 A    
N8    O39   1.300233 A    
C13   C17   1.384974 A    
C8    C10   1.464865 S    
C15   C19   1.385646 A    
C24   C28   1.398744 A    
C22   O29   1.383587 S    
