data_mof_unit_23764.cif
_audit_creation_date              2012-12-10T19:47:28-0500
_audit_creation_method            fapswitch 2.2
_symmetry_space_group_name_H-M    P1
_symmetry_Int_Tables_number       1
_space_group_crystal_system       triclinic
_cell_length_a                    10.885357
_cell_length_b                    10.818266
_cell_length_c                    12.705517
_cell_angle_alpha                 93.087082
_cell_angle_beta                  92.055223
_cell_angle_gamma                 89.846096
_cell_volume                      1493.0776693

loop_
_atom_site_label
_atom_site_type_symbol
_atom_type_description
_atom_site_fract_x
_atom_site_fract_y
_atom_site_fract_z
_atom_type_partial_charge
C1    C     C_R   0.261861 0.496413 0.501536 0.793582
C2    C     C_R   0.738139 0.503585 0.498464 0.793590
C3    C     C_R   0.496382 0.871668 0.498824 -0.076738
C4    C     C_R   0.503620 0.128332 0.501176 -0.076736
C5    C     C_R   0.427645 0.933916 0.421859 -0.026653
C6    C     C_R   0.572356 0.066084 0.578141 -0.026649
C7    C     C_R   0.223917 0.326663 0.821169 -0.134441
C8    C     C_R   0.776147 0.673320 0.178801 -0.134457
C9    C     C_R   0.182143 0.353553 0.719615 -0.126606
C10   C     C_R   0.817915 0.646444 0.280360 -0.126664
C11   C     C_R   0.123007 0.466640 0.702208 0.134526
C12   C     C_R   0.876992 0.533335 0.297792 0.134545
C13   C     C_R   0.107598 0.552649 0.787662 -0.150415
C14   C     C_R   0.892338 0.447285 0.212363 -0.150375
C15   C     C_R   0.150086 0.525567 0.888982 -0.142072
C16   C     C_R   0.849852 0.474352 0.111039 -0.142060
C17   C     C_R   0.207046 0.412147 0.905851 -0.109387
C18   C     C_R   0.792959 0.587795 0.094142 -0.109404
C19   C     C_R   0.936952 0.496868 0.592898 -0.248200
C20   C     C_R   0.063048 0.503123 0.407101 -0.248191
C21   C     C_R   0.871766 0.505994 0.496510 -0.082995
C22   C     C_R   0.128234 0.493997 0.503490 -0.083001
C23   C     C_R   0.502652 0.261933 0.500472 0.796186
C24   C     C_R   0.497350 0.738067 0.499528 0.796199
C25   C     C_R   0.935858 0.511361 0.402168 -0.012857
C26   C     C_R   0.064141 0.488626 0.597833 -0.012841
C27   C     C_2   0.489381 0.453257 0.031745 -0.282883
C28   C     C_2   0.510614 0.546742 0.968255 -0.282886
C29   C     C_1   0.516587 0.529465 0.852663 0.235333
C30   C     C_1   0.483411 0.470535 0.147337 0.235336
C31   C     C_R   0.857593 0.224816 0.693605 -0.130145
C32   C     C_R   0.142417 0.775184 0.306378 -0.130151
C33   C     C_R   0.772421 0.167609 0.622444 -0.144795
C34   C     C_R   0.227580 0.832396 0.377544 -0.144799
C35   C     C_R   0.657252 0.131220 0.656085 0.036065
C36   C     C_R   0.342757 0.868778 0.343911 0.036066
C37   C     C_R   0.627202 0.153462 0.763076 0.066721
C38   C     C_R   0.372823 0.846523 0.236925 0.066729
C39   C     C_R   0.713493 0.213894 0.833266 -0.111652
C40   C     C_R   0.286538 0.786092 0.166730 -0.111650
C41   C     C_R   0.827927 0.249101 0.798541 -0.167704
C42   C     C_R   0.172096 0.750892 0.201446 -0.167688
C43   C     C_R   0.567620 0.937852 0.576324 -0.241209
C44   C     C_R   0.432382 0.062148 0.423676 -0.241196
Cu1   Cu    Cu3+1 0.492140 0.492110 0.395880 0.984010
Cu2   Cu    Cu3+1 0.507860 0.507890 0.604120 0.984006
H1    H     H_    0.894020 0.294708 0.853185 0.138853
H2    H     H_    0.106009 0.705284 0.146799 0.138839
H3    H     H_    0.060703 0.639541 0.776000 0.127604
H4    H     H_    0.939183 0.360373 0.224046 0.127600
H5    H     H_    0.137071 0.591631 0.954692 0.127042
H6    H     H_    0.862818 0.408255 0.045347 0.127042
H7    H     H_    0.888467 0.491632 0.665613 0.173662
H8    H     H_    0.111531 0.508360 0.334387 0.173664
H9    H     H_    0.523043 0.639830 0.003151 0.202087
H10   H     H_    0.476954 0.360168 0.996848 0.202093
H11   H     H_    0.946828 0.250094 0.667121 0.140182
H12   H     H_    0.053179 0.749908 0.332857 0.140172
H13   H     H_    0.796828 0.150032 0.541065 0.124710
H14   H     H_    0.203163 0.849980 0.458920 0.124716
H15   H     H_    0.692748 0.233577 0.915218 0.164073
H16   H     H_    0.307295 0.766402 0.084781 0.164075
H17   H     H_    0.622262 0.889356 0.634153 0.159402
H18   H     H_    0.377740 0.110643 0.365845 0.159406
H19   H     H_    0.237294 0.390180 0.984699 0.138279
H20   H     H_    0.762717 0.609750 0.015290 0.138277
H21   H     H_    0.267237 0.238593 0.834552 0.160538
H22   H     H_    0.732879 0.761409 0.165397 0.160536
H23   H     H_    0.192777 0.285133 0.655131 0.105860
H24   H     H_    0.807327 0.714893 0.344826 0.105862
N1    N     N_1   0.480320 0.480250 0.239400 -0.156436
N2    N     N_1   0.519680 0.519750 0.760600 -0.156437
O1    O     O_R   0.313000 0.493330 0.412070 -0.580725
O2    O     O_R   0.687000 0.506670 0.587930 -0.580728
O3    O     O_R   0.326280 0.506660 0.587930 -0.569419
O4    O     O_R   0.673720 0.493340 0.412070 -0.569415
O5    O     O_R   0.493370 0.312980 0.412070 -0.579424
O6    O     O_R   0.506630 0.687020 0.587930 -0.579423
O7    O     O_R   0.506650 0.326310 0.587930 -0.577898
O8    O     O_R   0.493350 0.673690 0.412070 -0.577899
C45   C     C_2   0.506930 0.114785 0.801756 0.319359
H25   H     H_    0.436291 0.076353 0.747229 0.080435
O9    O     O_2   0.485251 0.124827 0.895471 -0.555893
C46   C     C_2   0.493107 0.885187 0.198257 0.319408
H26   H     H_    0.563754 0.923587 0.252790 0.080433
O10   O     O_2   0.514783 0.875175 0.104547 -0.555902

loop_
_geom_bond_atom_site_label_1
_geom_bond_atom_site_label_2
_ccdc_geom_bond_type
Cu1   N1    S    
C32   H12   S    
C30   N1    T    
C43   H17   S    
C39   C41   A    
Cu1   Cu2   S    
C44   H18   S    
C3    C43   A    
Cu1   O4    S    
C28   C29   S    
C19   C21   A    
C46   O10   D    
Cu2   O7    S    
C20   C25   A    
C5    C36   S    
C40   H16   S    
C6    C35   S    
Cu1   O1    S    
C19   C26   A    
C24   O8    A    
C7    C17   A    
C31   C33   A    
C15   H5    S    
Cu2   N2    S    
C2    O2    A    
C29   N2    T    
C19   H7    S    
C40   C42   A    
C1    C22   S    
C33   H13   S    
C27   C30   S    
C34   H14   S    
C37   C45   S    
C3    C24   S    
Cu2   O3    S    
C45   O9    D    
C28   H9    S    
C45   H25   S    
C39   H15   S    
C1    O3    A    
C46   H26   S    
C20   H8    S    
Cu2   O6    S    
C4    C23   S    
C27   H10   S    
C4    C44   A    
C11   C26   S    
C8    C18   A    
C32   C34   A    
C2    C21   S    
C41   H1    S    
C16   C18   A    
C42   H2    S    
C23   O5    A    
C9    C11   A    
C10   C12   A    
C13   H3    S    
C10   H24   S    
C4    C6    A    
C5    C44   A    
C20   C22   A    
C8    H22   S    
C6    C43   A    
C13   C15   A    
C14   C16   A    
Cu2   O2    S    
C2    O4    A    
C35   C37   A    
C24   O6    A    
C15   C17   A    
C21   C25   A    
C31   C41   A    
C38   C46   S    
C16   H6    S    
C9    H23   S    
C3    C5    A    
C18   H20   S    
C17   H19   S    
C12   C25   S    
C1    O1    A    
C31   H11   S    
C36   C38   A    
C12   C14   A    
C37   C39   A    
C38   C40   A    
C11   C13   A    
C14   H4    S    
C33   C35   A    
Cu1   O8    S    
C34   C36   A    
C7    H21   S    
C7    C9    A    
C8    C10   A    
C22   C26   A    
C27   C28   D    
C32   C42   A    
Cu1   O5    S    
C23   O7    A    
