data_mof_unit_54349.cif
_audit_creation_date              2012-12-11T16:51:02-0500
_audit_creation_method            fapswitch 2.2
_symmetry_space_group_name_H-M    P1
_symmetry_Int_Tables_number       1
_space_group_crystal_system       triclinic
_cell_length_a                    24.567152
_cell_length_b                    17.153489
_cell_length_c                    15.669852
_cell_angle_alpha                 89.999926
_cell_angle_beta                  129.604413
_cell_angle_gamma                 90.000271
_cell_volume                      5087.73647895

loop_
_atom_site_label
_atom_site_type_symbol
_atom_type_description
_atom_site_fract_x
_atom_site_fract_y
_atom_site_fract_z
_atom_type_partial_charge
C1    C     C_R   0.832983 0.889769 0.200218 -0.137043
C2    C     C_R   0.167179 0.890242 0.799737 -0.130622
C3    C     C_R   0.332821 0.390240 0.200265 -0.130611
C4    C     C_R   0.667017 0.389771 0.799784 -0.137058
C5    C     C_R   0.909164 0.144979 0.588431 0.537118
C6    C     C_R   0.118089 0.089577 0.410143 0.647278
C7    C     C_R   0.381911 0.589583 0.589856 0.647232
C8    C     C_R   0.590835 0.644979 0.411569 0.537118
C9    C     C_R   0.858890 0.189176 0.494694 -0.164999
C10   C     C_R   0.187856 0.099932 0.502368 -0.277451
C11   C     C_R   0.312144 0.599937 0.497631 -0.277433
C12   C     C_R   0.641107 0.689179 0.505306 -0.164998
C13   C     C_R   0.867315 0.163825 0.171211 -0.350227
C14   C     C_R   0.134587 0.163413 0.829609 -0.304394
C15   C     C_R   0.365418 0.663422 0.170402 -0.304459
C16   C     C_R   0.632696 0.663809 0.828812 -0.350162
C17   C     C_R   0.787075 0.824820 0.610218 -0.229054
C18   C     C_R   0.173056 0.685498 0.494177 -0.206777
C19   C     C_R   0.326948 0.185496 0.505832 -0.206762
C20   C     C_R   0.712921 0.324813 0.389783 -0.229058
C21   C     C_R   0.764762 0.857742 0.510988 0.137248
C22   C     C_R   0.186675 0.764270 0.495893 0.126138
C23   C     C_R   0.313324 0.264268 0.504105 0.126139
C24   C     C_R   0.735235 0.357738 0.489012 0.137246
C25   C     C_R   0.692364 0.858187 0.418717 -0.373914
C26   C     C_R   0.246022 0.789409 0.510245 -0.320983
C27   C     C_R   0.253973 0.289405 0.489742 -0.320997
C28   C     C_R   0.807634 0.358186 0.581282 -0.373915
C29   C     C_R   0.211577 0.234778 0.488396 0.489961
C30   C     C_R   0.854497 0.310525 0.581879 0.546790
C31   C     C_R   0.645501 0.810527 0.418119 0.546791
C32   C     C_R   0.288419 0.734784 0.511592 0.489957
C33   C     C_R   0.230678 0.155436 0.502613 0.160700
C34   C     C_R   0.826877 0.263392 0.488584 0.117644
C35   C     C_R   0.673119 0.763396 0.511416 0.117649
C36   C     C_R   0.269323 0.655440 0.497387 0.160741
C37   C     C_R   0.286482 0.131267 0.507057 -0.165689
C38   C     C_R   0.759978 0.280349 0.389643 0.001954
C39   C     C_R   0.740017 0.780356 0.610357 0.001944
C40   C     C_R   0.213523 0.631269 0.492954 -0.165680
C41   C     C_3   0.755613 0.822843 0.707469 0.144893
C42   C     C_3   0.152171 0.578248 0.414508 0.207991
C43   C     C_3   0.347837 0.078251 0.585512 0.208026
C44   C     C_3   0.744379 0.322833 0.292527 0.144895
C45   C     C_R   0.091729 0.859625 0.407366 -0.157073
C46   C     C_R   0.887446 0.895740 0.593204 -0.207986
C47   C     C_R   0.612553 0.395739 0.406796 -0.207986
C48   C     C_R   0.408271 0.359624 0.592634 -0.157117
C49   C     C_3   0.811075 0.868352 0.713285 0.996950
C50   C     C_3   0.106202 0.638788 0.415060 1.034032
C51   C     C_3   0.393804 0.138792 0.584956 1.033999
C52   C     C_3   0.688917 0.368341 0.286712 0.996949
C53   C     C_2   0.196530 0.833803 0.972451 -0.334960
C54   C     C_2   0.805269 0.835286 0.026577 -0.356084
C55   C     C_2   0.694731 0.335303 0.973435 -0.356181
C56   C     C_2   0.303471 0.333790 0.027559 -0.334844
C57   C     C_2   0.265799 0.851979 0.041703 0.756486
C58   C     C_2   0.735616 0.850117 0.956374 0.715180
C59   C     C_2   0.764385 0.350125 0.043635 0.715114
C60   C     C_2   0.234203 0.351971 0.958313 0.756461
C61   C     C_2   0.834359 0.231475 0.097144 0.578597
C62   C     C_2   0.167452 0.230148 0.905809 0.588702
C63   C     C_2   0.332561 0.730165 0.094215 0.588824
C64   C     C_2   0.665660 0.731452 0.902888 0.578494
C65   C     C_2   0.809372 0.287830 0.123215 -0.405375
C66   C     C_2   0.185765 0.292113 0.876204 -0.492884
C67   C     C_2   0.314229 0.792118 0.123812 -0.492909
C68   C     C_2   0.690623 0.787822 0.876796 -0.405485
C69   C     C_R   0.169128 0.861796 0.593318 0.561332
C70   C     C_R   0.813288 0.891607 0.410042 0.586310
C71   C     C_R   0.686711 0.391606 0.589957 0.586302
C72   C     C_R   0.330873 0.361795 0.406681 0.561338
C73   C     C_R   0.076846 0.888844 0.800612 0.495247
C74   C     C_R   0.922746 0.891452 0.197888 0.505844
C75   C     C_R   0.577255 0.391458 0.802114 0.505827
C76   C     C_R   0.423155 0.388839 0.199391 0.495258
C77   C     C_R   0.852423 0.869608 0.137579 0.001761
C78   C     C_R   0.147769 0.868228 0.861558 -0.000121
C79   C     C_R   0.352232 0.368221 0.138447 -0.000151
C80   C     C_R   0.647578 0.369615 0.862427 0.001798
C81   C     C_R   0.146434 0.820166 0.499760 -0.090111
C82   C     C_R   0.818942 0.878326 0.503086 -0.086970
C83   C     C_R   0.681057 0.378324 0.496914 -0.086968
C84   C     C_R   0.353566 0.320165 0.500239 -0.090098
C85   C     C_R   0.833599 0.140799 0.405818 0.399109
C86   C     C_R   0.191196 0.091558 0.591994 0.598716
C87   C     C_R   0.308805 0.591561 0.408005 0.598704
C88   C     C_R   0.666399 0.640802 0.594182 0.399096
C89   C     C_R   0.933267 0.131333 0.222590 0.499854
C90   C     C_R   0.073538 0.123093 0.790265 0.548429
C91   C     C_R   0.426465 0.623099 0.209742 0.548442
C92   C     C_R   0.566741 0.631323 0.777427 0.499822
C93   C     C_R   0.157983 0.130941 0.777467 0.436229
C94   C     C_R   0.839031 0.124140 0.211333 0.499953
C95   C     C_R   0.660974 0.624130 0.788677 0.499970
C96   C     C_R   0.342019 0.630944 0.222538 0.436246
H1    H     H_    0.780072 0.890657 0.172314 0.225812
H2    H     H_    0.220309 0.893031 0.828645 0.223277
H3    H     H_    0.279690 0.393031 0.171353 0.223232
H4    H     H_    0.719926 0.390658 0.827683 0.225860
H5    H     H_    0.776351 0.784838 0.779972 0.106199
H6    H     H_    0.157491 0.520738 0.452268 0.019716
H7    H     H_    0.342521 0.020738 0.547759 0.019724
H8    H     H_    0.723640 0.284826 0.220026 0.106199
H9    H     H_    0.814859 0.282934 0.197336 0.137374
H10   H     H_    0.171923 0.294905 0.795103 0.142423
H11   H     H_    0.328044 0.794892 0.204894 0.142393
H12   H     H_    0.685102 0.782948 0.802643 0.137378
H13   H     H_    0.177476 0.783988 0.989585 0.108828
H14   H     H_    0.826592 0.788191 0.009164 0.131481
H15   H     H_    0.673401 0.288226 0.990865 0.131469
H16   H     H_    0.322519 0.283964 0.010434 0.108817
H17   H     H_    0.066892 0.846370 0.322386 0.219805
H18   H     H_    0.907960 0.902371 0.677470 0.222974
H19   H     H_    0.592039 0.402370 0.322529 0.222979
H20   H     H_    0.433109 0.346368 0.677614 0.219808
H21   H     H_    0.672967 0.891140 0.345451 0.192290
H22   H     H_    0.258287 0.851079 0.518485 0.144531
H23   H     H_    0.241705 0.351074 0.481494 0.144532
H24   H     H_    0.827032 0.391140 0.654546 0.192289
N1    N     N_R   0.888400 0.921830 0.294620 -0.097009
N2    N     N_R   0.111600 0.921830 0.705380 -0.100327
N3    N     N_R   0.388400 0.421830 0.294620 -0.100318
N4    N     N_R   0.611600 0.421830 0.705380 -0.097016
N5    N     N_R   0.079940 0.922160 0.443410 -0.086577
N6    N     N_R   0.920060 0.922160 0.556590 -0.073738
N7    N     N_R   0.579940 0.422160 0.443410 -0.073739
N8    N     N_R   0.420060 0.422160 0.556590 -0.086577
N9    N     N_R   0.125650 0.922400 0.556620 -0.118571
N10   N     N_R   0.874350 0.922400 0.443380 -0.099030
N11   N     N_R   0.625650 0.422400 0.556620 -0.099030
N12   N     N_R   0.374350 0.422400 0.443380 -0.118568
N13   N     N_R   0.054230 0.922730 0.705400 -0.082923
N14   N     N_R   0.945770 0.922730 0.294600 -0.077151
N15   N     N_R   0.554230 0.422730 0.705400 -0.077148
N16   N     N_R   0.445770 0.422730 0.294600 -0.082923
N17   N     N_R   0.873790 0.077030 0.443380 -0.143251
N18   N     N_R   0.126210 0.077030 0.556620 -0.156353
N19   N     N_R   0.373790 0.577030 0.443380 -0.156352
N20   N     N_R   0.626210 0.577030 0.556620 -0.143248
N21   N     N_R   0.945200 0.076700 0.294600 -0.093982
N22   N     N_R   0.054800 0.076700 0.705400 -0.147766
N23   N     N_R   0.445200 0.576700 0.294600 -0.147767
N24   N     N_R   0.554800 0.576700 0.705400 -0.093985
N25   N     N_R   0.111030 0.077600 0.705380 -0.108737
N26   N     N_R   0.888970 0.077600 0.294620 -0.145396
N27   N     N_R   0.611030 0.577600 0.705380 -0.145402
N28   N     N_R   0.388970 0.577600 0.294620 -0.108730
N29   N     N_R   0.919490 0.077280 0.556590 -0.144515
N30   N     N_R   0.080510 0.077280 0.443410 -0.117382
N31   N     N_R   0.419490 0.577280 0.556590 -0.117387
N32   N     N_R   0.580510 0.577280 0.443410 -0.144517
Ni1   Ni    Ni4+2 0.882160 0.999430 0.370180 0.199594
Ni2   Ni    Ni4+2 0.117840 0.999430 0.629820 0.232268
Ni3   Ni    Ni4+2 0.382160 0.499430 0.370180 0.232265
Ni4   Ni    Ni4+2 0.617840 0.499430 0.629820 0.199593
Ni5   Ni    Ni4+2 0.012460 0.999430 0.370180 0.291154
Ni6   Ni    Ni4+2 0.987540 0.999430 0.629820 0.210536
Ni7   Ni    Ni4+2 0.512460 0.499430 0.370180 0.210539
Ni8   Ni    Ni4+2 0.487540 0.499430 0.629820 0.291135
O1    O     O_3   0.153303 0.257212 0.477406 -0.770227
H25   H     H_    0.147973 0.314649 0.468620 0.317782
O2    O     O_3   0.925720 0.308264 0.671776 -0.707628
H26   H     H_    0.935562 0.344612 0.729366 0.317246
O3    O     O_3   0.574277 0.808263 0.328220 -0.707625
H27   H     H_    0.564437 0.844610 0.270630 0.317254
O4    O     O_3   0.346688 0.757219 0.522571 -0.770235
H28   H     H_    0.352014 0.814657 0.531345 0.317779
O5    O     O_3   0.697425 0.868482 0.673948 -0.719990
H29   H     H_    0.709409 0.891083 0.742246 0.303947
O6    O     O_3   0.137327 0.573290 0.312175 -0.642502
H30   H     H_    0.108207 0.525731 0.275468 0.320951
O7    O     O_3   0.362678 0.073297 0.687843 -0.642483
H31   H     H_    0.391821 0.025754 0.724571 0.320940
O8    O     O_3   0.802565 0.368474 0.326042 -0.719997
H32   H     H_    0.790575 0.391081 0.257744 0.303911
O9    O     O_3   0.795565 0.949195 0.691471 -0.628484
C97   C     C_3   0.822167 0.990332 0.789417 -0.137564
H33   H     H_    0.879761 0.000691 0.839448 0.171346
H34   H     H_    0.812529 0.959784 0.841296 0.117808
H35   H     H_    0.795562 0.047863 0.766219 0.137962
O10   O     O_3   0.059020 0.679365 0.313070 -0.627249
C98   C     C_3   0.994016 0.639606 0.240155 -0.076133
H36   H     H_    0.960717 0.649883 0.264187 0.154550
H37   H     H_    0.001061 0.575940 0.236621 0.097812
H38   H     H_    0.965286 0.663483 0.155544 0.150462
O11   O     O_3   0.440982 0.179375 0.686942 -0.627262
C99   C     C_3   0.505991 0.139626 0.759862 -0.076111
H39   H     H_    0.539289 0.149910 0.735827 0.154568
H40   H     H_    0.498954 0.075959 0.763403 0.097786
H41   H     H_    0.534719 0.163507 0.844470 0.150459
O12   O     O_3   0.704424 0.449185 0.308518 -0.628483
C100  C     C_3   0.677817 0.490318 0.210567 -0.137617
H42   H     H_    0.620223 0.500678 0.160545 0.171364
H43   H     H_    0.687449 0.459767 0.158684 0.117780
H44   H     H_    0.704422 0.547848 0.233759 0.137962
O13   O     O_3   0.882592 0.854310 0.811333 -0.662654
C101  C     C_3   0.908368 0.778636 0.818912 -0.297226
H45   H     H_    0.916179 0.770563 0.757029 0.173081
H46   H     H_    0.873764 0.732200 0.810500 0.159178
H47   H     H_    0.960830 0.772069 0.902038 0.205720
O14   O     O_3   0.072275 0.610075 0.456762 -0.664813
C102  C     C_3   0.118008 0.598938 0.572764 -0.347000
H48   H     H_    0.133992 0.655953 0.615983 0.160704
H49   H     H_    0.165099 0.563468 0.603019 0.129320
H50   H     H_    0.088829 0.566946 0.594008 0.203390
O15   O     O_3   0.427734 0.110078 0.543260 -0.664801
C103  C     C_3   0.382003 0.098937 0.427259 -0.347042
H51   H     H_    0.366020 0.155951 0.384037 0.160710
H52   H     H_    0.334913 0.063466 0.397002 0.129311
H53   H     H_    0.411185 0.066945 0.406020 0.203376
O16   O     O_3   0.617399 0.354294 0.188667 -0.662652
C104  C     C_3   0.591626 0.278620 0.181097 -0.297223
H54   H     H_    0.583817 0.270551 0.242983 0.173080
H55   H     H_    0.626231 0.232184 0.189511 0.159179
H56   H     H_    0.539164 0.272049 0.097973 0.205719
O17   O     O_3   0.288487 0.921374 0.026330 -0.630241
C105  C     C_3   0.361688 0.933921 0.109185 -0.158263
H57   H     H_    0.392582 0.889143 0.104804 0.175233
H58   H     H_    0.376906 0.935411 0.192972 0.125925
H59   H     H_    0.375034 0.991517 0.094670 0.166411
O18   O     O_3   0.708876 0.914317 0.973940 -0.615230
C106  C     C_3   0.638987 0.932035 0.879584 -0.179443
H60   H     H_    0.601509 0.887516 0.866795 0.159146
H61   H     H_    0.634175 0.938070 0.804269 0.126543
H62   H     H_    0.624090 0.988820 0.893409 0.164282
O19   O     O_3   0.791138 0.414287 0.026031 -0.615168
C107  C     C_3   0.860971 0.432108 0.120474 -0.179378
H63   H     H_    0.898529 0.387597 0.133505 0.159087
H64   H     H_    0.865655 0.438240 0.195663 0.126465
H65   H     H_    0.875868 0.488872 0.106601 0.164293
O20   O     O_3   0.211529 0.421390 0.973660 -0.630284
C108  C     C_3   0.138305 0.433867 0.890944 -0.158333
H66   H     H_    0.107500 0.389076 0.895510 0.175224
H67   H     H_    0.122977 0.435316 0.807084 0.126057
H68   H     H_    0.124961 0.491463 0.905465 0.166433
O21   O     O_3   0.825845 0.236154 0.001185 -0.771375
H69   H     H_    0.841492 0.185974 0.991744 0.310373
O22   O     O_3   0.183949 0.228045 0.008050 -0.771571
H70   H     H_    0.171195 0.175838 0.017568 0.345064
O23   O     O_3   0.316095 0.728086 0.991996 -0.771491
H71   H     H_    0.328851 0.675883 0.982472 0.345074
O24   O     O_3   0.674204 0.736113 0.998874 -0.771465
H72   H     H_    0.658561 0.685929 0.008313 0.310382
O25   O     O_3   0.236512 0.862342 0.695137 -0.634370
C109  C     C_3   0.256235 0.787322 0.742885 -0.212657
H73   H     H_    0.276572 0.751246 0.710030 0.155855
H74   H     H_    0.212884 0.757101 0.734307 0.123039
H75   H     H_    0.300840 0.794146 0.832546 0.229800
O26   O     O_3   0.752206 0.890193 0.301291 -0.652607
C110  C     C_3   0.736568 0.811521 0.266613 -0.280577
H76   H     H_    0.726122 0.776472 0.314440 0.140410
H77   H     H_    0.779925 0.783611 0.272904 0.153728
H78   H     H_    0.688136 0.809746 0.178410 0.222985
O27   O     O_3   0.747794 0.390192 0.698709 -0.652599
C111  C     C_3   0.763430 0.311520 0.733386 -0.280534
H79   H     H_    0.773875 0.276470 0.685558 0.140394
H80   H     H_    0.720073 0.283610 0.727096 0.153706
H81   H     H_    0.811863 0.309744 0.821588 0.223012
O28   O     O_3   0.263489 0.362338 0.304861 -0.634386
C112  C     C_3   0.243769 0.287317 0.257115 -0.212709
H82   H     H_    0.287122 0.257096 0.265701 0.123067
H83   H     H_    0.199167 0.294139 0.167452 0.229771
H84   H     H_    0.223429 0.251242 0.289966 0.155860
O29   O     O_3   0.039451 0.891097 0.838408 -0.777330
H85   H     H_    0.069062 0.866902 0.912903 0.322688
O30   O     O_3   0.957888 0.900482 0.156758 -0.755687
H86   H     H_    0.927904 0.878427 0.080935 0.321958
O31   O     O_3   0.542112 0.400491 0.843243 -0.755698
H87   H     H_    0.572096 0.378442 0.919069 0.321953
O32   O     O_3   0.460549 0.391090 0.161595 -0.777323
H88   H     H_    0.430939 0.366891 0.087102 0.322692
O33   O     O_3   0.765550 0.143218 0.307981 -0.746607
H89   H     H_    0.749116 0.088421 0.288379 0.332380
O34   O     O_3   0.251846 0.065541 0.691512 -0.634943
H90   H     H_    0.237533 0.032035 0.725754 0.349827
O35   O     O_3   0.248154 0.565543 0.308488 -0.634964
H91   H     H_    0.262466 0.532034 0.274247 0.349823
O36   O     O_3   0.734446 0.643225 0.692022 -0.746604
H92   H     H_    0.750885 0.588430 0.711621 0.332383
O37   O     O_3   0.979860 0.150588 0.205511 -0.685504
H93   H     H_    0.960599 0.195913 0.154869 0.320518
O38   O     O_3   0.051754 0.112526 0.851273 -0.698478
H94   H     H_    0.023092 0.064121 0.823499 0.343773
O39   O     O_3   0.448249 0.612535 0.148733 -0.698476
H95   H     H_    0.476907 0.564127 0.176500 0.343770
O40   O     O_3   0.520157 0.650568 0.794527 -0.685485
H96   H     H_    0.539431 0.695878 0.845199 0.320498
O41   O     O_3   0.221920 0.143377 0.802213 -0.729666
H97   H     H_    0.252385 0.173826 0.871635 0.319594
O42   O     O_3   0.767663 0.112128 0.148179 -0.713824
H98   H     H_    0.761709 0.058685 0.165247 0.329338
O43   O     O_3   0.732341 0.612110 0.851827 -0.713827
H99   H     H_    0.738289 0.558669 0.834744 0.329334
O44   O     O_3   0.278079 0.643373 0.197783 -0.729672
H100  H     H_    0.247616 0.673825 0.128364 0.319590
O45   O     O_3   0.927223 0.156982 0.690400 -0.555565
C113  C     C_3   0.878422 0.117131 0.693527 -0.163665
H101  H     H_    0.881160 0.053118 0.685273 0.152414
H102  H     H_    0.823572 0.138729 0.628570 0.113462
H103  H     H_    0.892251 0.128356 0.774997 0.169250
O46   O     O_3   0.092081 0.069941 0.303979 -0.549363
C114  C     C_3   0.141604 0.028017 0.304205 -0.147407
H104  H     H_    0.170237 0.983084 0.370800 0.099426
H105  H     H_    0.178960 0.068575 0.309905 0.120320
H106  H     H_    0.112696 0.996773 0.224117 0.187763
O47   O     O_3   0.407915 0.569954 0.696019 -0.549362
C115  C     C_3   0.358408 0.527980 0.695780 -0.147364
H107  H     H_    0.329805 0.483040 0.629192 0.099420
H108  H     H_    0.321023 0.568502 0.690055 0.120305
H109  H     H_    0.387324 0.496740 0.775873 0.187774
O48   O     O_3   0.572782 0.656981 0.309603 -0.555561
C116  C     C_3   0.621585 0.617127 0.306484 -0.163669
H110  H     H_    0.618843 0.553114 0.314735 0.152417
H111  H     H_    0.676435 0.638723 0.371445 0.113464
H112  H     H_    0.607760 0.628351 0.225016 0.169247

loop_
_geom_bond_atom_site_label_1
_geom_bond_atom_site_label_2
_ccdc_geom_bond_type
C55   C59   D    
C1    C77   A    
C106  H60   S    
C44   O8    S    
C3    C79   A    
C106  H62   S    
C39   C41   S    
C102  H49   S    
C56   C79   S    
C99   H41   S    
C57   C67   S    
N24   N27   A    
N9    Ni2   S    
O32   H88   S    
C63   O23   S    
C111  H81   S    
C29   C33   A    
N12   Ni3   S    
C5    N29   A    
N13   Ni6   S    
C17   C39   A    
C18   C40   A    
O10   C98   S    
C14   C90   A    
C19   C37   A    
N16   Ni7   S    
O22   H70   S    
C76   C79   A    
C47   C83   A    
N24   Ni8   S    
N20   N32   A    
C71   C83   A    
C115  H109  S    
N18   Ni2   S    
O25   C109  S    
N22   Ni6   S    
C41   C49   S    
C107  H63   S    
C3    N3    A    
C72   N12   A    
C49   O9    S    
C50   O14   S    
O14   C102  S    
C114  H105  S    
C15   C96   A    
C30   C34   A    
C41   O5    S    
C17   C21   A    
C62   O22   S    
C19   C23   A    
C98   H36   S    
C2    C78   A    
O19   C107  S    
N17   Ni1   S    
C72   C84   A    
N20   Ni4   S    
N21   Ni5   S    
C9    C34   S    
C91   O39   S    
C113  H101  S    
C85   N17   A    
C53   H13   S    
N4    N15   A    
C55   H15   S    
C45   C81   A    
C13   C94   A    
C86   O34   S    
C53   C78   S    
C55   C80   S    
C43   O7    S    
C74   N14   A    
C75   N15   A    
C70   C82   A    
C88   O36   S    
N7    N11   A    
C15   C91   A    
N5    N9    A    
O16   C104  S    
C69   N9    A    
C100  H42   S    
C52   O16   S    
C101  H46   S    
C20   C24   A    
C107  H65   S    
C25   C31   A    
C26   C32   A    
N30   Ni5   S    
C27   C29   A    
C97   H33   S    
C64   O24   S    
C49   O13   S    
C64   C68   D    
N11   Ni4   S    
C8    N32   A    
C4    C80   A    
C112  H82   S    
C51   O15   S    
C116  H111  S    
C14   C62   S    
C76   O32   S    
O48   C116  S    
C54   H14   S    
C99   H40   S    
O23   H71   S    
C88   N20   A    
C9    C85   A    
C46   C82   A    
C31   O3    S    
C11   C87   A    
C74   C77   A    
C111  H80   S    
N28   Ni3   S    
C108  H66   S    
C14   C93   A    
C48   H20   S    
C54   C77   S    
C100  H44   S    
C40   C42   S    
N32   Ni7   S    
C7    O47   S    
O35   H91   S    
C50   O10   S    
C92   O40   S    
C65   H9    S    
C115  H108  S    
C91   N23   A    
N23   N28   A    
C62   C66   D    
C95   N27   A    
C28   H24   S    
C98   H38   S    
C17   C49   S    
C110  H78   S    
O17   C105  S    
C63   C67   D    
C5    C9    A    
O43   H99   S    
C61   C65   D    
C74   O30   S    
C105  H58   S    
N19   Ni3   S    
C8    C12   A    
C12   C88   A    
C8    O48   S    
O41   H97   S    
C12   C35   S    
C71   O27   S    
C42   C50   S    
N25   Ni2   S    
C105  H59   S    
C21   C25   A    
C109  H73   S    
C10   C86   A    
C90   O38   S    
C18   C22   A    
C94   O42   S    
C24   C28   A    
O28   C112  S    
C112  H84   S    
O30   H86   S    
C106  H61   S    
C47   N7    A    
C4    H4    S    
C96   O44   S    
C59   C65   S    
N19   N31   A    
C85   O33   S    
C10   C33   S    
O13   C101  S    
C108  H68   S    
C1    N1    A    
C42   O6    S    
C71   N11   A    
C3    H3    S    
C56   C60   D    
C21   C82   S    
O38   H94   S    
C109  H75   S    
C94   N26   A    
O34   H90   S    
C102  H48   S    
C107  H64   S    
O1    H25   S    
C110  H76   S    
N3    Ni3   S    
C104  H54   S    
C47   H19   S    
N1    Ni1   S    
C24   C83   S    
N5    Ni5   S    
N6    N10   A    
O24   H72   S    
C70   N10   A    
O5    H29   S    
C5    O45   S    
C6    O46   S    
C103  H51   S    
O36   H92   S    
N1    N14   A    
C59   O19   S    
C70   O26   S    
C104  H55   S    
C60   C66   S    
O31   H87   S    
N22   N25   A    
C113  H102  S    
C30   O2    S    
C114  H106  S    
C2    N2    A    
C44   H8    S    
C96   N28   A    
C102  H50   S    
O15   C103  S    
C58   O18   S    
C22   C81   S    
C26   H22   S    
C23   C84   S    
O44   H100  S    
C53   C57   D    
O26   C110  S    
C33   C37   A    
O47   C115  S    
C113  H103  S    
C37   C43   S    
C35   C39   A    
C38   C44   S    
O39   H95   S    
C48   N8    A    
O40   H96   S    
N27   Ni4   S    
C90   N22   A    
C73   O29   S    
N21   N26   A    
C7    N31   A    
C58   C68   S    
C16   C92   A    
C31   C35   A    
C32   C36   A    
O4    H28   S    
C18   C50   S    
C104  H56   S    
N15   Ni8   S    
C60   O20   S    
C87   N19   A    
C6    C10   A    
C97   H34   S    
N23   Ni7   S    
C89   O37   S    
C93   O41   S    
O11   C99   S    
O12   C100  S    
C43   C51   S    
C116  H110  S    
N26   Ni1   S    
C57   O17   S    
C103  H53   S    
O20   C108  S    
C41   H5    S    
C43   H7    S    
C97   H35   S    
C51   O11   S    
C6    N30   A    
C45   H17   S    
C75   C80   A    
O9    C97   S    
C22   C26   A    
C32   O4    S    
O6    H30   S    
O3    H27   S    
O45   C113  S    
O2    H26   S    
C76   N16   A    
O7    H31   S    
N18   N30   A    
C7    C11   A    
C4    N4    A    
C95   O43   S    
C11   C36   S    
C98   H37   S    
C52   O12   S    
C110  H77   S    
C87   O35   S    
O8    H32   S    
N29   Ni6   S    
C45   N5    A    
C100  H43   S    
C73   C78   A    
C93   N25   A    
C101  H45   S    
C23   C27   A    
O29   H85   S    
O42   H98   S    
C114  H104  S    
N2    Ni2   S    
N17   N29   A    
C66   H10   S    
C42   H6    S    
N6    Ni6   S    
C109  H74   S    
C46   H18   S    
C29   O1    S    
C36   C40   A    
C1    H1    S    
C112  H83   S    
C116  H112  S    
C75   O31   S    
O37   H93   S    
C48   C84   A    
C99   H39   S    
N2    N13   A    
C20   C38   A    
C111  H79   S    
C101  H47   S    
O33   H89   S    
C108  H67   S    
C69   C81   A    
C73   N13   A    
C72   O28   S    
N4    Ni4   S    
O27   C111  S    
N7    Ni7   S    
C115  H107  S    
N8    Ni8   S    
C54   C58   D    
C69   O25   S    
O46   C114  S    
N8    N12   A    
C16   C95   A    
C13   C89   A    
C34   C38   A    
C46   N6    A    
C25   H21   S    
C44   C52   S    
C27   H23   S    
C16   C64   S    
N3    N16   A    
C61   O21   S    
N31   Ni8   S    
C28   C30   A    
C20   C52   S    
C67   H11   S    
C105  H57   S    
C89   N21   A    
N10   Ni1   S    
O18   C106  S    
C92   N24   A    
C86   N18   A    
C19   C51   S    
N14   Ni5   S    
C13   C61   S    
C2    H2    S    
C103  H52   S    
C15   C63   S    
C68   H12   S    
O21   H69   S    
C56   H16   S    
