data_mof_unit_39184.cif
_audit_creation_date              2012-12-11T17:10:35-0500
_audit_creation_method            fapswitch 2.2
_symmetry_space_group_name_H-M    P1
_symmetry_Int_Tables_number       1
_space_group_crystal_system       triclinic
_cell_length_a                    14.815163
_cell_length_b                    14.983982
_cell_length_c                    15.169206
_cell_angle_alpha                 110.297072
_cell_angle_beta                  109.90152
_cell_angle_gamma                 108.380861
_cell_volume                      2586.31699178

loop_
_atom_site_label
_atom_site_type_symbol
_atom_type_description
_atom_site_fract_x
_atom_site_fract_y
_atom_site_fract_z
_atom_type_partial_charge
C1    C     C_R   0.199256 0.289720 0.195184 -0.211026
C2    C     C_R   0.415001 0.505949 0.202367 -0.092461
C3    C     C_R   0.497073 0.801432 0.588688 -0.146766
C4    C     C_R   0.566828 0.473446 0.783569 -0.121581
C5    C     C_R   0.709168 0.403258 0.410067 -0.121442
C6    C     C_R   0.437202 0.801596 0.495702 0.163195
C7    C     C_R   0.801652 0.429611 0.501120 0.055781
C8    C     C_R   0.453042 0.449450 0.145320 0.142041
C9    C     C_R   0.825659 0.822519 0.774833 0.073300
C10   C     C_R   0.863974 0.154163 0.096502 -0.115534
C11   C     C_R   0.883140 0.234797 0.193018 -0.175370
C12   C     C_R   0.510103 0.508407 0.828655 0.114199
C13   C     C_R   0.949169 0.248279 0.293887 0.107634
C14   C     C_R   0.996365 0.180433 0.296193 -0.140922
C15   C     C_R   0.976620 0.099807 0.199508 -0.102994
C16   C     C_R   0.433916 0.186713 0.406550 -0.165938
C17   C     C_R   0.909745 0.086058 0.099744 -0.082096
C18   C     C_R   0.872903 0.330925 0.400452 -0.250296
C19   C     C_R   0.881587 0.390397 0.500512 0.053147
C20   C     C_R   0.975044 0.422525 0.597267 0.056808
C21   C     C_R   0.069455 0.429348 0.593432 -0.254754
C22   C     C_R   0.067905 0.396357 0.494202 0.059319
C23   C     C_R   0.454539 0.173217 0.495353 0.142870
C24   C     C_R   0.964851 0.328480 0.396630 0.034538
C25   C     C_R   0.059781 0.543117 0.798712 -0.265140
C26   C     C_R   0.057085 0.566104 0.895029 -0.258587
C27   C     C_R   0.970288 0.492110 0.894665 0.719382
C28   C     C_R   0.274189 0.526527 0.588056 -0.119601
C29   C     C_R   0.889652 0.392627 0.798389 -0.298838
C30   C     C_R   0.892232 0.369406 0.702009 -0.244881
C31   C     C_R   0.976126 0.445440 0.700932 0.130054
C32   C     C_R   0.541040 0.436863 0.948593 0.062686
C33   C     C_R   0.478747 0.472059 0.893442 0.068337
C34   C     C_R   0.171609 0.447348 0.495372 0.049495
C35   C     C_R   0.380925 0.460513 0.893236 -0.364627
C36   C     C_R   0.358904 0.434708 0.966562 0.608661
C37   C     C_R   0.440842 0.428537 0.041939 -0.114020
C38   C     C_R   0.523470 0.416609 0.023233 -0.092160
C39   C     C_3   0.645049 0.465244 0.098548 0.597272
C40   C     C_R   0.532598 0.274382 0.588481 -0.085225
C41   C     C_3   0.663399 0.486942 0.014129 -0.647886
C42   C     C_R   0.380855 0.885544 0.392374 0.034295
C43   C     C_R   0.401788 0.878985 0.485918 -0.191733
C44   C     C_R   0.398500 0.954560 0.570231 0.412656
C45   C     C_R   0.407189 0.707682 0.406874 -0.140700
C46   C     C_R   0.410151 0.053757 0.573936 0.488162
C47   C     C_R   0.411982 0.067218 0.486529 -0.259210
C48   C     C_R   0.384639 0.977582 0.391883 0.014727
C49   C     C_3   0.439194 0.970736 0.324089 0.535778
C50   C     C_3   0.434188 0.868735 0.324720 -0.590396
C51   C     C_R   0.112559 0.008091 0.991562 0.155787
C52   C     C_R   0.184593 0.435161 0.406115 -0.131651
C53   C     C_R   0.117937 0.109458 0.022332 0.061841
C54   C     C_R   0.036642 0.118577 0.950185 -0.198951
C55   C     C_R   0.942438 0.023305 0.858152 -0.240340
C56   C     C_R   0.800435 0.495290 0.590934 -0.153748
C57   C     C_R   0.931561 0.920643 0.839562 0.045585
C58   C     C_R   0.022210 0.915496 0.901155 0.132563
C59   C     C_3   0.029205 0.849984 0.956713 -0.592492
C60   C     C_3   0.129247 0.952445 0.055873 -0.392406
C61   C     C_R   0.473463 0.565097 0.785056 -0.162870
C62   C     C_R   0.296685 0.203742 0.196126 0.586574
C63   C     C_R   0.200289 0.197755 0.132444 -0.110207
C64   C     C_3   0.933677 0.593107 0.013921 -0.314535
C65   C     C_3   0.170611 0.350113 0.880030 -0.231013
C66   C     C_3   0.792989 0.591488 0.271624 -0.229450
C67   C     C_R   0.508599 0.414311 0.205036 -0.072475
C68   C     C_3   0.289177 0.858566 0.615569 -0.236636
C69   C     C_3   0.506213 0.170918 0.760308 -0.174876
C70   C     C_3   0.428651 0.959545 0.165497 -0.214896
C71   C     C_3   0.357636 0.148186 0.074603 -0.303233
C72   C     C_R   0.723298 0.814422 0.750297 -0.139286
C73   C     C_R   0.813446 0.719539 0.744745 -0.140898
H1    H     H_    0.143359 0.318454 0.166613 0.142485
H2    H     H_    0.615139 0.436425 0.806818 0.095200
H3    H     H_    0.046885 0.188723 0.372726 0.118900
H4    H     H_    0.012127 0.047132 0.201912 0.105338
H5    H     H_    0.795585 0.287802 0.325061 0.118132
H6    H     H_    0.144469 0.463368 0.668473 0.121013
H7    H     H_    0.125668 0.602477 0.799940 0.140736
H8    H     H_    0.121806 0.641802 0.969703 0.154793
H9    H     H_    0.823877 0.334030 0.797952 0.137773
H10   H     H_    0.827896 0.293005 0.627807 0.144110
H11   H     H_    0.326535 0.478448 0.842467 0.143047
H12   H     H_    0.852774 0.523981 0.675114 0.119660
H13   H     H_    0.375749 0.125053 0.322456 0.192882
H14   H     H_    0.665350 0.402597 0.109137 -0.035465
H15   H     H_    0.695256 0.436903 0.975520 0.157722
H16   H     H_    0.524310 0.041348 0.368731 0.004334
H17   H     H_    0.377416 0.792880 0.243501 0.219523
H18   H     H_    0.517160 0.878987 0.369643 0.166700
H19   H     H_    0.040506 0.196874 0.969954 0.141757
H20   H     H_    0.874533 0.029596 0.809211 0.135013
H21   H     H_    0.958762 0.821360 0.970161 0.207534
H22   H     H_    0.048887 0.786010 0.919352 0.200147
H23   H     H_    0.540643 0.360424 0.181101 0.070872
H24   H     H_    0.205383 0.946338 0.074000 0.254623
H25   H     H_    0.573159 0.290706 0.670333 0.113397
H26   H     H_    0.122844 0.385260 0.321094 0.124013
H27   H     H_    0.438423 0.614142 0.813106 0.096175
H28   H     H_    0.676195 0.343727 0.326275 0.085402
H29   H     H_    0.846623 0.286556 0.189014 0.107531
H30   H     H_    0.853262 0.567224 0.944977 0.133020
H31   H     H_    0.997855 0.673561 0.036987 0.159889
H32   H     H_    0.922533 0.603895 0.084928 0.183884
H33   H     H_    0.169445 0.270260 0.851828 0.129511
H34   H     H_    0.703227 0.879505 0.764297 0.094107
H35   H     H_    0.155557 0.371324 0.815049 0.150777
H36   H     H_    0.101267 0.340341 0.895807 0.176550
H37   H     H_    0.849686 0.599891 0.238450 0.129564
H38   H     H_    0.788540 0.530539 0.298288 0.130233
H39   H     H_    0.827867 0.671611 0.344545 0.172072
H40   H     H_    0.707841 0.575083 0.041120 0.219932
H41   H     H_    0.266975 0.777432 0.551730 0.144820
H42   H     H_    0.227236 0.883141 0.584294 0.142823
H43   H     H_    0.286301 0.849875 0.684411 0.159764
H44   H     H_    0.575310 0.159766 0.754294 0.095180
H45   H     H_    0.876147 0.696347 0.750706 0.111947
H46   H     H_    0.476340 0.129179 0.800455 0.188814
H47   H     H_    0.540557 0.259286 0.814017 0.134869
H48   H     H_    0.467862 0.907030 0.161278 0.128838
H49   H     H_    0.491847 0.046583 0.205831 0.152319
H50   H     H_    0.371113 0.933636 0.080711 0.162653
H51   H     H_    0.291887 0.561907 0.670703 0.088396
H52   H     H_    0.117152 0.983313 0.126559 0.175509
H53   H     H_    0.443606 0.170989 0.093688 0.151411
H54   H     H_    0.336534 0.205495 0.052825 0.134496
H55   H     H_    0.305113 0.064609 0.002288 0.158770
H56   H     H_    0.361642 0.537896 0.176407 0.150642
H57   H     H_    0.346916 0.674064 0.322926 0.119123
H58   H     H_    0.521943 0.856666 0.671397 0.146847
H59   H     H_    0.893048 0.022259 0.024996 0.124505
H60   H     H_    0.812797 0.143798 0.019066 0.109124
N1    N     N_R   0.291070 0.347930 0.293870 -0.069924
N2    N     N_R   0.497240 0.291100 0.443210 -0.044963
N3    N     N_R   0.347890 0.554050 0.556810 -0.040366
N4    N     N_R   0.554050 0.347900 0.556830 -0.055066
N5    N     N_R   0.291070 0.497250 0.443190 -0.041146
N6    N     N_R   0.497240 0.554030 0.706140 -0.037740
N7    N     N_R   0.347890 0.291110 0.293870 -0.094079
N8    N     N_R   0.445950 0.652100 0.443170 -0.045714
N9    N     N_R   0.708930 0.502750 0.556810 -0.042880
N10   N     N_R   0.502760 0.445970 0.293860 -0.049106
N11   N     N_R   0.652110 0.708890 0.706130 -0.039666
N12   N     N_R   0.708930 0.652070 0.706130 -0.044404
N13   N     N_R   0.445950 0.502780 0.293850 -0.058400
N14   N     N_R   0.502760 0.708900 0.556790 -0.048732
N15   N     N_R   0.652110 0.445950 0.443190 -0.034945
N16   N     N_R   0.554050 0.497220 0.706150 -0.043523
Ni1   Ni    Ni4+2 0.369690 0.500010 0.369700 0.210906
Ni2   Ni    Ni4+2 0.630310 0.499990 0.630300 0.205212
Ni3   Ni    Ni4+2 0.500000 0.369720 0.369720 0.242126
Ni4   Ni    Ni4+2 0.500000 0.630280 0.630280 0.214282
O1    O     O_3   0.966591 0.513295 0.989168 -0.624686
O2    O     O_3   0.269636 0.434288 0.977419 -0.638117
O3    O     O_3   0.687173 0.563255 0.195172 -0.590708
O4    O     O_3   0.396549 0.938621 0.654154 -0.630275
O5    O     O_3   0.417380 0.136459 0.659150 -0.604388
O6    O     O_3   0.368572 0.947446 0.219333 -0.608790
O7    O     O_3   0.348761 0.147067 0.164244 -0.641187

loop_
_geom_bond_atom_site_label_1
_geom_bond_atom_site_label_2
_ccdc_geom_bond_type
C25   C31   A    
C64   H30   S    
C16   H13   S    
C3    N14   A    
N3    Ni4   S    
C6    C45   A    
C27   C29   A    
C25   H7    S    
C53   C63   S    
C35   C36   A    
C9    C72   A    
C39   H14   S    
C55   H20   S    
C3    C6    A    
C67   N10   A    
C56   H12   S    
C64   H32   S    
C39   C41   S    
C15   H4    S    
C53   C54   A    
N5    Ni1   S    
C4    N16   A    
C26   C27   A    
C37   C38   A    
C9    C73   A    
C3    H58   S    
C1    H1    S    
C60   H52   S    
C70   O6    S    
N16   Ni2   S    
N1    N7    A    
C30   C31   A    
N6    Ni4   S    
C10   C17   A    
N4    Ni2   S    
C23   C40   A    
N1    Ni1   S    
C64   O1    S    
N11   Ni4   S    
C2    H56   S    
C72   N11   A    
C18   C19   A    
C46   C47   A    
C30   H10   S    
C4    H2    S    
N13   Ni1   S    
C70   H50   S    
C50   H17   S    
C19   C20   A    
C52   N5    A    
C32   C41   S    
C10   H60   S    
C71   H53   S    
C18   C24   A    
C59   H21   S    
C32   C38   A    
C66   H38   S    
C4    C12   A    
C29   C30   A    
N7    Ni3   S    
C65   H35   S    
C9    C57   S    
C56   N9    A    
C16   C23   A    
C27   O1    S    
C28   C34   A    
C59   C60   S    
C5    N15   A    
N2    N4    A    
C13   C14   A    
C17   H59   S    
C45   N8    A    
C44   O4    S    
C71   H54   S    
N2    Ni3   S    
C59   H22   S    
C7    C56   A    
C1    C63   A    
C44   C46   A    
N8    Ni1   S    
C22   C34   S    
C5    H28   S    
C23   C47   S    
N9    N15   A    
N3    N5    A    
C60   H24   S    
N10   N13   A    
C41   H40   S    
C5    C7    A    
C61   N6    A    
C25   C26   A    
C69   H46   S    
C13   C24   S    
C73   N12   A    
C51   C53   A    
C14   H3    S    
N9    Ni2   S    
C43   C44   A    
C54   H19   S    
C62   C63   A    
C71   O7    S    
C70   H49   S    
C47   C48   A    
C72   H34   S    
C18   H5    S    
C40   H25   S    
C40   N4    A    
C21   H6    S    
C69   O5    S    
C51   C58   A    
C42   C48   A    
C66   H37   S    
C65   H36   S    
N12   Ni2   S    
C68   H43   S    
C48   C49   S    
C42   C50   S    
C26   H8    S    
C7    C19   S    
C6    C43   S    
C55   C57   A    
C67   H23   S    
C22   C24   A    
C71   H55   S    
C61   H27   S    
C8    C37   S    
C68   O4    S    
C65   H33   S    
C64   H31   S    
C41   H15   S    
C54   C55   A    
C36   C37   A    
C73   H45   S    
C52   H26   S    
C28   N3    A    
C2    C8    A    
N15   Ni3   S    
C49   H16   S    
N11   N12   A    
C35   H11   S    
C28   H51   S    
C15   C17   A    
C2    N13   A    
C69   H47   S    
C34   C52   A    
C39   O3    S    
C66   H39   S    
C32   C33   A    
C58   C59   S    
C29   H9    S    
C65   O2    S    
C66   O3    S    
C12   C61   A    
C11   C13   A    
C70   H48   S    
C57   C58   A    
C38   C39   S    
C69   H44   S    
C33   C35   A    
N6    N16   A    
C11   H29   S    
C62   O7    S    
N14   Ni4   S    
C10   C11   A    
N8    N14   A    
C68   H42   S    
C50   H18   S    
C45   H57   S    
C20   C21   A    
C8    C67   A    
C49   C50   S    
C42   C43   A    
C14   C15   A    
C49   O6    S    
C51   C60   S    
C62   N7    A    
C12   C33   S    
C21   C22   A    
C16   N2    A    
N10   Ni3   S    
C1    N1    A    
C36   O2    S    
C68   H41   S    
C20   C31   S    
C46   O5    S    
