data_mof_unit_37950.cif
_audit_creation_date              2013-03-05T16:12:10-0500
_audit_creation_method            fapswitch 2.2
_symmetry_space_group_name_H-M    P1
_symmetry_Int_Tables_number       1
_space_group_crystal_system       triclinic
_cell_length_a                    10.789007
_cell_length_b                    9.430344
_cell_length_c                    27.808381
_cell_angle_alpha                 89.789189
_cell_angle_beta                  90.542395
_cell_angle_gamma                 90.814933
_cell_volume                      2828.90650985

loop_
_atom_site_label
_atom_site_type_symbol
_atom_site_description
_atom_site_fract_x
_atom_site_fract_y
_atom_site_fract_z
_atom_type_partial_charge
O1    O     O_R   0.317570 0.620260 0.500030 -0.587865
O2    O     O_R   0.317570 0.379740 0.500030 -0.541367
C1    C     C_R   0.259601 0.499147 0.500517 0.872842
O3    O     O_R   0.499900 0.620250 0.430280 -0.571968
O4    O     O_R   0.499900 0.379750 0.430280 -0.563141
C2    C     C_R   0.499889 0.500278 0.407486 0.854064
Cu1   Cu    Cu3+1 0.499860 0.642410 0.500020 0.926917
Cu2   Cu    Cu3+1 0.499860 0.357590 0.500020 0.953054
O5    O     O_R   0.682190 0.620260 0.500010 -0.606204
O6    O     O_R   0.682190 0.379740 0.500010 -0.607083
O7    O     O_R   0.499860 0.620280 0.569750 -0.605295
O8    O     O_R   0.499860 0.379720 0.569750 -0.563526
C3    C     C_R   0.739534 0.501078 0.499809 0.892598
C4    C     C_R   0.501590 0.499621 0.592547 0.864527
C5    C     C_R   0.389490 0.489590 0.177821 0.549300
O9    O     O_2   0.283775 0.476898 0.203103 -0.492056
N1    N     N_R   0.499517 0.502607 0.202061 -0.488056
C6    C     C_R   0.609740 0.515158 0.178699 0.543082
C7    C     C_R   0.504381 0.374752 0.278743 -0.132949
C8    C     C_R   0.504634 0.373480 0.328849 -0.215516
C9    C     C_R   0.494970 0.630326 0.329164 -0.185529
C10   C     C_R   0.494437 0.632171 0.278963 0.193116
C11   C     C_R   0.499327 0.503390 0.253620 0.317702
C12   C     C_R   0.500034 0.500210 0.102002 -0.142121
C13   C     C_R   0.386691 0.488989 0.127077 -0.012656
C14   C     C_R   0.274579 0.481043 0.100636 0.165526
C15   C     C_R   0.612959 0.515175 0.127963 -0.009714
C16   C     C_R   0.499833 0.501258 0.354526 -0.083649
C17   C     C_R   0.503636 0.498904 0.645615 -0.111530
C18   C     C_R   0.391439 0.450608 0.974396 0.019111
C19   C     C_R   0.608741 0.533349 0.974855 0.078037
C20   C     C_R   0.499214 0.493370 0.949238 0.019967
C21   C     C_R   0.292594 0.384835 0.948159 0.083260
C22   C     C_R   0.291510 0.387403 0.897343 0.132104
C23   C     C_R   0.393133 0.446523 0.872110 -0.058944
C24   C     C_R   0.498241 0.495444 0.898221 -0.100765
C25   C     C_R   0.603168 0.546609 0.873263 0.001610
C26   C     C_R   0.601159 0.550441 0.822940 0.549296
N2    N     N_R   0.498628 0.504493 0.798204 -0.455055
C27   C     C_R   0.395862 0.453392 0.821235 0.585758
C28   C     C_R   0.457763 0.620492 0.720238 0.146819
C29   C     C_R   0.459363 0.617443 0.670160 -0.251689
C30   C     C_R   0.549195 0.381925 0.672044 0.083813
C31   C     C_R   0.547049 0.384553 0.722785 0.130842
C32   C     C_R   0.501088 0.503457 0.746621 0.303896
O10   O     O_2   0.297467 0.409449 0.794663 -0.506531
C33   C     C_R   0.388588 0.471020 0.025100 0.056720
C34   C     C_R   0.500328 0.496914 0.050862 0.051978
C35   C     C_R   0.611973 0.521095 0.025732 0.030012
C36   C     C_R   0.276704 0.474491 0.050556 -0.223799
H1    H     H_    0.188485 0.479033 0.032019 0.164662
O11   O     O_2   0.715247 0.527863 0.204854 -0.494185
C37   C     C_R   0.724980 0.528726 0.102453 0.183626
H2    H     H_    0.508269 0.275642 0.259307 0.146667
C38   C     C_R   0.711244 0.585826 0.948706 -0.212809
C39   C     C_R   0.708106 0.592732 0.898893 -0.150473
O12   O     O_2   0.701071 0.599084 0.798745 -0.547394
C40   C     C_R   0.723405 0.532326 0.052287 -0.270873
C41   C     C_3   0.071311 0.447769 0.552373 0.253623
C42   C     C_3   0.067917 0.397320 0.458802 0.288076
C43   C     C_3   0.925535 0.430185 0.547567 -0.089678
C44   C     C_3   0.922326 0.415007 0.455846 -0.130364
H3    H     H_    0.114709 0.729241 0.516912 0.189246
H4    H     H_    0.098604 0.691985 0.455850 0.177685
H5    H     H_    0.906406 0.717581 0.528924 0.169429
H6    H     H_    0.890573 0.713933 0.465566 0.182838
C45   C     C_3   0.072132 0.651043 0.491716 -0.492832
C46   C     C_3   0.120925 0.496664 0.500979 0.109686
C47   C     C_3   0.876903 0.502007 0.500057 0.060591
C48   C     C_3   0.930858 0.655376 0.496616 -0.425644
C49   C     C_3   0.623469 0.085308 0.515029 -0.259605
C50   C     C_3   0.623676 0.917791 0.514716 -0.271183
H7    H     H_    0.695844 0.123941 0.489783 0.137226
H8    H     H_    0.695322 0.882149 0.489126 0.141215
C51   C     C_3   0.410173 0.081911 0.535965 -0.216474
C52   C     C_3   0.411295 0.914855 0.536429 -0.198251
C53   C     C_3   0.470132 0.084226 0.452417 0.128092
C54   C     C_3   0.469258 0.915192 0.452502 0.140720
N3    N     N_3   0.500250 0.143650 0.501060 -0.119457
N4    N     N_3   0.500250 0.856350 0.501060 -0.117489
H9    H     H_    0.545836 0.118143 0.427679 0.100102
H10   H     H_    0.544202 0.883537 0.427555 0.104356
H11   H     H_    0.491532 0.730141 0.348186 0.160966
N5    N     N_3   0.842009 0.538469 0.126999 -0.501059
H12   H     H_    0.886367 0.632561 0.116312 0.211829
H13   H     H_    0.895356 0.453186 0.115946 0.211920
H14   H     H_    0.794088 0.627075 0.965934 0.135874
N6    N     N_3   0.600051 0.262987 0.647367 -0.582952
H15   H     H_    0.692509 0.251556 0.658043 0.216770
H16   H     H_    0.550317 0.171429 0.656936 0.208137
H17   H     H_    0.788994 0.634292 0.880502 0.182803
N7    N     N_3   0.591264 0.267436 0.750832 -0.572363
H18   H     H_    0.539880 0.176646 0.741572 0.225320
H19   H     H_    0.684277 0.251058 0.742635 0.226536
H20   H     H_    0.812307 0.539257 0.034920 0.131986
N8    N     N_3   0.109129 0.553367 0.589209 -0.620161
H21   H     H_    0.057295 0.645613 0.587192 0.217131
H22   H     H_    0.096054 0.511507 0.623696 0.228544
N9    N     N_3   0.130768 0.432863 0.413106 -0.571148
H23   H     H_    0.118052 0.537023 0.401894 0.203018
H24   H     H_    0.098920 0.366676 0.385418 0.224326
N10   N     N_3   0.124510 0.310555 0.566736 -0.618136
H25   H     H_    0.216013 0.325781 0.578597 0.235567
H26   H     H_    0.076601 0.270337 0.596469 0.205674
N11   N     N_3   0.095004 0.247203 0.469142 -0.565780
H27   H     H_    0.075289 0.186702 0.438466 0.193358
H28   H     H_    0.036351 0.204269 0.495152 0.200350
H29   H     H_    0.903158 0.315097 0.543988 0.144244
H30   H     H_    0.878148 0.307708 0.458291 0.133312
N12   N     N_3   0.488592 0.765501 0.254312 -0.602795
H31   H     H_    0.410176 0.764080 0.231937 0.235547
H32   H     H_    0.566843 0.775949 0.232641 0.238379
N13   N     N_3   0.857034 0.475721 0.590235 -0.606809
H33   H     H_    0.862517 0.585221 0.595105 0.221285
H34   H     H_    0.892191 0.425141 0.620856 0.227533
N14   N     N_3   0.875763 0.475678 0.410389 -0.607503
H35   H     H_    0.919756 0.571662 0.402034 0.233651
H36   H     H_    0.890118 0.404353 0.382370 0.230280
H37   H     H_    0.651213 0.124649 0.551295 0.180474
H38   H     H_    0.652338 0.877540 0.550748 0.162947
H39   H     H_    0.432383 0.120754 0.572774 0.159954
H40   H     H_    0.436335 0.878499 0.573291 0.147941
N15   N     N_3   0.356374 0.146226 0.432823 -0.505249
H41   H     H_    0.278916 0.103215 0.449600 0.222705
H42   H     H_    0.349373 0.123916 0.396095 0.182803
N16   N     N_3   0.354833 0.849590 0.433147 -0.541442
H43   H     H_    0.276676 0.877279 0.452517 0.197006
H44   H     H_    0.342224 0.880115 0.397289 0.182459
H45   H     H_    0.315036 0.119046 0.528204 0.173575
H46   H     H_    0.316236 0.872831 0.530039 0.145062
N17   N     N_3   0.157039 0.481593 0.124070 -0.503537
H47   H     H_    0.108801 0.389003 0.114311 0.218667
H48   H     H_    0.107699 0.568597 0.111147 0.202872
H49   H     H_    0.424315 0.707851 0.650372 0.176254
N18   N     N_3   0.411424 0.743363 0.743806 -0.587602
H50   H     H_    0.481423 0.784205 0.766251 0.233589
H51   H     H_    0.336929 0.711920 0.765314 0.239642
N19   N     N_3   0.187776 0.327082 0.871454 -0.509586
H52   H     H_    0.178868 0.219544 0.880117 0.218296
H53   H     H_    0.107264 0.379442 0.881392 0.218926
N20   N     N_3   0.200561 0.301327 0.972866 -0.609891
H54   H     H_    0.112426 0.337981 0.963726 0.206541
H55   H     H_    0.207541 0.195572 0.962245 0.227461
H56   H     H_    0.508989 0.272533 0.347397 0.154424

loop_
_geom_bond_atom_site_label_1
_geom_bond_atom_site_label_2
_geom_bond_distance
_ccdc_geom_bond_type
C38   C39   1.386612 A    
C51   C52   1.575621 S    
N16   H43   1.041762 S    
C17   C29   1.403800 A    
C28   C29   1.393277 A    
C8    H56   1.082441 S    
C7    C8    1.393354 A    
C12   C15   1.415873 A    
C30   C31   1.411746 A    
C42   N9    1.481107 S    
C49   N3    1.493446 S    
C6    O11   1.349157 S    
N15   H41   1.037736 S    
N17   H48   1.045148 S    
C53   C54   1.593932 S    
Cu1   O7    1.949513 S    
N11   H28   1.042494 S    
N1    C11   1.433853 S    
C37   N5    1.431580 S    
C30   N6    1.435380 S    
C20   C24   1.418713 A    
C24   C25   1.411716 A    
C1    C46   1.496205 S    
N5    H13   1.044454 S    
C14   C36   1.394657 A    
O4    C2    1.299380 A    
O7    C4    1.300782 A    
C54   N4    1.494761 S    
C5    C13   1.411173 A    
C5    O9    1.349134 S    
N14   H35   1.042548 S    
C42   C44   1.583298 S    
C22   C23   1.414077 A    
C43   H29   1.113106 S    
O5    C3    1.290695 A    
N12   H31   1.045394 S    
C25   C39   1.397132 A    
C52   H46   1.107233 S    
C39   H17   1.083519 S    
C2    C16   1.472713 S    
C9    H11   1.082699 S    
N14   H36   1.045271 S    
C10   N12   1.431764 S    
N8    H22   1.045790 S    
Cu2   N3    2.017692 S    
C31   N7    1.434324 S    
N2    C32   1.435005 S    
C51   H39   1.111291 S    
C9    C10   1.396006 A    
C17   C30   1.414681 A    
C47   C48   1.554333 S    
C19   C35   1.419238 A    
O3    Cu1   1.951352 S    
C36   H1    1.079432 S    
C33   C36   1.405989 A    
C53   N3    1.497139 S    
H3    C45   1.110778 S    
C41   C43   1.583582 S    
C45   C46   1.574636 S    
C12   C34   1.422612 A    
H4    C45   1.106720 S    
C18   C33   1.424465 A    
N18   H50   1.045409 S    
C12   C13   1.415883 A    
C50   H8    1.111942 S    
Cu1   Cu2   2.685950 S    
N2    C27   1.366633 A    
C49   H7    1.111628 S    
C8    C16   1.404755 A    
C21   N20   1.436961 S    
C13   C14   1.410789 A    
C51   H45   1.108268 S    
C22   N19   1.436690 S    
C35   C40   1.407862 A    
C44   C47   1.566858 S    
O1    C1    1.294427 A    
C23   C24   1.413510 A    
C7    C11   1.399134 A    
C40   H20   1.079006 S    
C44   N14   1.472590 S    
C25   C26   1.399711 A    
C53   N15   1.466458 S    
C41   C46   1.595096 S    
C26   O12   1.350000 S    
C54   H10   1.114982 S    
C19   C20   1.421039 A    
C53   H9    1.115456 S    
Cu2   O8    1.951040 S    
N8    H21   1.041888 S    
C50   H38   1.112822 S    
N7    H19   1.044917 S    
N1    C6    1.363937 A    
N5    H12   1.045638 S    
N10   H26   1.046357 S    
N19   H53   1.045219 S    
C7    H2    1.082911 S    
O3    C2    1.298871 A    
C34   C35   1.413579 A    
N9    H24   1.045418 S    
C9    C16   1.405856 A    
N6    H16   1.045021 S    
C43   N13   1.472369 S    
C41   N8    1.481698 S    
C27   O10   1.348913 S    
C4    C17   1.475689 S    
N17   H47   1.045483 S    
C54   N16   1.471268 S    
C28   N18   1.431901 S    
C31   C32   1.403600 A    
N13   H33   1.042724 S    
C43   C47   1.571611 S    
N18   H51   1.045289 S    
N16   H44   1.045039 S    
C18   C21   1.422713 A    
O1    Cu1   1.974837 S    
C41   N10   1.475242 S    
O2    Cu2   1.980745 S    
C6    C15   1.411630 A    
C52   N4    1.493261 S    
O8    C4    1.298146 A    
C33   C34   1.415193 A    
O6    C3    1.293064 A    
O4    Cu2   1.949822 S    
C37   C40   1.395250 A    
C15   C37   1.411195 A    
C5    N1    1.363779 A    
N11   H27   1.046488 S    
H6    C48   1.111574 S    
N9    H23   1.040018 S    
C49   H37   1.112735 S    
C29   H49   1.083715 S    
C45   C48   1.532698 S    
C52   H40   1.111797 S    
N20   H55   1.045113 S    
O2    C1    1.296009 A    
C49   C50   1.579841 S    
C50   N4    1.491071 S    
N20   H54   1.045181 S    
C18   C20   1.415672 A    
C26   N2    1.363349 A    
C44   H30   1.114481 S    
C3    C47   1.481928 S    
N7    H18   1.045038 S    
C21   C22   1.413175 A    
C23   C27   1.416566 A    
C38   H14   1.078469 S    
N10   H25   1.046022 S    
N12   H32   1.045215 S    
N15   H42   1.045379 S    
N19   H52   1.044786 S    
C42   N11   1.476255 S    
Cu1   O5    1.981173 S    
N6    H15   1.045001 S    
C42   C46   1.600171 S    
Cu2   O6    1.975265 S    
C28   C32   1.406093 A    
C10   C11   1.408246 A    
C19   C38   1.411996 A    
C51   N3    1.491049 S    
C14   N17   1.431344 S    
H5    C48   1.110722 S    
Cu1   N4    2.017785 S    
N13   H34   1.045225 S    
