data_mof_unit_64829.cif
_audit_creation_date              2012-12-10T19:40:47-0500
_audit_creation_method            fapswitch 2.2
_symmetry_space_group_name_H-M    P1
_symmetry_Int_Tables_number       1
_space_group_crystal_system       triclinic
_cell_length_a                    18.377388
_cell_length_b                    18.433927
_cell_length_c                    18.466146
_cell_angle_alpha                 120.074173
_cell_angle_beta                  120.115833
_cell_angle_gamma                 89.916706
_cell_volume                      4413.96584958

loop_
_atom_site_label
_atom_site_type_symbol
_atom_type_description
_atom_site_fract_x
_atom_site_fract_y
_atom_site_fract_z
_atom_type_partial_charge
Br1   Br    Br    0.341769 0.759154 0.892106 -0.379251
Br2   Br    Br    0.552835 0.668257 0.222600 -0.447159
Br3   Br    Br    0.360845 0.704038 0.673921 -0.373655
Br4   Br    Br    0.138415 0.024332 0.439462 -0.499951
Br5   Br    Br    0.584405 0.362140 0.882739 -0.410532
Br6   Br    Br    0.785054 0.371093 0.771563 -0.491439
Br7   Br    Br    0.606309 0.375797 0.601838 -0.430710
Br8   Br    Br    0.869030 0.755013 0.714582 -0.454067
C1    C     C_R   0.360057 0.139926 0.500042 0.841317
C2    C     C_3   0.679315 0.736678 0.322619 0.134521
C3    C     C_R   0.213276 0.772787 0.435271 0.127200
C4    C     C_R   0.640070 0.860422 0.500229 0.852579
C5    C     C_R   0.305546 0.805418 0.501496 -0.127403
C6    C     C_R   0.345719 0.782950 0.571896 -0.242305
C7    C     C_R   0.293946 0.728969 0.573843 0.274429
C8    C     C_R   0.198861 0.696509 0.503899 -0.163596
C9    C     C_R   0.162680 0.721205 0.436616 0.080963
C10   C     C_3   0.077408 0.709312 0.349082 -0.438040
C11   C     C_3   0.135297 0.768113 0.347550 -0.412435
C12   C     C_2   0.303944 0.812516 0.112315 -0.346923
C13   C     C_R   0.213077 0.161694 0.441996 0.083670
C14   C     C_R   0.305349 0.196373 0.500225 -0.089738
C15   C     C_R   0.344264 0.289735 0.560262 -0.147352
C16   C     C_R   0.639907 0.139903 0.499956 0.824538
C17   C     C_R   0.290356 0.343923 0.560268 -0.179039
C18   C     C_R   0.196669 0.305599 0.500033 -0.067549
C19   C     C_R   0.161363 0.213685 0.441451 0.067028
C20   C     C_3   0.076808 0.137697 0.370449 -0.476510
C21   C     C_3   0.135870 0.078199 0.371275 0.118962
C22   C     C_R   0.718309 0.286477 0.948226 0.076982
C23   C     C_R   0.711407 0.762811 0.426892 0.072449
C24   C     C_R   0.695010 0.194295 0.890151 -0.075020
C25   C     C_R   0.728549 0.156234 0.945573 -0.191515
C26   C     C_R   0.782861 0.210374 0.054071 -0.200664
C27   C     C_R   0.805101 0.303968 0.109917 -0.054818
C28   C     C_R   0.360018 0.860113 0.499846 0.850584
C29   C     C_R   0.770715 0.338417 0.052362 0.065594
C30   C     C_3   0.766433 0.422576 0.060338 -0.489661
C31   C     C_3   0.707001 0.363643 0.941944 0.140175
C32   C     C_R   0.724011 0.287024 0.562598 0.058502
C33   C     C_R   0.694934 0.194749 0.498621 -0.066230
C34   C     C_R   0.699058 0.808467 0.504236 -0.117747
C35   C     C_R   0.721249 0.155996 0.431403 -0.193605
C36   C     C_R   0.775188 0.209876 0.431237 -0.197193
C37   C     C_R   0.803675 0.303499 0.498168 -0.035712
C38   C     C_R   0.775575 0.338712 0.562110 0.013978
C39   C     C_3   0.782387 0.423667 0.645021 -0.465077
C40   C     C_R   0.638773 0.138899 0.777809 0.818540
C41   C     C_3   0.723888 0.364867 0.646120 0.484251
C42   C     C_R   0.140726 0.640078 0.500774 0.840082
C43   C     C_R   0.859992 0.359929 0.499745 0.812210
C44   C     C_R   0.861707 0.641456 0.501928 0.845688
C45   C     C_R   0.747322 0.803250 0.588547 -0.234009
C46   C     C_R   0.140178 0.360230 0.500057 0.813745
C47   C     C_R   0.861130 0.360936 0.222212 0.804114
C48   C     C_R   0.139109 0.639719 0.777231 0.886592
C49   C     C_R   0.361182 0.862119 0.222952 0.893026
C50   C     C_2   0.282159 0.742080 0.946252 0.312382
C51   C     C_2   0.195781 0.692059 0.888405 -0.350486
C52   C     C_2   0.338022 0.788784 0.057834 -0.162570
C53   C     C_R   0.803315 0.751084 0.591620 0.267722
C54   C     C_R   0.810319 0.701464 0.507626 -0.127093
C55   C     C_R   0.764286 0.711991 0.428583 0.017817
C56   C     C_3   0.739486 0.678267 0.324333 -0.457747
H1    H     H_    0.417663 0.806804 0.625558 0.211633
H2    H     H_    0.832468 0.465837 0.094608 0.194134
H3    H     H_    0.738172 0.373357 0.907859 0.186306
H4    H     H_    0.794520 0.178132 0.379126 0.180009
H5    H     H_    0.749043 0.463163 0.616820 0.231500
H6    H     H_    0.232994 0.800020 0.076852 0.162904
H7    H     H_    0.796939 0.701426 0.326695 0.192310
H8    H     H_    0.702549 0.605551 0.268483 0.236149
H9    H     H_    0.701265 0.793293 0.323291 0.141608
H10   H     H_    0.134920 0.731921 0.277755 0.207731
H11   H     H_    0.125790 0.833646 0.369978 0.252456
H12   H     H_    0.043600 0.639262 0.280082 0.208568
H13   H     H_    0.415902 0.321032 0.607253 0.220712
H14   H     H_    0.043522 0.140918 0.407797 0.240008
H15   H     H_    0.731415 0.456010 0.095624 0.238555
H16   H     H_    0.700698 0.084451 0.379319 0.183348
H17   H     H_    0.409875 0.807453 0.096447 0.216748
H18   H     H_    0.851889 0.460867 0.715479 0.223637
H19   H     H_    0.742138 0.839946 0.652507 0.202541
H20   H     H_    0.034566 0.741010 0.372518 0.220206
H21   H     H_    0.322074 0.415263 0.607339 0.205588
H22   H     H_    0.165016 0.685424 0.922720 0.139079
H23   H     H_    0.033227 0.127521 0.295034 0.188960
H24   H     H_    0.125831 0.032592 0.296297 0.140776
H25   H     H_    0.713203 0.084912 0.905599 0.183452
H26   H     H_    0.807311 0.178800 0.093707 0.178520
O1    O     O_3   0.500000 0.000000 0.500000 -0.510089
O2    O     O_R   0.055460 0.323770 0.439940 -0.644447
O3    O     O_R   0.885490 0.446080 0.270840 -0.639958
O4    O     O_R   0.323800 0.055370 0.439900 -0.629585
O5    O     O_R   0.175320 0.614550 0.729170 -0.584452
O6    O     O_R   0.885490 0.324650 0.270840 -0.647188
O7    O     O_R   0.053870 0.614540 0.729150 -0.628249
O8    O     O_R   0.883910 0.615420 0.560060 -0.595702
O9    O     O_R   0.176240 0.444580 0.560100 -0.630699
O10   O     O_R   0.055460 0.616070 0.439920 -0.651461
O11   O     O_R   0.884570 0.323750 0.439920 -0.651478
O12   O     O_R   0.616140 0.055410 0.439930 -0.658846
O13   O     O_R   0.616140 0.884540 0.439940 -0.630681
O14   O     O_R   0.615480 0.176200 0.560080 -0.597711
O15   O     O_R   0.444590 0.883880 0.560080 -0.644095
O16   O     O_R   0.614550 0.175310 0.729160 -0.602567
O17   O     O_R   0.324730 0.885400 0.270830 -0.647977
O18   O     O_R   0.614550 0.053870 0.729160 -0.650523
O19   O     O_R   0.446170 0.885420 0.270850 -0.625164
O20   O     O_R   0.323800 0.884510 0.439910 -0.626764
O21   O     O_R   0.444590 0.176180 0.560060 -0.614503
O22   O     O_R   0.615480 0.883900 0.560100 -0.646052
O23   O     O_3   0.000040 0.499960 0.500000 -0.508280
O24   O     O_R   0.176240 0.615450 0.560090 -0.586240
O25   O     O_R   0.883910 0.444550 0.560070 -0.631670
O26   O     O_R   0.884570 0.616050 0.439900 -0.648276
Zn1   Zn    Zn3+2 0.543850 0.957090 0.414170 0.996259
Zn2   Zn    Zn3+2 0.542910 0.129670 0.585830 1.052229
Zn3   Zn    Zn3+2 0.542910 0.956180 0.585840 0.993098
Zn4   Zn    Zn3+2 0.370330 0.957070 0.414150 1.006129
Zn5   Zn    Zn3+2 0.956190 0.542870 0.585830 1.023331
Zn6   Zn    Zn3+2 0.957140 0.543780 0.414160 0.968015
Zn7   Zn    Zn3+2 0.957140 0.370280 0.414170 0.968559
Zn8   Zn    Zn3+2 0.129710 0.542890 0.585850 1.054762

loop_
_geom_bond_atom_site_label_1
_geom_bond_atom_site_label_2
_ccdc_geom_bond_type
O5    Zn8   S    
C1    O21   A    
C48   O5    A    
O25   Zn5   S    
C23   C34   A    
O8    Zn5   S    
C24   C40   S    
C47   O3    A    
O19   Zn1   S    
C39   C41   S    
C37   C38   A    
C32   C38   A    
C3    C11   S    
C18   C19   A    
C29   C30   S    
O26   Zn6   S    
O21   Zn2   S    
C20   C21   S    
C27   C29   A    
C8    C42   S    
C10   C11   S    
C34   C45   A    
C30   C31   S    
C2    H9    S    
C1    C14   S    
C39   H18   S    
C30   H15   S    
C37   C43   S    
C50   C52   S    
C7    C8    A    
C26   C27   A    
C56   H7    S    
C39   H5    S    
C21   H24   S    
O7    Zn5   S    
C45   C53   A    
C2    C23   S    
C40   O16   A    
O23   Zn6   S    
C30   H2    S    
C8    C9    A    
C10   H20   S    
O1    Zn1   S    
C12   C52   D    
C20   H14   S    
O10   Zn6   S    
Br4   C21   S    
Br8   C53   S    
O24   Zn8   S    
C15   C17   A    
C13   C19   A    
C13   C14   A    
O16   Zn2   S    
C16   C33   S    
C33   C35   A    
O18   Zn3   S    
C12   H6    S    
O13   Zn1   S    
O4    Zn4   S    
C48   O7    A    
C18   C46   S    
C25   C26   A    
O14   Zn2   S    
C44   O26   A    
C49   O19   A    
C4    C34   S    
C23   C55   A    
O3    Zn6   S    
Br7   C41   S    
C5    C28   S    
O2    Zn7   S    
O20   Zn4   S    
C35   H16   S    
C13   C21   S    
C27   C47   S    
C43   O25   A    
C22   C29   A    
C16   O14   A    
C35   C36   A    
C26   H26   S    
C46   O2    A    
C54   C55   A    
C25   H25   S    
C52   H17   S    
O23   Zn7   S    
C20   H23   S    
C17   H21   S    
C9    C10   S    
O1    Zn2   S    
O11   Zn7   S    
C15   H13   S    
O12   Zn1   S    
C4    O13   A    
C32   C33   A    
C49   O17   A    
Br5   C31   S    
C28   O20   A    
O1    Zn3   S    
C46   O9    A    
C36   H4    S    
Br2   C2    S    
O17   Zn4   S    
C4    O22   A    
Br3   C7    S    
C36   C37   A    
C38   C39   S    
C3    C9    A    
C10   H12   S    
O6    Zn7   S    
C28   O15   A    
C14   C15   A    
C31   H3    S    
C11   H10   S    
C2    C56   S    
C6    C7    A    
C47   O6    A    
O22   Zn3   S    
C43   O11   A    
C42   O10   A    
C48   C51   S    
C45   H19   S    
C24   C25   A    
C11   H11   S    
C17   C18   A    
C51   H22   S    
C44   C54   S    
Br1   C50   S    
C22   C24   A    
C3    C5    A    
C40   O18   A    
O23   Zn8   S    
C44   O8    A    
C6    H1    S    
C22   C31   S    
C16   O12   A    
C56   H8    S    
Br6   C41   S    
C53   C54   A    
C50   C51   D    
C55   C56   S    
O23   Zn5   S    
C19   C20   S    
O1    Zn4   S    
O15   Zn3   S    
C42   O24   A    
C12   C49   S    
C5    C6    A    
C1    O4    A    
C32   C41   S    
O9    Zn8   S    
