data_mof_unit_50361.cif
_audit_creation_date              2012-10-26T19:02:56-0400
_audit_creation_method            fapswitch 2.2
_symmetry_space_group_name_H-M    P1
_symmetry_Int_Tables_number       1
_space_group_crystal_system       triclinic
_cell_length_a                    15.033885
_cell_length_b                    10.885176
_cell_length_c                    9.84305
_cell_angle_alpha                 109.574611
_cell_angle_beta                  99.676346
_cell_angle_gamma                 90.107979
_cell_volume                      1493.15501462

loop_
_atom_site_label
_atom_site_type_symbol
_atom_type_description
_atom_site_fract_x
_atom_site_fract_y
_atom_site_fract_z
_atom_type_partial_charge
C1    C     C_R   0.499609 0.254188 0.443905 0.535164
C2    C     C_2   0.489388 0.496111 0.920498 0.045372
C3    C     C_R   0.329070 0.495997 0.498962 0.549773
C4    C     C_R   0.671006 0.502154 0.500610 0.529055
C5    C     C_R   0.822481 0.624760 0.573353 0.005405
C6    C     C_R   0.178179 0.372316 0.427538 -0.000327
C7    C     C_R   0.767599 0.507361 0.501981 0.015970
C8    C     C_R   0.232533 0.490403 0.496858 0.008093
C9    C     C_R   0.804375 0.390735 0.431587 -0.135186
C10   C     C_R   0.195518 0.607046 0.565924 -0.144920
C11   C     C_R   0.896648 0.386373 0.431845 0.012449
C12   C     C_R   0.511232 0.745987 0.556699 0.530812
C13   C     C_R   0.103403 0.610979 0.566240 0.008663
C14   C     C_R   0.953279 0.501368 0.500238 0.047159
C15   C     C_R   0.046922 0.495762 0.498418 0.045775
C16   C     C_R   0.916548 0.621710 0.570310 0.036596
C17   C     C_R   0.083883 0.375251 0.429449 0.032906
C18   C     C_R   0.932894 0.267766 0.365145 -0.135685
C19   C     C_R   0.067240 0.729494 0.633165 -0.136545
C20   C     C_3   0.780631 0.750887 0.651160 -0.273217
C21   C     C_3   0.800477 0.783564 0.817270 -0.425452
C22   C     C_3   0.221510 0.245029 0.357788 -0.284478
C23   C     C_R   0.025163 0.261803 0.364612 -0.133377
C24   C     C_3   0.239945 0.168251 0.462934 -0.431897
C25   C     C_3   0.601541 0.845267 0.360405 -0.245351
C26   C     C_3   0.676806 0.912797 0.318668 -0.446501
C27   C     C_3   0.623338 0.167723 0.661537 -0.227032
C28   C     C_3   0.695793 0.103937 0.739998 -0.444184
C29   C     C_2   0.620686 0.629189 0.944785 0.344838
C30   C     C_2   0.401825 0.333944 0.049055 0.363398
C31   C     C_R   0.975192 0.735203 0.634786 -0.132093
C32   C     C_2   0.511553 0.115626 0.421981 -0.123264
C33   C     C_2   0.526008 0.885520 0.582306 -0.130091
C34   C     C_2   0.564994 0.074178 0.522071 0.004463
C35   C     C_2   0.564729 0.932290 0.493079 0.000626
C36   C     C_2   0.504722 0.512529 0.080832 0.054466
Cu1   Cu    Cu3+1 0.515770 0.521810 0.644910 0.932161
Cu2   Cu    Cu3+1 0.484230 0.478190 0.355090 0.936138
H1    H     H_    0.760650 0.302123 0.378713 0.106088
H2    H     H_    0.552937 0.588297 0.156204 0.154274
H3    H     H_    0.779531 0.698792 0.845710 0.189707
H4    H     H_    0.873480 0.808462 0.862036 0.147284
H5    H     H_    0.762369 0.868444 0.870113 0.123511
H6    H     H_    0.804627 0.832877 0.620795 0.124554
H7    H     H_    0.706351 0.744501 0.616462 0.150053
H8    H     H_    0.287583 0.226511 0.563549 0.176555
H9    H     H_    0.176334 0.143754 0.494075 0.153482
H10   H     H_    0.271027 0.076049 0.409439 0.138258
H11   H     H_    0.179116 0.184574 0.252746 0.129569
H12   H     H_    0.239045 0.695907 0.618109 0.112144
H13   H     H_    0.286395 0.262161 0.326065 0.163233
H14   H     H_    0.651022 0.993952 0.281771 0.150133
H15   H     H_    0.733475 0.950766 0.412601 0.145458
H16   H     H_    0.703410 0.841313 0.227047 0.162915
H17   H     H_    0.630883 0.758991 0.382670 0.166692
H18   H     H_    0.544968 0.811847 0.265524 0.140399
H19   H     H_    0.664798 0.036465 0.784379 0.151809
H20   H     H_    0.740912 0.050531 0.664854 0.143026
H21   H     H_    0.737632 0.180963 0.833612 0.157581
H22   H     H_    0.659526 0.242169 0.632771 0.168351
H23   H     H_    0.889671 0.178766 0.313570 0.107150
H24   H     H_    0.579113 0.217687 0.740563 0.204022
H25   H     H_    0.636311 0.721364 0.931729 0.094906
H26   H     H_    0.342730 0.311681 0.088394 0.107561
H27   H     H_    0.110393 0.818576 0.684476 0.110803
H28   H     H_    0.048917 0.166859 0.312990 0.113518
H29   H     H_    0.951556 0.830016 0.687267 0.111766
H30   H     H_    0.504617 0.953364 0.678672 0.119015
H31   H     H_    0.475857 0.044682 0.320621 0.093474
H32   H     H_    0.431000 0.436790 0.848532 0.169995
N1    N     N_2   0.460520 0.445420 0.137370 -0.261721
N2    N     N_2   0.539480 0.554580 0.862630 -0.261114
O1    O     O_R   0.508410 0.332340 0.577400 -0.502967
O2    O     O_2   0.420763 0.256642 0.936800 -0.564131
O3    O     O_R   0.491590 0.667660 0.422600 -0.509362
O4    O     O_R   0.481780 0.295500 0.332650 -0.497448
O5    O     O_R   0.518220 0.704500 0.667350 -0.509240
O6    O     O_R   0.383570 0.518390 0.622380 -0.505992
O7    O     O_R   0.616430 0.481610 0.377620 -0.494057
O8    O     O_R   0.356940 0.481550 0.377630 -0.518381
O9    O     O_R   0.643060 0.518450 0.622370 -0.502345
O10   O     O_2   0.676048 0.586732 0.021030 -0.550214

loop_
_geom_bond_atom_site_label_1
_geom_bond_atom_site_label_2
_ccdc_geom_bond_type
C29   H25   S    
C11   C18   A    
C30   H26   S    
C25   H18   S    
C19   C31   A    
C30   N1    S    
C5    C20   S    
Cu2   O4    S    
C28   H19   S    
C16   C31   A    
C31   H29   S    
C17   C23   A    
C23   H28   S    
C27   H22   S    
C30   O2    D    
C11   C14   A    
Cu2   O7    S    
C6    C22   S    
C9    H1    S    
C7    C9    A    
C34   C35   S    
C5    C16   A    
C21   H5    S    
C4    O9    A    
C20   H7    S    
C36   N1    D    
C29   N2    S    
C1    O4    A    
Cu1   O9    S    
C4    C7    S    
C2    N2    D    
C3    O8    A    
C26   H16   S    
C20   H6    S    
Cu2   O3    S    
C27   C34   S    
C13   C19   A    
C18   C23   A    
C24   H10   S    
C36   H2    S    
C4    O7    A    
C3    C8    S    
C5    C7    A    
C6    C8    A    
C25   C26   S    
Cu1   O5    S    
C1    C32   S    
C32   C34   D    
Cu1   Cu2   S    
C27   H24   S    
C26   H14   S    
C12   O5    A    
C9    C11   A    
C25   C35   S    
C22   H11   S    
C21   H3    S    
C13   C15   A    
C22   C24   S    
C12   O3    A    
C10   H12   S    
C26   H15   S    
C28   H21   S    
C2    C36   S    
C15   C17   A    
C6    C17   A    
Cu1   O1    S    
Cu2   N1    S    
C24   H9    S    
C25   H17   S    
C10   C13   A    
C18   H23   S    
C32   H31   S    
C28   H20   S    
Cu1   O6    S    
C1    O1    A    
C24   H8    S    
C29   O10   D    
Cu2   O8    S    
C33   C35   D    
C19   H27   S    
C14   C16   A    
C21   H4    S    
C20   C21   S    
C8    C10   A    
Cu1   N2    S    
C27   C28   S    
C14   C15   A    
C12   C33   S    
C2    H32   S    
C3    O6    A    
C33   H30   S    
C22   H13   S    
