data_mof_unit_53432.cif
_audit_creation_date              2012-12-11T14:35:58-0500
_audit_creation_method            fapswitch 2.2
_symmetry_space_group_name_H-M    P1
_symmetry_Int_Tables_number       1
_space_group_crystal_system       triclinic
_cell_length_a                    14.52856
_cell_length_b                    15.99745
_cell_length_c                    6.921898
_cell_angle_alpha                 90.000144
_cell_angle_beta                  80.876575
_cell_angle_gamma                 89.999856
_cell_volume                      1588.43426213

loop_
_atom_site_label
_atom_site_type_symbol
_atom_type_description
_atom_site_fract_x
_atom_site_fract_y
_atom_site_fract_z
_atom_type_partial_charge
O1    O     O_R   0.337460 0.413110 0.524760 -0.538339
O2    O     O_R   0.662540 0.913110 0.475240 -0.538334
O3    O     O_R   0.348690 0.587910 0.191230 -0.544856
O4    O     O_R   0.651310 0.087910 0.808770 -0.544857
O5    O     O_R   0.166530 0.586890 0.082470 -0.540730
O6    O     O_R   0.833470 0.086890 0.917530 -0.540728
C1    C     C_R   0.370849 0.616501 0.353299 0.763995
C2    C     C_R   0.629149 0.116501 0.646701 0.764002
O7    O     O_R   0.348700 0.413830 0.191250 -0.543862
O8    O     O_R   0.651300 0.913830 0.808750 -0.543872
O9    O     O_R   0.166530 0.411570 0.082490 -0.548325
O10   O     O_R   0.833470 0.911570 0.917510 -0.548310
C3    C     C_R   0.370908 0.385188 0.353241 0.762662
C4    C     C_R   0.629090 0.885189 0.646759 0.762661
O11   O     O_R   0.337460 0.588430 0.524740 -0.539071
O12   O     O_R   0.662540 0.088430 0.475260 -0.539072
O13   O     O_3   0.192230 0.499460 0.407330 -0.382943
O14   O     O_3   0.807770 0.999460 0.592670 -0.382925
V1    V     V_3+5 0.263080 0.500100 0.108540 1.391122
V2    V     V_3+5 0.736920 0.000100 0.891460 1.391136
O15   O     O_R   0.155290 0.412090 0.756570 -0.548379
O16   O     O_R   0.844710 0.912090 0.243430 -0.548374
C5    C     C_R   0.131406 0.384002 0.934261 0.655477
C6    C     C_R   0.868592 0.884001 0.065739 0.655445
O17   O     O_R   0.155290 0.586170 0.756550 -0.544489
O18   O     O_R   0.844710 0.086170 0.243450 -0.544496
C7    C     C_R   0.133062 0.615665 0.932736 0.671323
C8    C     C_R   0.866944 0.115660 0.067262 0.671335
V3    V     V_3+5 0.240910 0.499900 0.616030 1.384349
V4    V     V_3+5 0.759090 0.999900 0.383970 1.384379
O19   O     O_3   0.311760 0.500540 0.867100 -0.364916
O20   O     O_3   0.688240 0.000540 0.132900 -0.364921
C9    C     C_3   0.101756 0.761478 0.072571 -0.304354
C10   C     C_3   0.898204 0.261509 0.927639 -0.304300
H1    H     H_    0.123503 0.739894 0.211384 0.139684
H2    H     H_    0.876425 0.239974 0.788819 0.139740
H3    H     H_    0.164898 0.786837 0.978923 0.167723
H4    H     H_    0.835077 0.286829 0.021401 0.167672
C11   C     C_3   0.027974 0.832063 0.119608 -0.337276
C12   C     C_3   0.971963 0.332119 0.880667 -0.337382
H5    H     H_    0.058486 0.893224 0.067351 0.177155
H6    H     H_    0.941459 0.393250 0.933189 0.177138
H7    H     H_    0.008991 0.837855 0.281012 0.126852
H8    H     H_    0.990864 0.338007 0.719268 0.127013
H9    H     H_    0.986009 0.635112 0.238714 0.132229
H10   H     H_    0.013900 0.135143 0.761142 0.132235
H11   H     H_    0.881282 0.740962 0.288895 0.129296
H12   H     H_    0.118539 0.241051 0.710836 0.129308
C13   C     C_3   0.970780 0.657135 0.094516 -0.316070
C14   C     C_3   0.029189 0.157156 0.905300 -0.316086
C15   C     C_3   0.037535 0.719518 0.769629 -0.307520
C16   C     C_3   0.962562 0.219439 0.230354 -0.307424
C17   C     C_3   0.062408 0.686851 0.966588 0.041945
C18   C     C_3   0.937599 0.186844 0.033412 0.041860
H13   H     H_    0.003219 0.668718 0.697094 0.118284
H14   H     H_    0.996903 0.168608 0.302732 0.118231
H15   H     H_    0.102632 0.735291 0.668312 0.166379
H16   H     H_    0.897498 0.235187 0.331803 0.166482
C19   C     C_3   0.939144 0.812386 0.028175 0.057940
C20   C     C_3   0.060855 0.312386 0.971825 0.057850
C21   C     C_3   0.897394 0.729446 0.128263 0.009187
C22   C     C_3   0.102554 0.229480 0.871461 0.009211
C23   C     C_3   0.970590 0.795822 0.802679 -0.069944
C24   C     C_3   0.029510 0.295738 0.197323 -0.069913
H17   H     H_    0.907924 0.780235 0.736190 0.072899
H18   H     H_    0.092217 0.280111 0.263632 0.072846
H19   H     H_    0.943012 0.602175 0.023528 0.150548
H20   H     H_    0.057006 0.102194 0.976196 0.150641
H21   H     H_    0.565565 0.807448 0.351076 0.154330
H22   H     H_    0.434431 0.307446 0.648923 0.154322
H23   H     H_    0.434922 0.693789 0.648969 0.155122
H24   H     H_    0.565055 0.193769 0.351034 0.155121
C25   C     C_2   0.440178 0.684276 0.342499 -0.334864
C26   C     C_2   0.559821 0.184276 0.657502 -0.334843
C27   C     C_2   0.465500 0.716930 0.505384 -0.120933
C28   C     C_2   0.534488 0.216920 0.494618 -0.120927
H25   H     H_    0.528856 0.794057 0.800768 0.125978
H26   H     H_    0.471135 0.294048 0.199232 0.125979
C29   C     C_2   0.559688 0.817488 0.657643 -0.336390
C30   C     C_2   0.440306 0.317483 0.342356 -0.336393
C31   C     C_2   0.534718 0.784537 0.494708 -0.124157
C32   C     C_2   0.465275 0.284532 0.505292 -0.124173
H27   H     H_    0.470811 0.707897 0.199414 0.125529
H28   H     H_    0.529198 0.207907 0.800584 0.125527
C33   C     C_3   0.804655 0.702492 0.065445 -0.804972
H29   H     H_    0.775685 0.648051 0.154612 0.223254
H30   H     H_    0.752293 0.753479 0.090007 0.200986
H31   H     H_    0.814564 0.683656 0.909292 0.215690
C34   C     C_3   0.195374 0.202508 0.933872 -0.804940
H32   H     H_    0.224231 0.148033 0.844699 0.223302
H33   H     H_    0.247757 0.253469 0.908951 0.200966
H34   H     H_    0.185620 0.183727 0.090048 0.215681
C35   C     C_2   0.012952 0.872171 0.692232 0.299023
H35   H     H_    0.970802 0.909536 0.608955 0.075651
O21   O     O_2   0.093237 0.893541 0.697331 -0.542363
C36   C     C_2   0.987200 0.372054 0.308001 0.298858
H36   H     H_    0.029433 0.409433 0.391063 0.075836
O22   O     O_2   0.906866 0.393387 0.303312 -0.542360

loop_
_geom_bond_atom_site_label_1
_geom_bond_atom_site_label_2
_ccdc_geom_bond_type
V4    O20   S    
C23   H17   S    
C35   H35   S    
C12   C20   S    
O13   V3    S    
H24   C28   S    
V1    O19   S    
C1    C25   S    
C33   H29   S    
O9    V1    S    
C14   C18   S    
C26   C28   D    
C10   C12   S    
O3    C1    A    
C21   C33   S    
H26   C30   S    
O12   V4    S    
C22   C34   S    
C20   C22   S    
O7    C3    A    
O13   V1    S    
O5    C7    A    
O7    V1    S    
O6    C8    A    
O8    V2    S    
C36   O22   D    
O3    V1    S    
O14   V4    S    
C34   H33   S    
O16   V4    S    
C15   H13   S    
O4    C2    A    
C12   H6    S    
C3    C30   S    
C2    O12   A    
O17   V3    S    
C25   C27   D    
H22   C32   S    
O1    V3    S    
C16   C18   S    
O11   V3    S    
H25   C29   S    
C9    C17   S    
C5    C20   S    
C19   C21   S    
C13   C21   S    
C33   H30   S    
C15   C23   S    
C24   C36   S    
C11   H5    S    
C16   C24   S    
C28   C32   S    
C29   C31   D    
C8    C18   S    
C27   C31   S    
C11   H7    S    
C1    O11   A    
O15   V3    S    
C9    H3    S    
C15   C17   S    
C24   H18   S    
H12   C22   S    
H9    C13   S    
C11   C19   S    
C36   H36   S    
O10   V2    S    
C2    C26   S    
C9    C11   S    
C4    C29   S    
C34   H34   S    
C16   H16   S    
C15   H15   S    
C30   C32   D    
O18   V4    S    
O15   C5    A    
O8    C4    A    
C14   C22   S    
O16   C6    A    
O1    C3    A    
V2    O20   S    
C33   H31   S    
O10   C6    A    
C13   H19   S    
C10   H4    S    
C19   C23   S    
C26   H28   S    
H11   C21   S    
C7    C17   S    
C10   C18   S    
O5    V1    S    
O17   C7    A    
O6    V2    S    
H10   C14   S    
O18   C8    A    
O2    V4    S    
C20   C24   S    
C34   H32   S    
V3    O19   S    
H23   C27   S    
C6    C19   S    
C13   C17   S    
O9    C5    A    
C9    H1    S    
C10   H2    S    
O14   V2    S    
O2    C4    A    
H21   C31   S    
O4    V2    S    
C12   H8    S    
C35   O21   D    
C23   C35   S    
C14   H20   S    
C25   H27   S    
C16   H14   S    
