data_mof_unit_35877.cif
_audit_creation_date              2012-12-10T20:43:24-0500
_audit_creation_method            fapswitch 2.2
_symmetry_space_group_name_H-M    P1
_symmetry_Int_Tables_number       1
_space_group_crystal_system       triclinic
_cell_length_a                    15.804659
_cell_length_b                    10.719959
_cell_length_c                    9.878251
_cell_angle_alpha                 89.330598
_cell_angle_beta                  90.359652
_cell_angle_gamma                 90.112653
_cell_volume                      1673.4754136

loop_
_atom_site_label
_atom_site_type_symbol
_atom_type_description
_atom_site_fract_x
_atom_site_fract_y
_atom_site_fract_z
_atom_type_partial_charge
C1    C     C_R   0.501338 0.260028 0.500537 0.931797
C2    C     C_R   0.533944 0.936893 0.381686 -0.218365
C3    C     C_R   0.512472 0.871071 0.499955 -0.077193
C4    C     C_R   0.339350 0.499308 0.499638 0.931815
C5    C     C_R   0.503292 0.933825 0.621127 0.093785
C6    C     C_3   0.438629 0.918831 0.729636 -0.493934
C7    C     C_3   0.433665 0.060440 0.730598 -0.223919
C8    C     C_R   0.427011 0.475037 0.070625 0.176000
C9    C     C_R   0.569737 0.535115 0.072092 -0.137310
C10   C     C_R   0.569784 0.534879 0.928370 -0.129666
C11   C     C_R   0.427251 0.477080 0.927846 0.171798
C12   C     C_R   0.044653 0.449152 0.615757 -0.178229
C13   C     C_3   0.375835 0.362353 0.917103 -0.471079
C14   C     C_3   0.376970 0.355043 0.071048 -0.158765
C15   C     C_R   0.502177 0.739743 0.499384 0.876105
C16   C     C_R   0.660695 0.499637 0.500375 0.898821
C17   C     C_R   0.956916 0.449866 0.616451 -0.184959
C18   C     C_R   0.913045 0.481704 0.497951 0.174785
C19   C     C_R   0.955591 0.510670 0.378176 -0.182689
C20   C     C_R   0.043293 0.510112 0.377536 -0.189709
C21   C     C_R   0.087159 0.480373 0.496600 0.175341
C22   C     C_3   0.288198 0.365087 0.133225 -0.367838
C23   C     C_1   0.824154 0.488122 0.500001 -0.079307
C24   C     C_3   0.234417 0.249049 0.103893 -0.322865
C25   C     C_3   0.148898 0.255949 0.174337 -0.875415
C26   C     C_2   0.346666 0.107607 0.691170 0.948366
C27   C     C_1   0.176018 0.486665 0.497775 -0.082765
C28   C     C_1   0.250894 0.493035 0.498824 -0.199853
C29   C     C_1   0.749233 0.494063 0.500876 -0.186189
C30   C     C_R   0.499700 0.060645 0.621397 0.049292
C31   C     C_R   0.509834 0.128112 0.501331 -0.041356
C32   C     C_R   0.533147 0.066143 0.382627 -0.217746
H1    H     H_    0.079220 0.426363 0.707863 0.143162
H2    H     H_    0.076800 0.534554 0.285542 0.139783
H3    H     H_    0.546442 0.116617 0.289488 0.163263
H4    H     H_    0.547031 0.889369 0.287943 0.167945
H5    H     H_    0.380443 0.870698 0.693164 0.205348
H6    H     H_    0.466359 0.878665 0.824201 0.199989
H7    H     H_    0.157761 0.261949 0.285744 0.268453
H8    H     H_    0.113025 0.338736 0.137449 0.255174
H9    H     H_    0.111478 0.170837 0.151814 0.260114
H10   H     H_    0.223313 0.240593 0.993261 0.260585
H11   H     H_    0.268256 0.164117 0.140366 0.239878
H12   H     H_    0.458734 0.099171 0.826530 0.123427
H13   H     H_    0.294770 0.371603 0.244132 0.241258
H14   H     H_    0.255240 0.450205 0.094859 0.200446
H15   H     H_    0.269392 0.184051 0.549554 0.334186
H16   H     H_    0.626523 0.561837 0.126093 0.154198
H17   H     H_    0.626644 0.561190 0.874787 0.153346
H18   H     H_    0.313201 0.382270 0.869817 0.210157
H19   H     H_    0.411757 0.286990 0.869147 0.192058
H20   H     H_    0.414321 0.274908 0.111866 0.178808
H21   H     H_    0.923435 0.427508 0.709056 0.140093
H22   H     H_    0.921091 0.535300 0.286563 0.138445
N1    N     N_R   0.499440 0.499140 0.142800 -0.116013
N2    N     N_R   0.499440 0.499180 0.857150 -0.106409
O1    O     O_R   0.500010 0.316790 0.614690 -0.626543
O2    O     O_R   0.330093 0.155282 0.561349 -0.821747
O3    O     O_R   0.500000 0.316760 0.385350 -0.628264
O4    O     O_R   0.378030 0.499990 0.614640 -0.607031
O5    O     O_R   0.378020 0.499950 0.385300 -0.627360
O6    O     O_R   0.500000 0.683240 0.614650 -0.615572
O7    O     O_R   0.499990 0.683210 0.385310 -0.620667
O8    O     O_R   0.621980 0.500050 0.614700 -0.622825
O9    O     O_R   0.621970 0.500010 0.385360 -0.624072
O10   O     O_2   0.289976 0.102544 0.774652 -0.656830
Zn1   Zn    Zn3+2 0.500010 0.500020 0.653130 0.950047
Zn2   Zn    Zn3+2 0.499990 0.499980 0.346870 0.944415

loop_
_geom_bond_atom_site_label_1
_geom_bond_atom_site_label_2
_ccdc_geom_bond_type
C12   C17   A    
C24   C25   S    
C6    H6    S    
C6    C7    S    
C9    N1    A    
C1    O1    A    
O3    Zn2   S    
N2    Zn1   S    
C10   N2    A    
C9    C10   A    
C31   C32   A    
O9    Zn2   S    
C20   H2    S    
C14   C22   S    
C19   C20   A    
C17   C18   A    
C21   C27   S    
C6    H5    S    
C3    C15   S    
C4    O5    A    
C7    C30   S    
C7    H12   S    
C25   H7    S    
H15   O2    S    
C11   C13   S    
O5    Zn2   S    
C4    O4    A    
C30   C31   A    
C7    C26   S    
O6    Zn1   S    
O1    Zn1   S    
C8    C11   A    
C23   C29   T    
C8    N1    A    
C22   H14   S    
C15   O6    A    
N1    Zn2   S    
C2    C3    A    
C1    O3    A    
C25   H8    S    
C5    C6    S    
C22   C24   S    
C16   C29   S    
C11   N2    A    
C25   H9    S    
C13   H18   S    
C26   O10   D    
O8    Zn1   S    
C17   H21   S    
C1    C31   S    
C22   H13   S    
C24   H10   S    
C20   C21   A    
C19   H22   S    
C9    H16   S    
C2    C32   A    
C5    C30   A    
C2    H4    S    
C27   C28   T    
C24   H11   S    
C15   O7    A    
O7    Zn2   S    
C18   C19   A    
C8    C14   S    
C16   O9    A    
C16   O8    A    
C13   C14   S    
C4    C28   S    
C12   H1    S    
C13   H19   S    
C10   H17   S    
C12   C21   A    
C26   O2    S    
C14   H20   S    
C32   H3    S    
C18   C23   S    
O4    Zn1   S    
C3    C5    A    
