data_mof_unit_35432.cif
_audit_creation_date              2012-12-10T17:35:02-0500
_audit_creation_method            fapswitch 2.2
_symmetry_space_group_name_H-M    P1
_symmetry_Int_Tables_number       1
_space_group_crystal_system       triclinic
_cell_length_a                    12.03619
_cell_length_b                    12.634479
_cell_length_c                    15.723984
_cell_angle_alpha                 91.721124
_cell_angle_beta                  85.895726
_cell_angle_gamma                 93.383069
_cell_volume                      2380.07308567

loop_
_atom_site_label
_atom_site_type_symbol
_atom_type_description
_atom_site_fract_x
_atom_site_fract_y
_atom_site_fract_z
_atom_type_partial_charge
C1    C     C_R   0.521218 0.696091 0.480129 0.898396
C2    C     C_R   0.533902 0.803033 0.446811 -0.221103
C3    C     C_R   0.647377 0.965211 0.439823 -0.219170
C4    C     C_R   0.499866 0.501258 0.661510 0.904491
C5    C     C_R   0.640153 0.854871 0.430673 0.187591
C6    C     C_R   0.437687 0.857589 0.435234 0.156216
C7    C     C_R   0.443631 0.967094 0.451851 -0.011977
C8    C     C_R   0.550317 0.019669 0.456957 0.017968
C9    C     C_R   0.559635 0.126965 0.475443 -0.233830
C10   C     C_R   0.358607 0.134477 0.480881 -0.340562
C11   C     C_R   0.346626 0.024771 0.466374 0.480687
C12   C     C_3   0.384787 0.529666 0.057307 0.177131
C13   C     C_R   0.955458 0.397003 0.420826 0.252996
C14   C     C_R   0.837858 0.406438 0.429222 0.431750
C15   C     C_R   0.859620 0.547499 0.532436 0.221280
C16   C     C_R   0.478041 0.298283 0.499138 0.903055
C17   C     C_R   0.976418 0.536042 0.528617 -0.030409
C18   C     C_R   0.025301 0.465611 0.468348 -0.118857
C19   C     C_R   0.143083 0.461665 0.460868 -0.060195
C20   C     C_R   0.160092 0.578497 0.580994 0.334089
C21   C     C_R   0.044491 0.588625 0.587499 -0.309020
C22   C     C_R   0.500396 0.500417 0.338299 0.871003
C23   C     C_3   0.503808 0.504695 0.082388 0.054278
C24   C     C_3   0.392042 0.542515 0.958922 0.132334
C25   C     C_3   0.599616 0.582326 0.944014 0.248195
C26   C     C_3   0.592032 0.590511 0.043666 0.009672
C27   C     C_1   0.501875 0.502992 0.249444 -0.200104
C28   C     C_3   0.504769 0.499915 0.916048 -0.067487
C29   C     C_3   0.234707 0.622497 0.116761 0.131637
C30   C     C_3   0.201865 0.729330 0.154456 -0.844616
C31   C     C_3   0.250993 0.412759 0.916089 0.185381
C32   C     C_3   0.124893 0.408763 0.911934 -0.914430
C33   C     C_3   0.185025 0.986031 0.548110 0.097715
C34   C     C_3   0.525596 0.391436 0.046272 -0.608338
C35   C     C_3   0.077567 0.916456 0.552845 -0.892215
C36   C     C_3   0.834481 0.850830 0.365355 -0.833781
C37   C     C_3   0.262021 0.753431 0.406389 -0.612396
C38   C     C_3   0.230472 0.727588 0.668600 -0.808835
C39   C     C_3   0.001292 0.224770 0.413161 0.095550
C40   C     C_3   0.056898 0.140948 0.356203 -0.815137
C41   C     C_3   0.774365 0.343961 0.301684 0.143884
C42   C     C_3   0.683705 0.271658 0.264015 -0.847218
C43   C     C_3   0.848312 0.737254 0.572314 -0.787938
C44   C     C_3   0.768818 0.641644 0.872693 0.121378
C45   C     C_3   0.529610 0.385010 0.946509 0.914122
C46   C     C_3   0.890065 0.614872 0.854711 -0.836285
C47   C     C_3   0.764713 0.506349 0.088956 -0.687697
C48   C     C_3   0.455739 0.204537 0.948340 0.035586
C49   C     C_3   0.421322 0.123377 0.880237 -0.878205
C50   C     C_3   0.649898 0.308040 0.834364 0.170470
C51   C     C_3   0.750699 0.356100 0.782247 -0.819143
C52   C     C_1   0.503534 0.504622 0.174090 0.085463
C53   C     C_1   0.501310 0.501915 0.825097 0.050024
C54   C     C_1   0.499662 0.502488 0.750062 -0.218130
C55   C     C_R   0.464463 0.184533 0.487243 -0.119397
H1    H     H_    0.327005 0.461363 0.077197 0.082720
H2    H     H_    0.555970 0.668290 0.060464 0.123438
H3    H     H_    0.458329 0.337007 0.074855 0.139776
H4    H     H_    0.207764 0.560661 0.164094 0.137234
H5    H     H_    0.190500 0.606516 0.057515 0.177750
H6    H     H_    0.226129 0.792692 0.108141 0.255786
H7    H     H_    0.110208 0.727678 0.169448 0.202191
H8    H     H_    0.244404 0.747207 0.213986 0.264642
H9    H     H_    0.268686 0.368556 0.972826 0.150878
H10   H     H_    0.286139 0.373115 0.857044 0.204343
H11   H     H_    0.102757 0.450069 0.854616 0.264512
H12   H     H_    0.602506 0.361371 0.068729 0.203483
H13   H     H_    0.091705 0.324976 0.908243 0.216346
H14   H     H_    0.085786 0.447856 0.969856 0.249350
H15   H     H_    0.161752 0.069240 0.560421 0.136875
H16   H     H_    0.237257 0.962333 0.599340 0.137513
H17   H     H_    0.095597 0.831962 0.541905 0.263083
H18   H     H_    0.033710 0.925929 0.616931 0.210875
H19   H     H_    0.022221 0.939906 0.504162 0.252402
H20   H     H_    0.716068 0.724889 0.372438 0.249828
H21   H     H_    0.897350 0.792555 0.344976 0.238185
H22   H     H_    0.872538 0.906502 0.412293 0.239622
H23   H     H_    0.642031 0.165851 0.479013 0.196302
H24   H     H_    0.813890 0.894000 0.308516 0.247064
H25   H     H_    0.349321 0.863108 0.326487 0.229757
H26   H     H_    0.186997 0.788601 0.384299 0.224963
H27   H     H_    0.253373 0.752310 0.476540 0.253488
H28   H     H_    0.264525 0.671008 0.380344 0.236573
H29   H     H_    0.204109 0.571447 0.703699 0.229698
H30   H     H_    0.146222 0.756841 0.684989 0.220033
H31   H     H_    0.272145 0.771260 0.614234 0.252622
H32   H     H_    0.281543 0.744119 0.724084 0.244023
H33   H     H_    0.914413 0.194611 0.431850 0.162493
H34   H     H_    0.285182 0.180427 0.487102 0.167549
H35   H     H_    0.048727 0.236758 0.471371 0.129861
H36   H     H_    0.144969 0.167352 0.338509 0.259267
H37   H     H_    0.055504 0.065322 0.390363 0.232359
H38   H     H_    0.011667 0.127222 0.297365 0.250640
H39   H     H_    0.855654 0.319851 0.271935 0.180821
H40   H     H_    0.762779 0.427310 0.284837 0.139425
H41   H     H_    0.600051 0.293907 0.290417 0.258983
H42   H     H_    0.688608 0.278056 0.193613 0.192662
H43   H     H_    0.694822 0.187995 0.279835 0.256019
H44   H     H_    0.733280 0.616979 0.613424 0.277834
H45   H     H_    0.727428 0.009154 0.435705 0.154228
H46   H     H_    0.774636 0.783459 0.563618 0.264155
H47   H     H_    0.907361 0.745065 0.514938 0.268089
H48   H     H_    0.888748 0.771980 0.628733 0.222563
H49   H     H_    0.767312 0.713134 0.915896 0.113412
H50   H     H_    0.734075 0.660138 0.811478 0.135503
H51   H     H_    0.896740 0.548348 0.807339 0.249752
H52   H     H_    0.939559 0.684956 0.828495 0.203136
H53   H     H_    0.925285 0.592369 0.914574 0.261903
H54   H     H_    0.748834 0.665893 0.064037 0.218470
H55   H     H_    0.726363 0.457208 0.141331 0.215027
H56   H     H_    0.183365 0.410371 0.413267 0.179593
H57   H     H_    0.850108 0.532198 0.106431 0.195498
H58   H     H_    0.772437 0.459070 0.028619 0.303640
H59   H     H_    0.396248 0.192550 0.005005 0.152838
H60   H     H_    0.540724 0.188566 0.966540 0.162937
H61   H     H_    0.478290 0.131207 0.821823 0.239500
H62   H     H_    0.424525 0.042033 0.904465 0.217481
H63   H     H_    0.334851 0.135558 0.863750 0.257548
H64   H     H_    0.575993 0.312262 0.796525 0.160337
H65   H     H_    0.663935 0.223003 0.842533 0.130586
H66   H     H_    0.826120 0.356208 0.819031 0.262754
H67   H     H_    0.401591 0.629979 0.951315 0.162672
H68   H     H_    0.765239 0.308846 0.722199 0.191724
H69   H     H_    0.735580 0.438383 0.765392 0.276136
H70   H     H_    0.008054 0.632109 0.641724 0.180353
H71   H     H_    0.579509 0.661484 0.920581 -0.003373
N1    N     N_R   0.207800 0.519340 0.515510 -0.130699
N2    N     N_R   0.792190 0.480660 0.484490 -0.178492
N3    N     N_2   0.735305 0.795723 0.403859 -0.279264
N4    N     N_2   0.361964 0.813780 0.375614 -0.293922
N5    N     N_2   0.224374 0.614745 0.649611 -0.247847
N6    N     N_2   0.813204 0.627520 0.587993 -0.299570
N7    N     N_2   0.700648 0.598461 0.080636 -0.273422
O1    O     O_R   0.421690 0.658830 0.504140 -0.592260
O2    O     O_3   0.291200 0.519731 0.917748 -0.615213
O3    O     O_3   0.241276 0.973981 0.466484 -0.617080
O4    O     O_3   0.001702 0.319545 0.367729 -0.625449
O5    O     O_3   0.767151 0.332113 0.390914 -0.591443
O6    O     O_3   0.707048 0.554108 0.910195 -0.535915
O7    O     O_3   0.447525 0.308243 0.917737 -0.703129
O8    O     O_3   0.640293 0.358658 0.916384 -0.605499
O9    O     O_R   0.609320 0.646410 0.494190 -0.625657
O10   O     O_R   0.406150 0.506210 0.627840 -0.581497
O11   O     O_R   0.593770 0.493790 0.617880 -0.648771
O12   O     O_R   0.390680 0.353590 0.505810 -0.632530
O13   O     O_R   0.578310 0.341170 0.495860 -0.566965
O14   O     O_R   0.406230 0.506210 0.382120 -0.626128
O15   O     O_R   0.593850 0.493790 0.372160 -0.609806
O16   O     O_3   0.351625 0.625246 0.099376 -0.613141
Zn1   Zn    Zn3+2 0.374720 0.508290 0.506640 0.943499
Zn2   Zn    Zn3+2 0.625280 0.491710 0.493360 0.954605

loop_
_geom_bond_atom_site_label_1
_geom_bond_atom_site_label_2
_ccdc_geom_bond_type
C39   O4    S    
C35   H19   S    
C51   H68   S    
C41   C42   S    
O15   Zn2   S    
C40   H38   S    
C6    N4    S    
C4    O10   A    
C44   H49   S    
C7    C8    A    
C44   H50   S    
C25   C28   S    
C7    C11   A    
C12   C23   S    
H44   N6    S    
C38   H31   S    
C50   H65   S    
C32   H11   S    
C43   N6    S    
C25   O6    S    
C18   C19   A    
O11   Zn2   S    
C36   H22   S    
C42   H43   S    
N1    Zn1   S    
C47   H57   S    
O1    Zn1   S    
C14   N2    A    
C37   N4    S    
C16   O13   A    
C1    C2    S    
C23   C26   S    
C1    O9    A    
C36   H21   S    
C3    H45   S    
O10   Zn1   S    
C49   H62   S    
C15   N6    S    
C29   H4    S    
C10   H34   S    
C8    C9    A    
C46   H53   S    
C9    C55   A    
C39   H35   S    
O12   Zn1   S    
C50   O8    S    
C32   H13   S    
C5    N3    S    
C13   C14   A    
C47   N7    S    
C45   O8    S    
C51   H69   S    
C37   H26   S    
C2    C6    A    
C39   H33   S    
C30   H8    S    
C31   H9    S    
C44   C46   S    
C50   C51   S    
C28   C45   S    
H25   N4    S    
C48   O7    S    
C38   H30   S    
H54   N7    S    
C50   H64   S    
C14   O5    S    
O14   Zn1   S    
C20   N1    A    
C31   O2    S    
C3    C8    A    
C42   H42   S    
C39   C40   S    
C31   H10   S    
C25   C26   S    
C53   C54   T    
C45   O7    S    
C17   C21   A    
C16   O12   A    
C13   O4    S    
O9    Zn2   S    
C25   H71   S    
C43   H46   S    
C29   C30   S    
N2    Zn2   S    
C41   H39   S    
C29   H5    S    
C23   C34   S    
C46   H52   S    
C24   H67   S    
C17   C18   A    
C34   C45   S    
C40   H37   S    
C10   C55   A    
C41   O5    S    
C12   H1    S    
C33   H15   S    
C48   H60   S    
C13   C18   A    
C24   O2    S    
C48   C49   S    
C22   O15   A    
C35   H17   S    
C44   O6    S    
C15   N2    A    
C30   H7    S    
C51   H66   S    
C42   H41   S    
C37   H27   S    
C2    C5    A    
C20   N5    S    
C21   H70   S    
C1    O1    A    
C27   C52   T    
C48   H59   S    
C47   H58   S    
C35   H18   S    
C4    C54   S    
C32   H14   S    
C12   O16   S    
C31   C32   S    
C24   C28   S    
C22   O14   A    
C3    C5    A    
C36   H24   S    
C34   H12   S    
C4    O11   A    
C28   C53   S    
C15   C17   A    
C6    C7    A    
C19   H56   S    
C47   H55   S    
C12   C24   S    
H29   N5    S    
C38   H32   S    
C22   C27   S    
C38   N5    S    
C16   C55   S    
C26   N7    S    
C36   N3    S    
C33   O3    S    
C23   C52   S    
C41   H40   S    
C46   H51   S    
C19   N1    A    
C33   C35   S    
C9    H23   S    
C40   H36   S    
C26   H2    S    
C43   H48   S    
C43   H47   S    
C10   C11   A    
C33   H16   S    
C29   O16   S    
O13   Zn2   S    
C49   H63   S    
C49   H61   S    
C20   C21   A    
C30   H6    S    
C34   H3    S    
C37   H28   S    
C11   O3    S    
H20   N3    S    
