data_mof_unit_33225.cif
_audit_creation_date              2012-10-26T18:34:00-0400
_audit_creation_method            fapswitch 2.2
_symmetry_space_group_name_H-M    P1
_symmetry_Int_Tables_number       1
_space_group_crystal_system       triclinic
_cell_length_a                    11.118574
_cell_length_b                    10.823235
_cell_length_c                    9.712612
_cell_angle_alpha                 90.682137
_cell_angle_beta                  104.181346
_cell_angle_gamma                 99.309612
_cell_volume                      1116.637039

loop_
_atom_site_label
_atom_site_type_symbol
_atom_type_description
_atom_site_fract_x
_atom_site_fract_y
_atom_site_fract_z
_atom_type_partial_charge
C1    C     C_R   0.506931 0.264032 0.501544 0.615722
C2    C     C_2   0.875652 0.510119 0.595997 0.028600
C3    C     C_2   0.069504 0.512205 0.510680 -0.078374
C4    C     C_2   0.933506 0.510396 0.488633 -0.076905
C5    C     C_R   0.399251 0.052013 0.422335 -0.096964
C6    C     C_R   0.599591 0.947884 0.579035 -0.107610
C7    C     C_R   0.391091 0.922441 0.417138 0.209869
C8    C     C_R   0.608811 0.077597 0.581784 0.242153
C9    C     C_R   0.492324 0.870035 0.498491 -0.013378
C10   C     C_R   0.507083 0.129868 0.501572 -0.000509
C11   C     C_3   0.947365 0.514101 0.750162 -0.323610
C12   C     C_R   0.492879 0.735929 0.498406 0.594919
C13   C     C_3   0.050458 0.478911 0.249779 -0.329624
C14   C     C_R   0.262324 0.499507 0.440161 0.627418
C15   C     C_R   0.737789 0.502171 0.559772 0.647362
C16   C     C_R   0.415632 0.410490 0.049477 0.266888
C17   C     C_R   0.586060 0.587192 0.950741 0.291102
C18   C     C_R   0.414964 0.412060 0.898862 0.297237
C19   C     C_R   0.584476 0.589471 0.100844 0.286422
C20   C     C_2   0.124939 0.496924 0.403735 0.034037
Cu1   Cu    Cu3+1 0.500000 0.500020 0.640660 1.195270
Cu2   Cu    Cu3+1 0.500000 0.499980 0.359340 1.194057
H1    H     H_    0.877729 0.506451 0.379688 0.176908
H2    H     H_    0.110813 0.468019 0.176469 0.173925
H3    H     H_    0.977613 0.393254 0.235084 0.142474
H4    H     H_    0.004728 0.561757 0.218449 0.213399
H5    H     H_    0.205033 0.212398 0.565386 0.363976
H6    H     H_    0.761849 0.806634 0.432544 0.364347
H7    H     H_    0.203099 0.947620 0.138244 0.391282
H8    H     H_    0.915892 0.235087 0.593250 0.385302
H9    H     H_    0.127003 0.527463 0.618957 0.178465
H10   H     H_    0.319818 0.092753 0.366488 0.213668
H11   H     H_    0.678461 0.907170 0.636287 0.203857
H12   H     H_    0.120149 0.281480 0.021676 0.353288
H13   H     H_    0.783427 0.895615 0.951436 0.407953
H14   H     H_    0.017160 0.601988 0.778207 0.164482
H15   H     H_    0.884575 0.508424 0.822846 0.221246
H16   H     H_    0.994733 0.431820 0.769491 0.186785
N1    N     N_R   0.500030 0.500030 0.852080 -0.319921
N2    N     N_R   0.499970 0.499970 0.147920 -0.316880
O1    O     O_R   0.499990 0.319660 0.618740 -0.418546
O2    O     O_2   0.286189 0.291474 0.246729 -0.316061
O3    O     O_3   0.175233 0.224123 0.000756 -0.392660
O4    O     O_2   0.833241 0.663644 0.974772 -0.283819
O5    O     O_2   0.713526 0.710067 0.749547 -0.289690
O6    O     O_3   0.701351 0.844894 0.953496 -0.423648
O7    O     O_2   0.305688 0.169341 0.829688 -0.166954
O8    O     O_2   0.171827 0.331797 0.780815 -0.341942
O9    O     O_3   0.281554 0.276401 0.600826 -0.505022
O10   O     O_2   0.810503 0.759391 0.193256 -0.185425
O11   O     O_2   0.613218 0.832358 0.184860 -0.216725
O12   O     O_R   0.500010 0.680340 0.381260 -0.411482
O13   O     O_3   0.720803 0.720106 0.396754 -0.511343
O14   O     O_2   0.274047 0.731680 0.224970 -0.271287
O15   O     O_2   0.178058 0.772310 0.419281 -0.266753
O16   O     O_3   0.159016 0.922636 0.213286 -0.435408
O17   O     O_2   0.731526 0.269142 0.769250 -0.262772
O18   O     O_2   0.836216 0.088031 0.764095 -0.255652
O19   O     O_3   0.824865 0.234391 0.552887 -0.547009
O20   O     O_R   0.499990 0.319630 0.381170 -0.443709
O21   O     O_R   0.500010 0.680370 0.618830 -0.465026
O22   O     O_R   0.320690 0.500020 0.575130 -0.474051
O23   O     O_R   0.679310 0.499980 0.424870 -0.477293
O24   O     O_R   0.320680 0.499990 0.337560 -0.449527
O25   O     O_R   0.679320 0.500010 0.662440 -0.442505
O26   O     O_2   0.391653 0.170093 0.119640 -0.225585
S1    S     S_3+6 0.318358 0.276283 0.108202 0.087029
S2    S     S_3+6 0.708909 0.698343 0.900574 0.093979
S3    S     S_3+6 0.295929 0.297791 0.775615 0.098637
S4    S     S_3+6 0.682447 0.723742 0.219228 0.114287
S5    S     S_3+6 0.248911 0.831841 0.317286 0.050698
S6    S     S_3+6 0.753296 0.169005 0.674383 0.026626

loop_
_geom_bond_atom_site_label_1
_geom_bond_atom_site_label_2
_ccdc_geom_bond_type
C11   H16   S    
C2    C4    D    
H6    O13   S    
O6    S2    S    
C15   O25   A    
C12   O21   A    
O11   S4    D    
C14   C20   S    
O8    S3    D    
Cu1   O21   S    
Cu1   N1    S    
C6    H11   S    
O19   S6    S    
C18   N1    A    
C5    H10   S    
Cu2   N2    S    
H8    O19   S    
O16   S5    S    
O5    S2    D    
O26   S1    D    
O10   S4    D    
C14   O24   A    
C3    C20   D    
C16   S1    S    
O9    S3    S    
Cu1   Cu2   S    
C3    H9    S    
C2    C15   S    
C13   H3    S    
Cu1   O22   S    
Cu2   O20   S    
C18   S3    S    
Cu1   O1    S    
C2    C11   S    
Cu2   O12   S    
C11   H14   S    
H7    O16   S    
C16   N2    A    
C5    C7    A    
O18   S6    D    
O17   S6    D    
C7    S5    S    
O2    S1    D    
C9    C12   S    
O15   S5    D    
C13   H4    S    
C8    S6    S    
O4    S2    D    
C19   N2    A    
O13   S4    S    
Cu2   O24   S    
C3    C4    S    
C14   O22   A    
C7    C9    A    
C5    C10   A    
C6    C9    A    
O3    S1    S    
C17   N1    A    
C1    O20   A    
C1    O1    A    
C11   H15   S    
C4    H1    S    
C15   O23   A    
C17   C19   A    
C17   S2    S    
C6    C8    A    
C13   C20   S    
C12   O12   A    
Cu2   O23   S    
H12   O3    S    
H13   O6    S    
Cu1   O25   S    
C1    C10   S    
C8    C10   A    
O7    S3    D    
O14   S5    D    
H5    O9    S    
C13   H2    S    
C19   S4    S    
C16   C18   A    
