data_mof_unit_8101.cif
_audit_creation_date              2012-12-10T17:05:07-0500
_audit_creation_method            fapswitch 2.2
_symmetry_space_group_name_H-M    P1
_symmetry_Int_Tables_number       1
_space_group_crystal_system       monoclinic
_cell_length_a                    30.181025
_cell_length_b                    30.546098
_cell_length_c                    21.518821
_cell_angle_alpha                 90.0
_cell_angle_beta                  134.827162
_cell_angle_gamma                 90.0
_cell_volume                      14070.1700485

loop_
_atom_site_label
_atom_site_type_symbol
_atom_type_description
_atom_site_fract_x
_atom_site_fract_y
_atom_site_fract_z
_atom_type_partial_charge
C1    C     C_R   0.306895 0.810055 0.119664 0.929644
C2    C     C_R   0.477533 0.675491 0.000322 -0.218760
C3    C     C_R   0.324412 0.198407 0.271760 -0.260174
C4    C     C_R   0.158024 0.706535 0.649122 0.200417
C5    C     C_R   0.841976 0.706536 0.350878 0.200417
C6    C     C_R   0.658019 0.206537 0.649118 0.200416
C7    C     C_R   0.341977 0.206536 0.350879 0.200416
C8    C     C_R   0.114561 0.678480 0.577288 0.237419
C9    C     C_R   0.885439 0.678480 0.422712 0.237419
C10   C     C_R   0.614556 0.178481 0.577284 0.237419
C11   C     C_R   0.385440 0.178480 0.422713 0.237420
C12   C     C_R   0.091367 0.642288 0.586980 -0.297875
C13   C     C_R   0.022467 0.175491 0.999678 -0.218760
C14   C     C_R   0.908633 0.642288 0.413020 -0.297875
C15   C     C_R   0.591364 0.142288 0.586978 -0.297877
C16   C     C_R   0.408633 0.142288 0.413020 -0.297876
C17   C     C_R   0.110289 0.633554 0.667311 0.058725
C18   C     C_R   0.889711 0.633554 0.332689 0.058725
C19   C     C_R   0.610288 0.133555 0.667310 0.058724
C20   C     C_R   0.389711 0.133554 0.332690 0.058724
C21   C     C_R   0.149373 0.663471 0.736585 0.060388
C22   C     C_R   0.850627 0.663471 0.263415 0.060388
C23   C     C_R   0.649372 0.163472 0.736584 0.060388
C24   C     C_R   0.977533 0.175491 0.000322 -0.218759
C25   C     C_R   0.350627 0.163471 0.263415 0.060388
C26   C     C_R   0.161548 0.657084 0.812720 -0.088653
C27   C     C_R   0.838452 0.657084 0.187280 -0.088653
C28   C     C_R   0.661548 0.157084 0.812720 -0.088655
C29   C     C_R   0.338452 0.157084 0.187280 -0.088653
C30   C     C_R   0.139615 0.620193 0.822414 -0.211070
C31   C     C_R   0.860385 0.620193 0.177586 -0.211070
C32   C     C_R   0.639616 0.120192 0.822415 -0.211068
C33   C     C_R   0.360385 0.120193 0.177586 -0.211070
C34   C     C_R   0.104641 0.589538 0.756679 -0.212717
C35   C     C_R   0.484830 0.835194 0.013898 0.169439
C36   C     C_R   0.895359 0.589538 0.243320 -0.212716
C37   C     C_R   0.604643 0.089537 0.756681 -0.212718
C38   C     C_R   0.395358 0.089538 0.243320 -0.212717
C39   C     C_R   0.162726 0.749530 0.999128 0.896697
C40   C     C_R   0.837274 0.749530 0.000872 0.896698
C41   C     C_R   0.662726 0.249530 0.999128 0.896698
C42   C     C_R   0.337274 0.249530 0.000872 0.896698
C43   C     C_R   0.090458 0.595876 0.680163 -0.076853
C44   C     C_R   0.909542 0.595876 0.319837 -0.076853
C45   C     C_R   0.590458 0.095876 0.680163 -0.076851
C46   C     C_R   0.515170 0.835194 0.986102 0.169439
C47   C     C_R   0.409542 0.095876 0.319837 -0.076853
C48   C     C_R   0.941075 0.561003 0.382243 0.863047
C49   C     C_R   0.058925 0.561003 0.617757 0.863046
C50   C     C_R   0.441075 0.061003 0.382243 0.863047
C51   C     C_R   0.558925 0.061003 0.617757 0.863046
C52   C     C_R   0.442601 0.937124 0.385163 0.860722
C53   C     C_R   0.557398 0.937124 0.614837 0.860722
C54   C     C_R   0.942601 0.437124 0.385163 0.860722
C55   C     C_R   0.057398 0.437124 0.614837 0.860723
C56   C     C_R   0.585539 0.794268 0.982683 0.083303
C57   C     C_R   0.984830 0.335194 0.013898 0.169439
C58   C     C_R   0.414461 0.794268 0.017317 0.083302
C59   C     C_R   0.085539 0.294268 0.982683 0.083302
C60   C     C_R   0.914461 0.294268 0.017317 0.083303
C61   C     C_R   0.611423 0.753113 0.991475 -0.183746
C62   C     C_R   0.388577 0.753113 0.008525 -0.183746
C63   C     C_R   0.111423 0.253113 0.991475 -0.183746
C64   C     C_R   0.888577 0.253113 0.008525 -0.183746
C65   C     C_R   0.588694 0.713588 0.993226 0.108639
C66   C     C_R   0.411305 0.713588 0.006774 0.108640
C67   C     C_R   0.088695 0.213588 0.993226 0.108639
C68   C     C_R   0.015170 0.335194 0.986102 0.169439
C69   C     C_R   0.911305 0.213588 0.006775 0.108640
C70   C     C_R   0.543874 0.714861 0.995493 0.124008
C71   C     C_R   0.456126 0.714861 0.004506 0.124009
C72   C     C_R   0.043874 0.214861 0.995494 0.124008
C73   C     C_R   0.956126 0.214861 0.004507 0.124008
C74   C     C_R   0.521303 0.755515 0.995904 -0.049770
C75   C     C_R   0.478697 0.755515 0.004096 -0.049769
C76   C     C_R   0.021303 0.255515 0.995904 -0.049769
C77   C     C_R   0.978697 0.255515 0.004096 -0.049770
C78   C     C_3   0.608246 0.835522 0.971117 -0.323069
C79   C     C_R   0.253596 0.856537 0.178339 0.114832
C80   C     C_3   0.654434 0.862221 0.055869 -0.802859
C81   C     C_3   0.391754 0.835522 0.028883 -0.323068
C82   C     C_3   0.345566 0.862221 0.944131 -0.802861
C83   C     C_3   0.108246 0.335522 0.971117 -0.323069
C84   C     C_3   0.154434 0.362222 0.055869 -0.802860
C85   C     C_3   0.891754 0.335522 0.028883 -0.323068
C86   C     C_3   0.845566 0.362221 0.944131 -0.802860
C87   C     C_3   0.479314 0.933164 0.257583 -0.751107
C88   C     C_3   0.520686 0.933164 0.742417 -0.751108
C89   C     C_3   0.979314 0.433164 0.257583 -0.751108
C90   C     C_R   0.746404 0.856537 0.821661 0.114832
C91   C     C_3   0.020686 0.433164 0.742417 -0.751106
C92   C     C_3   0.079289 0.750793 0.250495 -0.410704
C93   C     C_3   0.075577 0.798114 0.269835 -0.859387
C94   C     C_3   0.920710 0.750793 0.749505 -0.410705
C95   C     C_3   0.924423 0.798113 0.730165 -0.859386
C96   C     C_3   0.579289 0.250793 0.250495 -0.410705
C97   C     C_3   0.575577 0.298113 0.269835 -0.859386
C98   C     C_3   0.420710 0.250793 0.749505 -0.410705
C99   C     C_3   0.424422 0.298113 0.730165 -0.859384
C100  C     C_3   0.211699 0.763674 0.290811 -0.834956
C101  C     C_R   0.753596 0.356537 0.178339 0.114832
C102  C     C_3   0.788301 0.763673 0.709189 -0.834956
C103  C     C_3   0.711699 0.263674 0.290811 -0.834955
C104  C     C_3   0.288301 0.263674 0.709189 -0.834956
C105  C     C_3   0.185698 0.745681 0.643262 -0.414044
C106  C     C_3   0.161591 0.788543 0.646968 -0.862379
C107  C     C_3   0.814302 0.745681 0.356738 -0.414045
C108  C     C_3   0.838409 0.788543 0.353033 -0.862379
C109  C     C_3   0.685692 0.245684 0.643257 -0.414045
C110  C     C_3   0.661584 0.288545 0.646963 -0.862378
C111  C     C_3   0.314303 0.245682 0.356739 -0.414044
C112  C     C_R   0.693105 0.810055 0.880336 0.929644
C113  C     C_R   0.246404 0.356537 0.821661 0.114832
C114  C     C_3   0.338411 0.288543 0.353034 -0.862378
C115  C     C_3   0.129301 0.664678 0.482807 -0.821314
C116  C     C_3   0.870700 0.664678 0.517194 -0.821315
C117  C     C_3   0.629293 0.164681 0.482800 -0.821313
C118  C     C_3   0.370701 0.164679 0.517195 -0.821314
C119  C     C_3   0.577817 0.648998 0.916633 -0.750584
C120  C     C_3   0.422183 0.648998 0.083367 -0.750583
C121  C     C_3   0.077817 0.148998 0.916633 -0.750583
C122  C     C_3   0.922183 0.148998 0.083367 -0.750583
C123  C     C_3   0.537789 0.884861 0.135530 -0.853256
C124  C     C_R   0.238375 0.866829 0.225565 0.094600
C125  C     C_3   0.462211 0.884861 0.864470 -0.853256
C126  C     C_3   0.037789 0.384861 0.135530 -0.853257
C127  C     C_3   0.962210 0.384861 0.864470 -0.853257
C128  C     C_3   0.188054 0.883926 0.030752 -0.700714
C129  C     C_3   0.811946 0.883926 0.969248 -0.700715
C130  C     C_3   0.688054 0.383926 0.030752 -0.700714
C131  C     C_3   0.311946 0.383926 0.969248 -0.700715
C132  C     C_3   0.142497 0.909083 0.143825 -0.770114
C133  C     C_3   0.857503 0.909083 0.856174 -0.770116
C134  C     C_3   0.642497 0.409083 0.143825 -0.770116
C135  C     C_R   0.761625 0.866829 0.774435 0.094600
C136  C     C_3   0.357503 0.409083 0.856175 -0.770116
C137  C     C_3   0.270449 0.927948 0.382949 -0.781417
C138  C     C_3   0.729551 0.927948 0.617051 -0.781420
C139  C     C_3   0.770449 0.427948 0.382949 -0.781420
C140  C     C_3   0.229551 0.427948 0.617051 -0.781418
C141  C     C_3   0.402515 0.872925 0.455713 -0.298855
C142  C     C_3   0.402477 0.827063 0.484084 -0.909318
C143  C     C_3   0.597485 0.872925 0.544287 -0.298856
C144  C     C_3   0.597522 0.827063 0.515916 -0.909319
C145  C     C_3   0.902515 0.372925 0.455713 -0.298856
C146  C     C_R   0.738375 0.366829 0.225565 0.094600
C147  C     C_3   0.902477 0.327063 0.484084 -0.909318
C148  C     C_3   0.097485 0.372925 0.544287 -0.298856
C149  C     C_3   0.097523 0.327063 0.515916 -0.909318
C150  C     C_R   0.261625 0.366829 0.774435 0.094600
C151  C     C_R   0.286699 0.875583 0.316347 0.174415
C152  C     C_R   0.713300 0.875583 0.683652 0.174415
C153  C     C_R   0.786699 0.375583 0.316347 0.174415
C154  C     C_R   0.213301 0.375583 0.683653 0.174415
C155  C     C_R   0.348990 0.878394 0.356746 0.138480
C156  C     C_R   0.806895 0.310055 0.119664 0.929644
C157  C     C_R   0.651010 0.878394 0.643253 0.138480
C158  C     C_R   0.848990 0.378394 0.356746 0.138480
C159  C     C_R   0.151010 0.378394 0.643254 0.138479
C160  C     C_R   0.360662 0.879015 0.303363 -0.058526
C161  C     C_R   0.639338 0.879015 0.696637 -0.058526
C162  C     C_R   0.860662 0.379015 0.303363 -0.058526
C163  C     C_R   0.139338 0.379015 0.696637 -0.058526
C164  C     C_R   0.316768 0.859349 0.220690 -0.027312
C165  C     C_R   0.683232 0.859349 0.779310 -0.027312
C166  C     C_R   0.816768 0.359349 0.220690 -0.027312
C167  C     C_R   0.193105 0.310055 0.880336 0.929644
C168  C     C_R   0.183232 0.359349 0.779310 -0.027312
C169  C     C_R   0.338988 0.843349 0.185142 -0.078650
C170  C     C_R   0.661011 0.843349 0.814858 -0.078650
C171  C     C_R   0.838988 0.343349 0.185142 -0.078650
C172  C     C_R   0.161012 0.343349 0.814858 -0.078650
C173  C     C_R   0.337617 0.750754 0.002017 0.878922
C174  C     C_R   0.662383 0.750754 0.997983 0.878922
C175  C     C_R   0.837617 0.250754 0.002017 0.878922
C176  C     C_R   0.162383 0.250754 0.997983 0.878922
C177  C     C_R   0.397859 0.854302 0.221209 -0.289246
C178  C     C_R   0.540174 0.795586 0.986559 0.002357
C179  C     C_R   0.602141 0.854302 0.778791 -0.289245
C180  C     C_R   0.897859 0.354302 0.221209 -0.289245
C181  C     C_R   0.102141 0.354302 0.778791 -0.289246
C182  C     C_R   0.433684 0.884625 0.288042 0.224907
C183  C     C_R   0.566316 0.884625 0.711958 0.224907
C184  C     C_R   0.933684 0.384625 0.288042 0.224907
C185  C     C_R   0.066316 0.384625 0.711958 0.224907
C186  C     C_R   0.414036 0.898589 0.328219 -0.155769
C187  C     C_R   0.585964 0.898589 0.671781 -0.155769
C188  C     C_R   0.914036 0.398589 0.328219 -0.155768
C189  C     C_R   0.459826 0.795586 0.013441 0.002356
C190  C     C_R   0.085964 0.398589 0.671781 -0.155769
C191  C     C_R   0.868282 0.743474 0.922585 -0.225129
C192  C     C_R   0.131718 0.743474 0.077415 -0.225129
C193  C     C_R   0.368282 0.243474 0.922585 -0.225129
C194  C     C_R   0.631718 0.243474 0.077415 -0.225129
C195  C     C_R   0.885328 0.748743 0.001234 -0.110399
C196  C     C_R   0.114672 0.748743 0.998766 -0.110399
C197  C     C_R   0.385328 0.248743 0.001234 -0.110399
C198  C     C_R   0.614672 0.248743 0.998766 -0.110399
C199  C     C_R   0.947702 0.751842 0.080029 -0.235908
C200  C     C_R   0.040174 0.295586 0.986559 0.002356
C201  C     C_R   0.052298 0.751842 0.919971 -0.235908
C202  C     C_R   0.447702 0.251842 0.080029 -0.235908
C203  C     C_R   0.552298 0.251842 0.919971 -0.235908
C204  C     C_R   0.995058 0.749509 0.081944 0.082832
C205  C     C_R   0.004942 0.749509 0.918056 0.082832
C206  C     C_R   0.495058 0.249509 0.081944 0.082832
C207  C     C_R   0.504942 0.249509 0.918056 0.082832
C208  C     C_R   0.977151 0.747646 0.000573 -0.035027
C209  C     C_R   0.022849 0.747646 0.999427 -0.035028
C210  C     C_R   0.477151 0.247646 0.000573 -0.035028
C211  C     C_R   0.959826 0.295586 0.013441 0.002357
C212  C     C_R   0.522849 0.247646 0.999427 -0.035028
C213  C     C_R   0.913338 0.744559 0.920371 0.073302
C214  C     C_R   0.086662 0.744559 0.079629 0.073302
C215  C     C_R   0.413338 0.244559 0.920371 0.073302
C216  C     C_R   0.586662 0.244559 0.079629 0.073302
C217  C     C_R   0.059198 0.747278 0.162645 0.092328
C218  C     C_R   0.940802 0.747277 0.837355 0.092328
C219  C     C_R   0.559198 0.247277 0.162645 0.092328
C220  C     C_R   0.440802 0.247277 0.837355 0.092328
C221  C     C_R   0.192258 0.689957 0.879773 0.862176
C222  C     C_R   0.522467 0.675491 0.999678 -0.218759
C223  C     C_R   0.807742 0.689957 0.120227 0.862176
C224  C     C_R   0.692258 0.189957 0.879773 0.862175
C225  C     C_R   0.307742 0.189957 0.120227 0.862176
C226  C     C_R   0.104629 0.741690 0.160418 0.156233
C227  C     C_R   0.895371 0.741690 0.839582 0.156234
C228  C     C_R   0.604629 0.241690 0.160418 0.156233
C229  C     C_R   0.395371 0.241690 0.839582 0.156234
C230  C     C_R   0.175589 0.698407 0.728240 -0.260174
C231  C     C_R   0.824411 0.698407 0.271760 -0.260174
C232  C     C_R   0.675586 0.198408 0.728238 -0.260173
H1    H     H_    0.819213 0.740046 0.863014 0.184789
H2    H     H_    0.851180 0.615411 0.119410 0.160535
H3    H     H_    0.758113 0.249467 0.347821 0.244775
H4    H     H_    0.329466 0.203557 0.727790 0.219473
H5    H     H_    0.302812 0.285081 0.684539 0.239738
H6    H     H_    0.283179 0.283338 0.746979 0.245330
H7    H     H_    0.241887 0.249467 0.652179 0.244775
H8    H     H_    0.109820 0.789876 0.592604 0.263903
H9    H     H_    0.175886 0.791770 0.710508 0.259771
H10   H     H_    0.181357 0.816570 0.640181 0.245444
H11   H     H_    0.237454 0.744608 0.698412 0.198167
H12   H     H_    0.174464 0.745510 0.581837 0.233962
H13   H     H_    0.648822 0.115410 0.880592 0.160535
H14   H     H_    0.890180 0.789876 0.407396 0.263903
H15   H     H_    0.824114 0.791770 0.289492 0.259770
H16   H     H_    0.818644 0.816571 0.359819 0.245445
H17   H     H_    0.762546 0.744608 0.301588 0.198167
H18   H     H_    0.825536 0.745510 0.418163 0.233962
H19   H     H_    0.609813 0.289877 0.592601 0.263903
H20   H     H_    0.675880 0.291771 0.710505 0.259770
H21   H     H_    0.681348 0.316573 0.640175 0.245444
H22   H     H_    0.737448 0.244611 0.698405 0.198167
H23   H     H_    0.674456 0.245512 0.581830 0.233962
H24   H     H_    0.351180 0.115411 0.119410 0.160535
H25   H     H_    0.390182 0.289876 0.407396 0.263903
H26   H     H_    0.324115 0.291770 0.289492 0.259770
H27   H     H_    0.318645 0.316571 0.359820 0.245444
H28   H     H_    0.262547 0.244609 0.301589 0.198167
H29   H     H_    0.325537 0.245510 0.418164 0.233962
H30   H     H_    0.045958 0.681332 0.442462 0.233809
H31   H     H_    0.123860 0.628604 0.481671 0.248588
H32   H     H_    0.179556 0.673355 0.536418 0.242682
H33   H     H_    0.112460 0.675020 0.419601 0.239292
H34   H     H_    0.954042 0.681332 0.557538 0.233809
H35   H     H_    0.210534 0.719512 0.783268 0.170367
H36   H     H_    0.876141 0.628604 0.518330 0.248588
H37   H     H_    0.820444 0.673355 0.463582 0.242682
H38   H     H_    0.887540 0.675020 0.580399 0.239292
H39   H     H_    0.545951 0.181333 0.442458 0.233810
H40   H     H_    0.623854 0.128607 0.481664 0.248588
H41   H     H_    0.679549 0.173359 0.536410 0.242681
H42   H     H_    0.612451 0.175023 0.419594 0.239292
H43   H     H_    0.454043 0.181333 0.557539 0.233810
H44   H     H_    0.376141 0.128604 0.518331 0.248588
H45   H     H_    0.320445 0.173356 0.463584 0.242681
H46   H     H_    0.789466 0.719512 0.216732 0.170367
H47   H     H_    0.387541 0.175020 0.580400 0.239292
H48   H     H_    0.661463 0.670985 0.039306 0.230348
H49   H     H_    0.577881 0.666946 0.871929 0.259963
H50   H     H_    0.528595 0.644758 0.883007 0.230332
H51   H     H_    0.598435 0.616073 0.929499 0.227122
H52   H     H_    0.338537 0.670985 0.960694 0.230348
H53   H     H_    0.422119 0.666946 0.128071 0.259964
H54   H     H_    0.471405 0.644758 0.116993 0.230332
H55   H     H_    0.401565 0.616073 0.070500 0.227122
H56   H     H_    0.161463 0.170985 0.039306 0.230348
H57   H     H_    0.710531 0.219513 0.783265 0.170368
H58   H     H_    0.077881 0.166946 0.871930 0.259964
H59   H     H_    0.028595 0.144758 0.883007 0.230332
H60   H     H_    0.098435 0.116073 0.929500 0.227122
H61   H     H_    0.838537 0.170985 0.960694 0.230348
H62   H     H_    0.922119 0.166946 0.128071 0.259963
H63   H     H_    0.971405 0.144758 0.116994 0.230332
H64   H     H_    0.901565 0.116073 0.070501 0.227122
H65   H     H_    0.465168 0.901880 0.004083 0.233938
H66   H     H_    0.529987 0.914728 0.156186 0.243936
H67   H     H_    0.578124 0.890564 0.143941 0.236810
H68   H     H_    0.289467 0.219512 0.216732 0.170367
H69   H     H_    0.548730 0.857308 0.178285 0.252897
H70   H     H_    0.534832 0.901880 0.995917 0.233938
H71   H     H_    0.470012 0.914728 0.843814 0.243936
H72   H     H_    0.421876 0.890564 0.856059 0.236810
H73   H     H_    0.451270 0.857308 0.821715 0.252897
H74   H     H_    0.965168 0.401880 0.004083 0.233939
H75   H     H_    0.029988 0.414728 0.156186 0.243937
H76   H     H_    0.078124 0.390564 0.143941 0.236810
H77   H     H_    0.048730 0.357308 0.178285 0.252896
H78   H     H_    0.034832 0.401880 0.995917 0.233939
H79   H     H_    0.057945 0.621420 0.530579 0.156999
H80   H     H_    0.970012 0.414727 0.843814 0.243936
H81   H     H_    0.921876 0.390564 0.856059 0.236810
H82   H     H_    0.951270 0.357308 0.821715 0.252896
H83   H     H_    0.166123 0.832607 0.067790 0.246688
H84   H     H_    0.154298 0.872710 0.961586 0.235606
H85   H     H_    0.229833 0.897313 0.048058 0.242840
H86   H     H_    0.165924 0.910354 0.036504 0.223146
H87   H     H_    0.833877 0.832607 0.932210 0.246687
H88   H     H_    0.845702 0.872710 0.038413 0.235606
H89   H     H_    0.770167 0.897313 0.951942 0.242841
H90   H     H_    0.942056 0.621420 0.469421 0.156999
H91   H     H_    0.834076 0.910354 0.963495 0.223146
H92   H     H_    0.666122 0.332607 0.067790 0.246687
H93   H     H_    0.654298 0.372710 0.961586 0.235606
H94   H     H_    0.729833 0.397313 0.048058 0.242841
H95   H     H_    0.665924 0.410354 0.036505 0.223145
H96   H     H_    0.333877 0.332607 0.932210 0.246687
H97   H     H_    0.345702 0.372710 0.038414 0.235606
H98   H     H_    0.270167 0.397313 0.951942 0.242841
H99   H     H_    0.334076 0.410354 0.963495 0.223145
H100  H     H_    0.163020 0.850191 0.209197 0.224094
H101  H     H_    0.557942 0.121420 0.530577 0.156998
H102  H     H_    0.128416 0.921073 0.176581 0.225555
H103  H     H_    0.099764 0.904563 0.073102 0.243808
H104  H     H_    0.172360 0.934419 0.151058 0.242362
H105  H     H_    0.836980 0.850190 0.790803 0.224094
H106  H     H_    0.871584 0.921072 0.823419 0.225555
H107  H     H_    0.900235 0.904562 0.926897 0.243808
H108  H     H_    0.827640 0.934419 0.848941 0.242362
H109  H     H_    0.663019 0.350191 0.209197 0.224093
H110  H     H_    0.628416 0.421072 0.176581 0.225555
H111  H     H_    0.599765 0.404562 0.073102 0.243808
H112  H     H_    0.180787 0.740046 0.136986 0.184789
H113  H     H_    0.442056 0.121420 0.469421 0.156999
H114  H     H_    0.672360 0.434419 0.151059 0.242362
H115  H     H_    0.336980 0.350191 0.790803 0.224094
H116  H     H_    0.371584 0.421072 0.823419 0.225556
H117  H     H_    0.400235 0.404562 0.926898 0.243808
H118  H     H_    0.327640 0.434419 0.848941 0.242362
H119  H     H_    0.237724 0.863915 0.350264 0.217475
H120  H     H_    0.265721 0.930063 0.429561 0.230297
H121  H     H_    0.229529 0.944139 0.320739 0.243100
H122  H     H_    0.313548 0.945670 0.411699 0.244019
H123  H     H_    0.762275 0.863914 0.649736 0.217475
H124  H     H_    0.089100 0.560496 0.765838 0.150795
H125  H     H_    0.734279 0.930063 0.570439 0.230298
H126  H     H_    0.770471 0.944138 0.679261 0.243101
H127  H     H_    0.686452 0.945670 0.588301 0.244020
H128  H     H_    0.737724 0.363915 0.350264 0.217475
H129  H     H_    0.765720 0.430063 0.429560 0.230298
H130  H     H_    0.729529 0.444139 0.320739 0.243102
H131  H     H_    0.813548 0.445670 0.411700 0.244020
H132  H     H_    0.262275 0.363915 0.649736 0.217475
H133  H     H_    0.234279 0.430063 0.570439 0.230298
H134  H     H_    0.270471 0.444139 0.679261 0.243101
H135  H     H_    0.910899 0.560496 0.234162 0.150795
H136  H     H_    0.186452 0.445670 0.588301 0.244019
H137  H     H_    0.360501 0.821854 0.471916 0.270574
H138  H     H_    0.403536 0.801921 0.447830 0.262465
H139  H     H_    0.444564 0.822785 0.555218 0.247347
H140  H     H_    0.448520 0.876830 0.478242 0.177319
H141  H     H_    0.399610 0.897801 0.490282 0.236873
H142  H     H_    0.639499 0.821854 0.528084 0.270574
H143  H     H_    0.596463 0.801921 0.552170 0.262466
H144  H     H_    0.555436 0.822785 0.444782 0.247347
H145  H     H_    0.551480 0.876830 0.521757 0.177319
H146  H     H_    0.589103 0.060495 0.765840 0.150794
H147  H     H_    0.600390 0.897801 0.509718 0.236873
H148  H     H_    0.860501 0.321854 0.471916 0.270574
H149  H     H_    0.903536 0.301921 0.447830 0.262465
H150  H     H_    0.944564 0.322785 0.555218 0.247347
H151  H     H_    0.948519 0.376830 0.478242 0.177319
H152  H     H_    0.899610 0.397801 0.490282 0.236873
H153  H     H_    0.139499 0.321854 0.528084 0.270574
H154  H     H_    0.096464 0.301921 0.552170 0.262464
H155  H     H_    0.055436 0.322785 0.444782 0.247347
H156  H     H_    0.051480 0.376830 0.521757 0.177319
H157  H     H_    0.410899 0.060496 0.234162 0.150795
H158  H     H_    0.100390 0.397801 0.509718 0.236873
H159  H     H_    0.539569 0.643905 0.001512 0.178990
H160  H     H_    0.460431 0.643905 0.998487 0.178990
H161  H     H_    0.039569 0.143905 0.001513 0.178991
H162  H     H_    0.960431 0.143905 0.998488 0.178990
H163  H     H_    0.414789 0.840949 0.194436 0.123762
H164  H     H_    0.319213 0.240046 0.863014 0.184789
H165  H     H_    0.585211 0.840949 0.805564 0.123762
H166  H     H_    0.914789 0.340949 0.194436 0.123762
H167  H     H_    0.085211 0.340949 0.805564 0.123762
H168  H     H_    0.636672 0.868348 0.085870 0.244149
H169  H     H_    0.699522 0.844636 0.104921 0.265367
H170  H     H_    0.663327 0.894152 0.041657 0.231192
H171  H     H_    0.631199 0.828019 0.949101 0.188203
H172  H     H_    0.568985 0.855502 0.915061 0.213304
H173  H     H_    0.363328 0.868348 0.914130 0.244149
H174  H     H_    0.300478 0.844636 0.895079 0.265367
H175  H     H_    0.680787 0.240046 0.136986 0.184789
H176  H     H_    0.336672 0.894152 0.958343 0.231192
H177  H     H_    0.368801 0.828019 0.050899 0.188202
H178  H     H_    0.431014 0.855502 0.084939 0.213304
H179  H     H_    0.136672 0.368347 0.085870 0.244150
H180  H     H_    0.199522 0.344636 0.104921 0.265367
H181  H     H_    0.163327 0.394152 0.041657 0.231192
H182  H     H_    0.131199 0.328018 0.949101 0.188202
H183  H     H_    0.068985 0.355502 0.915061 0.213304
H184  H     H_    0.863328 0.368347 0.914130 0.244149
H185  H     H_    0.800478 0.344636 0.895079 0.265367
H186  H     H_    0.957964 0.754153 0.139179 0.163277
H187  H     H_    0.836672 0.394152 0.958343 0.231192
H188  H     H_    0.868801 0.328018 0.050899 0.188202
H189  H     H_    0.931014 0.355502 0.084939 0.213304
H190  H     H_    0.517630 0.875191 0.326406 0.217538
H191  H     H_    0.453670 0.919018 0.192035 0.220299
H192  H     H_    0.525062 0.945716 0.286273 0.228440
H193  H     H_    0.452228 0.961058 0.250142 0.251321
H194  H     H_    0.482370 0.875191 0.673594 0.217538
H195  H     H_    0.546330 0.919018 0.807965 0.220299
H196  H     H_    0.474938 0.945716 0.713727 0.228440
H197  H     H_    0.042036 0.754153 0.860821 0.163277
H198  H     H_    0.547772 0.961058 0.749858 0.251322
H199  H     H_    0.017630 0.375191 0.326406 0.217538
H200  H     H_    0.953670 0.419018 0.192035 0.220299
H201  H     H_    0.025062 0.445716 0.286273 0.228440
H202  H     H_    0.952228 0.461058 0.250142 0.251322
H203  H     H_    0.982370 0.375191 0.673593 0.217538
H204  H     H_    0.046329 0.419018 0.807965 0.220299
H205  H     H_    0.974938 0.445716 0.713727 0.228440
H206  H     H_    0.047772 0.461058 0.749858 0.251322
H207  H     H_    0.106815 0.819383 0.272693 0.251128
H208  H     H_    0.457964 0.254153 0.139179 0.163277
H209  H     H_    0.027383 0.811211 0.218994 0.260354
H210  H     H_    0.090717 0.799646 0.334113 0.249066
H211  H     H_    0.050835 0.728841 0.252140 0.193224
H212  H     H_    0.127789 0.739693 0.306354 0.214035
H213  H     H_    0.893185 0.819383 0.727306 0.251127
H214  H     H_    0.972617 0.811211 0.781006 0.260354
H215  H     H_    0.909283 0.799646 0.665887 0.249066
H216  H     H_    0.949165 0.728841 0.747860 0.193225
H217  H     H_    0.872211 0.739693 0.693646 0.214036
H218  H     H_    0.606815 0.319383 0.272694 0.251126
H219  H     H_    0.542036 0.254153 0.860821 0.163277
H220  H     H_    0.527383 0.311211 0.218994 0.260354
H221  H     H_    0.590717 0.299646 0.334113 0.249066
H222  H     H_    0.550835 0.228841 0.252140 0.193224
H223  H     H_    0.627789 0.239693 0.306354 0.214035
H224  H     H_    0.393184 0.319383 0.727306 0.251127
H225  H     H_    0.472617 0.311211 0.781006 0.260354
H226  H     H_    0.409283 0.299646 0.665887 0.249065
H227  H     H_    0.449165 0.228841 0.747860 0.193225
H228  H     H_    0.372211 0.239693 0.693646 0.214036
H229  H     H_    0.170534 0.703557 0.272210 0.219472
H230  H     H_    0.148819 0.615411 0.880590 0.160534
H231  H     H_    0.197188 0.785081 0.315461 0.239739
H232  H     H_    0.216821 0.783338 0.253020 0.245330
H233  H     H_    0.258113 0.749467 0.347821 0.244775
H234  H     H_    0.829466 0.703557 0.727790 0.219472
H235  H     H_    0.802812 0.785081 0.684539 0.239738
H236  H     H_    0.783179 0.783337 0.746979 0.245330
H237  H     H_    0.741887 0.749467 0.652179 0.244775
H238  H     H_    0.670534 0.203557 0.272210 0.219473
H239  H     H_    0.697188 0.285081 0.315461 0.239738
H240  H     H_    0.716820 0.283337 0.253020 0.245330
N1    N     N_2   0.489501 0.900124 0.314797 -0.284525
N2    N     N_2   0.906744 0.686643 0.505299 -0.313032
N3    N     N_2   0.593249 0.186644 0.494697 -0.313031
N4    N     N_2   0.406745 0.186643 0.505299 -0.313032
N5    N     N_2   0.613797 0.672219 0.998886 -0.308666
N6    N     N_2   0.386203 0.672219 0.001113 -0.308666
N7    N     N_2   0.113797 0.172219 0.998887 -0.308666
N8    N     N_2   0.886203 0.172219 0.001114 -0.308666
N9    N     N_2   0.482057 0.875240 0.044872 -0.308153
N10   N     N_2   0.517943 0.875240 0.955128 -0.308153
N11   N     N_2   0.982057 0.375240 0.044872 -0.308153
N12   N     N_2   0.510499 0.900124 0.685203 -0.284526
N13   N     N_2   0.017943 0.375240 0.955128 -0.308153
N14   N     N_2   0.204831 0.847435 0.086946 -0.288970
N15   N     N_2   0.795168 0.847435 0.913054 -0.288970
N16   N     N_2   0.704832 0.347435 0.086946 -0.288970
N17   N     N_2   0.295168 0.347435 0.913054 -0.288970
N18   N     N_2   0.174460 0.867500 0.181083 -0.307254
N19   N     N_2   0.825540 0.867500 0.818917 -0.307254
N20   N     N_2   0.674460 0.367500 0.181083 -0.307253
N21   N     N_2   0.325540 0.367500 0.818917 -0.307254
N22   N     N_2   0.273492 0.882452 0.367489 -0.303566
N23   N     N_2   0.989501 0.400124 0.314797 -0.284526
N24   N     N_2   0.726507 0.882452 0.632510 -0.303566
N25   N     N_2   0.773492 0.382452 0.367489 -0.303565
N26   N     N_2   0.226507 0.382452 0.632510 -0.303565
N27   N     N_2   0.010499 0.400124 0.685203 -0.284526
N28   N     N_2   0.167030 0.728780 0.237114 -0.309787
N29   N     N_2   0.832970 0.728779 0.762886 -0.309787
N30   N     N_2   0.667030 0.228779 0.237114 -0.309788
N31   N     N_2   0.332970 0.228779 0.762886 -0.309788
N32   N     N_2   0.093256 0.686643 0.494701 -0.313032
O1    O     O_R   0.321630 0.769940 0.143350 -0.627101
O2    O     O_R   0.508520 0.954180 0.591620 -0.597489
O3    O     O_R   0.991480 0.454180 0.408380 -0.597489
O4    O     O_R   0.008520 0.454180 0.591620 -0.597489
O5    O     O_R   0.416890 0.954190 0.408420 -0.632223
O6    O     O_R   0.583110 0.954190 0.591580 -0.632223
O7    O     O_R   0.916890 0.454190 0.408420 -0.632223
O8    O     O_R   0.083110 0.454190 0.591580 -0.632223
O9    O     O_R   0.269950 0.821660 0.039930 -0.615333
O10   O     O_R   0.730050 0.821660 0.960070 -0.615333
O11   O     O_R   0.769950 0.321660 0.039930 -0.615333
O12   O     O_R   0.678370 0.769940 0.856650 -0.627101
O13   O     O_R   0.230050 0.321660 0.960070 -0.615333
O14   O     O_R   0.341900 0.724110 0.051720 -0.622434
O15   O     O_R   0.658100 0.724110 0.948280 -0.622434
O16   O     O_R   0.841900 0.224110 0.051720 -0.622434
O17   O     O_R   0.158100 0.224110 0.948280 -0.622434
O18   O     O_R   0.290220 0.775830 0.948290 -0.633903
O19   O     O_R   0.709780 0.775830 0.051710 -0.633903
O20   O     O_R   0.790220 0.275830 0.948290 -0.633903
O21   O     O_R   0.209780 0.275830 0.051710 -0.633903
O22   O     O_R   0.230030 0.678320 0.960120 -0.623475
O23   O     O_R   0.821630 0.269940 0.143350 -0.627101
O24   O     O_R   0.769970 0.678320 0.039880 -0.623475
O25   O     O_R   0.730030 0.178320 0.960120 -0.623475
O26   O     O_R   0.269970 0.178320 0.039880 -0.623475
O27   O     O_R   0.178350 0.730040 0.856700 -0.625324
O28   O     O_R   0.821650 0.730040 0.143300 -0.625323
O29   O     O_R   0.678350 0.230040 0.856700 -0.625324
O30   O     O_R   0.321650 0.230040 0.143300 -0.625323
O31   O     O_R   0.209770 0.724150 0.051760 -0.622483
O32   O     O_R   0.790230 0.724150 0.948240 -0.622483
O33   O     O_R   0.709770 0.224150 0.051760 -0.622483
O34   O     O_R   0.178370 0.269940 0.856650 -0.627101
O35   O     O_R   0.290230 0.224150 0.948240 -0.622483
O36   O     O_R   0.158090 0.775870 0.948330 -0.617376
O37   O     O_R   0.841910 0.775870 0.051670 -0.617376
O38   O     O_R   0.658090 0.275870 0.948330 -0.617376
O39   O     O_R   0.341910 0.275870 0.051670 -0.617376
O40   O     O_R   0.991500 0.545800 0.408400 -0.627894
O41   O     O_R   0.008500 0.545800 0.591600 -0.627894
O42   O     O_R   0.491500 0.045800 0.408400 -0.627894
O43   O     O_R   0.508500 0.045800 0.591600 -0.627894
O44   O     O_R   0.916920 0.545810 0.408440 -0.613576
O45   O     O_R   0.083080 0.545810 0.591560 -0.613577
O46   O     O_R   0.416920 0.045810 0.408440 -0.613576
O47   O     O_R   0.583080 0.045810 0.591560 -0.613576
O48   O     O_R   0.491480 0.954180 0.408380 -0.597489
Zn1   Zn    Zn3+2 0.284500 0.715460 0.069080 0.940602
Zn2   Zn    Zn3+2 0.450210 0.999990 0.500010 0.928482
Zn3   Zn    Zn3+2 0.049790 0.499990 0.499990 0.928482
Zn4   Zn    Zn3+2 0.950210 0.499990 0.500010 0.928482
Zn5   Zn    Zn3+2 0.715500 0.715460 0.930920 0.940602
Zn6   Zn    Zn3+2 0.784500 0.215460 0.069080 0.940602
Zn7   Zn    Zn3+2 0.215500 0.215460 0.930920 0.940602
Zn8   Zn    Zn3+2 0.215490 0.784530 0.930970 0.924330
Zn9   Zn    Zn3+2 0.784510 0.784530 0.069030 0.924330
Zn10  Zn    Zn3+2 0.715490 0.284530 0.930970 0.924329
Zn11  Zn    Zn3+2 0.284510 0.284530 0.069030 0.924330
Zn12  Zn    Zn3+2 0.549790 0.999990 0.499990 0.928482

loop_
_geom_bond_atom_site_label_1
_geom_bond_atom_site_label_2
_ccdc_geom_bond_type
C120  H55   S    
O1    Zn1   S    
C21   C26   A    
C50   O46   A    
C98   C220  S    
C175  O16   A    
C111  H28   S    
C150  N21   S    
C91   H204  S    
C185  C190  A    
C89   H202  S    
C104  H6    S    
C133  H106  S    
C78   H171  S    
C123  H69   S    
C133  N19   S    
C177  C182  A    
C29   C33   A    
O43   Zn2   S    
C116  H37   S    
C111  H29   S    
C126  H77   S    
C102  H237  S    
O21   Zn11  S    
C125  H72   S    
C204  C208  A    
C152  N24   S    
C183  N12   S    
C70   C74   A    
C5    C231  A    
C221  O27   A    
C151  C155  A    
C119  H50   S    
C39   O36   A    
C140  N26   S    
C217  C226  A    
C53   O2    A    
C140  H134  S    
O38   Zn10  S    
C102  H236  S    
H74   N11   S    
C88   N12   S    
C224  O29   A    
C132  H104  S    
C63   C67   A    
C177  H163  S    
C121  N7    S    
C101  C146  A    
C31   H2    S    
C12   H79   S    
C27   C31   A    
C121  H59   S    
C28   C32   A    
C8    N32   S    
C117  H41   S    
C62   C66   A    
C55   O4    A    
C119  H51   S    
C86   H184  S    
C17   C21   A    
C221  O22   A    
C93   H209  S    
C125  N10   S    
O45   Zn3   S    
C19   C23   A    
C17   C43   A    
C136  H116  S    
C18   C44   A    
C130  H93   S    
C131  H99   S    
C74   C178  A    
C16   C20   A    
C65   N5    S    
C42   O35   A    
H70   N10   S    
C148  C149  S    
C113  N17   S    
O34   Zn7   S    
O17   Zn7   S    
C22   C27   A    
C90   C165  A    
C199  C204  A    
C84   H179  S    
C149  H154  S    
C36   C44   A    
C106  H9    S    
C37   C45   A    
C2    C71   A    
C160  C164  A    
C40   O37   A    
C167  O13   A    
C133  H108  S    
C152  C157  A    
C145  H151  S    
C134  N20   S    
C146  N20   S    
C75   C189  A    
C142  H138  S    
C27   C223  S    
C123  H67   S    
H61   N8    S    
C91   N27   S    
C203  H219  S    
O9    Zn8   S    
C138  N24   S    
C13   C72   A    
C144  H142  S    
C206  C219  A    
C50   O42   A    
C108  H16   S    
C59   C63   A    
C33   C38   A    
C95   H215  S    
C60   C64   A    
C95   H213  S    
C77   C211  A    
C126  H75   S    
O48   Zn12  S    
C136  N21   S    
C99   H225  S    
C21   C230  A    
C108  H14   S    
C163  C190  A    
C101  C166  A    
C90   N15   S    
C103  N30   S    
C210  C215  A    
C61   C65   A    
C140  H136  S    
C98   C99   S    
C53   O6    A    
C73   C77   A    
C31   C36   A    
H234  N29   S    
C24   H162  S    
O7    Zn4   S    
C105  H11   S    
C161  C165  A    
C136  H117  S    
C180  C184  A    
C97   H218  S    
C57   C211  A    
C208  C213  A    
H194  N12   S    
C227  N29   S    
H109  N20   S    
C87   H192  S    
C113  C168  A    
C118  H44   S    
C119  H49   S    
C56   C178  A    
C85   C86   S    
C120  H54   S    
C173  O14   A    
C216  C228  A    
C176  O17   A    
C148  H156  S    
O15   Zn5   S    
H30   N32   S    
C80   H169  S    
C91   H205  S    
C131  H97   S    
C135  N19   S    
C65   C70   A    
C109  H22   S    
C56   C78   S    
C68   N13   S    
C67   C72   A    
C153  C158  A    
C151  N22   S    
C89   N23   S    
C128  N14   S    
C172  C181  A    
C180  H166  S    
C181  H167  S    
C175  O20   A    
C84   H181  S    
C137  H122  S    
C219  C228  A    
C114  H27   S    
H78   N13   S    
C28   C224  S    
C69   N8    S    
O47   Zn12  S    
C35   N9    S    
C29   C225  S    
C92   C217  S    
C83   H182  S    
C52   C186  S    
C58   C189  A    
C169  C177  A    
C138  H127  S    
O11   Zn10  S    
C193  C215  A    
C47   C50   S    
C195  C199  A    
O12   Zn5   S    
C144  H144  S    
C94   H216  S    
C30   C34   A    
C37   H146  S    
C20   C47   A    
C40   O32   A    
O8    Zn3   S    
H238  N30   S    
C110  H20   S    
C64   C69   A    
C62   C173  S    
C132  N18   S    
C11   N4    S    
C82   H176  S    
H119  N22   S    
C9    N2    S    
C129  H89   S    
C154  N26   S    
C5    C9    A    
O28   Zn9   S    
C88   H196  S    
O10   Zn9   S    
C114  H26   S    
C54   O7    A    
C206  C210  A    
C49   O41   A    
C83   C84   S    
C59   C200  A    
C8    C12   A    
H115  N21   S    
C100  H232  S    
C92   H211  S    
C197  C202  A    
C185  N27   S    
C32   C37   A    
C224  O25   A    
H123  N24   S    
C97   H220  S    
C98   H228  S    
C127  H81   S    
C124  C151  A    
C26   C30   A    
C128  H86   S    
C6    C109  S    
C122  H64   S    
C57   C68   A    
C30   H230  S    
C127  N13   S    
C55   O8    A    
H34   N2    S    
C38   H157  S    
C137  N22   S    
O36   Zn8   S    
C103  H3    S    
C107  H18   S    
C148  H158  S    
C18   C22   A    
O41   Zn4   S    
C113  C150  A    
O13   Zn11  S    
C61   C174  S    
O39   Zn11  S    
C116  H36   S    
C137  H121  S    
C19   C45   A    
C2    H160  S    
C89   H201  S    
C79   C124  A    
C184  N23   S    
C210  C212  A    
C42   O39   A    
C78   H172  S    
C170  C179  A    
C139  H130  S    
C163  C168  A    
C154  C159  A    
C90   C135  A    
H4    N31   S    
C194  C198  A    
C223  O28   A    
C1    O9    A    
C14   H90   S    
C125  H73   S    
C114  H25   S    
O16   Zn6   S    
C115  H32   S    
C125  H71   S    
C129  H88   S    
C44   C48   S    
C228  N30   S    
C201  C205  A    
C106  H8    S    
O23   Zn6   S    
C196  C201  A    
C193  H164  S    
O33   Zn6   S    
C138  H125  S    
H203  N27   S    
C81   H178  S    
O42   Zn12  S    
C40   C195  S    
C13   H161  S    
C58   C62   A    
C141  H141  S    
C52   O5    A    
C79   N14   S    
C93   H207  S    
C147  H150  S    
C134  H110  S    
C79   C164  A    
O26   Zn7   S    
H56   N7    S    
C36   H135  S    
C6    C232  A    
C46   N10   S    
C81   H177  S    
C63   C176  S    
C15   H101  S    
C52   O48   A    
C67   N7    S    
C127  H80   S    
C207  C220  A    
C82   H174  S    
C121  H58   S    
C192  C196  A    
C129  H91   S    
C59   C83   S    
C3    C7    A    
O25   Zn6   S    
C194  C216  A    
C118  H47   S    
C24   C73   A    
C141  H140  S    
C20   C25   A    
H128  N25   S    
C2    C222  A    
C182  C186  A    
C14   C18   A    
C120  N6    S    
C130  H94   S    
C112  C170  S    
C22   C231  A    
C208  C209  A    
C12   C17   A    
H105  N19   S    
C69   C73   A    
C122  H62   S    
C130  N16   S    
H229  N28   S    
C129  N15   S    
C231  H46   S    
C4    C8    A    
C85   H189  S    
C155  C160  A    
C112  O10   A    
C223  O24   A    
C35   C189  A    
C54   C188  S    
C112  O12   A    
C25   C29   A    
C84   H180  S    
C149  H153  S    
C106  H10   S    
C116  H38   S    
C145  C147  S    
C117  N3    S    
C87   N1    S    
C104  H5    S    
C133  H107  S    
C34   C43   A    
C167  O34   A    
C142  H139  S    
C82   H173  S    
C179  C183  A    
C3    C25   A    
C83   H183  S    
C58   C81   S    
C232  H57   S    
C85   H188  S    
C162  C166  A    
C141  C155  S    
O37   Zn9   S    
C86   H187  S    
C103  H240  S    
O3    Zn3   S    
C174  O19   A    
C148  C159  S    
C229  N31   S    
C96   H223  S    
C9    C14   A    
C126  H76   S    
O19   Zn9   S    
C183  C187  A    
C225  O26   A    
C135  C152  A    
C34   H124  S    
C66   C71   A    
C66   N6    S    
C194  H175  S    
C156  O23   A    
C131  N17   S    
C5    C107  S    
C220  C229  A    
C140  H133  S    
C201  H197  S    
C1    O1    A    
C102  H235  S    
O44   Zn4   S    
H39   N3    S    
C157  C161  A    
C218  C227  A    
C119  N5    S    
C136  H118  S    
C132  H103  S    
H87   N15   S    
C165  C170  A    
C121  H60   S    
C42   C197  S    
C87   H191  S    
C103  H239  S    
C117  H42   S    
O24   Zn5   S    
C6    C10   A    
C118  H45   S    
C54   O3    A    
C33   H24   S    
C49   O45   A    
C167  C172  S    
C191  H1    S    
C96   C219  S    
C105  C106  S    
C32   H13   S    
C39   C196  S    
C51   O47   A    
C209  C214  A    
C100  N28   S    
C51   O43   A    
C124  N18   S    
C93   H210  S    
C80   H170  S    
C143  C144  S    
C161  C187  A    
C122  N8    S    
C109  C110  S    
C191  C213  A    
C162  C188  A    
C145  C158  S    
C137  H120  S    
C146  C153  A    
H199  N23   S    
C92   C93   S    
C70   C222  A    
C7    C111  S    
C10   N3    S    
C111  C114  S    
C78   C80   S    
C139  H131  S    
C94   C95   S    
C60   C211  A    
C3    H68   S    
C168  C172  A    
C16   H113  S    
H52   N6    S    
C198  C203  A    
C56   C61   A    
C149  H155  S    
C60   C85   S    
H100  N18   S    
C35   C46   A    
C115  H33   S    
C104  H7    S    
C71   C75   A    
C145  H152  S    
C48   O44   A    
C142  H137  S    
C46   C178  A    
C226  N28   S    
C160  C186  A    
C72   C76   A    
C104  N31   S    
C134  H114  S    
C81   C82   S    
O29   Zn10  S    
C86   H185  S    
H48   N5    S    
C7    C11   A    
C108  H15   S    
C213  C227  A    
O32   Zn5   S    
C100  H233  S    
O46   Zn2   S    
C10   C15   A    
C179  H165  S    
C99   H226  S    
C118  N4    S    
C45   C51   S    
C110  H21   S    
C116  N2    S    
C41   O38   A    
C94   H217  S    
C94   C218  S    
H96   N17   S    
C115  N32   S    
C11   C16   A    
C15   C19   A    
C192  H112  S    
C212  C216  A    
O2    Zn2   S    
O14   Zn1   S    
C92   H212  S    
O6    Zn12  S    
C123  N9    S    
C105  H12   S    
C23   C232  A    
C222  H159  S    
C166  C171  A    
C48   O40   A    
C164  C169  A    
C143  H147  S    
C214  C226  A    
C192  C214  A    
C143  C157  S    
C101  N16   S    
C191  C195  A    
C230  H35   S    
O40   Zn3   S    
C120  H53   S    
C139  N25   S    
H65   N9    S    
C205  C218  A    
C74   C75   A    
C107  H17   S    
C55   C190  S    
C39   O31   A    
C76   C77   A    
C182  N1    S    
C76   C200  A    
C91   H206  S    
C131  H98   S    
C181  C185  A    
O31   Zn1   S    
C43   C49   S    
C89   H200  S    
C128  H84   S    
C203  C207  A    
C109  H23   S    
C184  C188  A    
C13   C24   A    
C4    C230  A    
C139  H129  S    
C57   N11   S    
C153  N25   S    
C126  N11   S    
C205  C209  A    
C107  C108  S    
C96   C97   S    
C26   C221  S    
C64   C175  S    
C96   H222  S    
O5    Zn2   S    
O27   Zn8   S    
H190  N1    S    
C38   C47   A    
O4    Zn4   S    
C115  H31   S    
O22   Zn1   S    
C41   O33   A    
C202  C206  A    
C207  C212  A    
C159  C163  A    
C171  C180  A    
C123  H66   S    
C23   C28   A    
C87   H193  S    
C138  H126  S    
C117  H40   S    
C88   H198  S    
C144  H143  S    
O35   Zn7   S    
C95   H214  S    
C174  O15   A    
C215  C229  A    
C147  H149  S    
C134  H111  S    
C41   C198  S    
C80   H168  S    
C99   H224  S    
O20   Zn10  S    
C225  O30   A    
C132  H102  S    
H43   N4    S    
C199  H186  S    
C110  H19   S    
C4    C105  S    
C156  C171  S    
C204  C217  A    
C68   C200  A    
C156  O11   A    
C53   C187  S    
C88   H195  S    
C141  C142  S    
O18   Zn8   S    
H83   N14   S    
C102  N29   S    
C193  C197  A    
C1    C169  S    
C173  O18   A    
C100  H231  S    
C176  O21   A    
C147  H148  S    
C202  H208  S    
C158  C162  A    
C130  H95   S    
C97   H221  S    
C98   H227  S    
C127  H82   S    
C128  H85   S    
C150  C154  A    
H132  N26   S    
C122  H63   S    
C143  H145  S    
H92   N16   S    
O30   Zn11  S    
