data_mof_unit_55388.cif
_audit_creation_date              2012-12-10T18:18:24-0500
_audit_creation_method            fapswitch 2.2
_symmetry_space_group_name_H-M    P1
_symmetry_Int_Tables_number       1
_space_group_crystal_system       triclinic
_cell_length_a                    14.238678
_cell_length_b                    14.981188
_cell_length_c                    15.542967
_cell_angle_alpha                 88.448072
_cell_angle_beta                  65.473633
_cell_angle_gamma                 91.072211
_cell_volume                      3013.60671258

loop_
_atom_site_label
_atom_site_type_symbol
_atom_type_description
_atom_site_fract_x
_atom_site_fract_y
_atom_site_fract_z
_atom_type_partial_charge
C1    C     C_R   0.500980 0.673065 0.499302 0.899399
C2    C     C_R   0.502686 0.768955 0.497868 -0.069108
C3    C     C_R   0.430156 0.185119 0.472997 -0.233445
C4    C     C_R   0.569995 0.814902 0.526772 -0.234379
C5    C     C_R   0.430102 0.092279 0.471428 0.065881
C6    C     C_R   0.570129 0.907746 0.528234 0.066538
C7    C     C_R   0.499004 0.046465 0.500406 0.051888
C8    C     C_R   0.501229 0.953557 0.499251 0.052045
C9    C     C_R   0.565916 0.093680 0.530489 0.104390
C10   C     C_R   0.434295 0.906339 0.469196 0.103652
C11   C     C_R   0.363801 0.044096 0.441249 -0.008054
C12   C     C_R   0.499032 0.326937 0.500674 0.897793
C13   C     C_R   0.636491 0.955935 0.558336 -0.010909
C14   C     C_R   0.366510 0.951381 0.440419 -0.239659
C15   C     C_R   0.633755 0.048646 0.559198 -0.240052
C16   C     C_R   0.434329 0.498756 0.676463 0.870063
C17   C     C_R   0.565654 0.501368 0.323573 0.873989
C18   C     C_R   0.161056 0.481822 0.582637 0.463072
C19   C     C_R   0.838893 0.518743 0.417447 0.460842
C20   C     C_R   0.239115 0.512374 0.416905 -0.065521
C21   C     C_R   0.760968 0.486688 0.582939 -0.063926
C22   C     C_R   0.140424 0.507664 0.413635 -0.093158
C23   C     C_R   0.491751 0.379785 0.033900 -0.108043
C24   C     C_R   0.859583 0.492160 0.586323 -0.102068
C25   C     C_R   0.050464 0.501244 0.499529 0.006104
C26   C     C_R   0.949544 0.499641 0.500502 0.002140
C27   C     C_R   0.061200 0.494574 0.584695 -0.135072
C28   C     C_R   0.938783 0.506320 0.415371 -0.123219
C29   C     C_R   0.128320 0.507353 0.327708 0.389941
C30   C     C_R   0.871608 0.491677 0.672289 0.451311
C31   C     C_R   0.028652 0.503669 0.330003 -0.166922
C32   C     C_R   0.971210 0.496594 0.670068 -0.158001
C33   C     C_R   0.391680 0.483215 0.779337 -0.078607
C34   C     C_R   0.504577 0.620940 0.967978 -0.088352
C35   C     C_R   0.608106 0.517221 0.220797 -0.082031
C36   C     C_R   0.338211 0.361627 0.895856 -0.186085
C37   C     C_R   0.658471 0.639747 0.105610 -0.186580
C38   C     C_R   0.336188 0.402968 0.816172 -0.098081
C39   C     C_R   0.662157 0.598117 0.184439 -0.098363
C40   C     C_R   0.434201 0.531120 0.832293 -0.091267
C41   C     C_R   0.565619 0.469065 0.168015 -0.070090
C42   C     C_R   0.434745 0.490078 0.916357 0.052521
C43   C     C_R   0.562464 0.510692 0.085224 0.098859
C44   C     C_R   0.395590 0.400484 0.939827 0.154024
C45   C     C_R   0.425357 0.346280 0.997513 -0.178466
C46   C     C_R   0.600669 0.600650 0.062146 0.159357
C47   C     C_R   0.483948 0.528508 0.970859 0.124922
C48   C     C_R   0.512738 0.472204 0.031086 0.144670
C49   C     C_1   0.511988 0.384990 0.210998 0.228804
C50   C     C_1   0.491528 0.613560 0.788318 0.213266
C51   C     C_1   0.292451 0.087655 0.410692 0.180511
C52   C     C_1   0.707942 0.912396 0.588775 0.181300
C53   C     C_R   0.570433 0.654760 0.004721 -0.140290
C54   C     C_R   0.564484 0.185794 0.531120 -0.224244
C55   C     C_R   0.435644 0.814215 0.468675 -0.221881
C56   C     C_R   0.497394 0.231055 0.501993 -0.068481
H1    H     H_    0.404848 0.275487 0.007478 0.150557
H2    H     H_    0.690963 0.707114 0.085421 0.159749
H3    H     H_    0.527253 0.331386 0.062232 0.157188
H4    H     H_    0.469188 0.668983 0.939025 0.153063
H5    H     H_    0.615630 0.222304 0.554518 0.167905
H6    H     H_    0.384466 0.777696 0.445323 0.168467
H7    H     H_    0.379327 0.222248 0.450326 0.175299
H8    H     H_    0.620802 0.777780 0.549474 0.176047
H9    H     H_    0.315499 0.914155 0.417381 0.162898
H10   H     H_    0.684781 0.085874 0.582218 0.163427
H11   H     H_    0.234463 0.299001 0.618415 0.359386
H12   H     H_    0.590578 0.725622 0.994846 0.147417
H13   H     H_    0.765494 0.701409 0.381360 0.359521
H14   H     H_    0.250390 0.361721 0.220138 0.360075
H15   H     H_    0.624860 0.408956 0.809259 0.353463
H16   H     H_    0.307739 0.522476 0.352453 0.233386
H17   H     H_    0.692430 0.475313 0.647210 0.208226
H18   H     H_    0.021470 0.497222 0.263920 0.241833
H19   H     H_    0.978167 0.502398 0.736311 0.242070
H20   H     H_    0.693996 0.636176 0.224188 0.232438
H21   H     H_    0.304482 0.364972 0.776296 0.232732
H22   H     H_    0.304916 0.294533 0.916310 0.158072
N1    N     N_R   0.249980 0.499930 0.499960 -0.165048
N2    N     N_R   0.750020 0.500070 0.500040 -0.161927
N3    N     N_1   0.469608 0.318183 0.246504 -0.184236
N4    N     N_1   0.537076 0.678992 0.752141 -0.172131
N5    N     N_1   0.235394 0.122545 0.386225 -0.178231
N6    N     N_1   0.765088 0.877528 0.613141 -0.162363
O1    O     O_R   0.419720 0.632140 0.499980 -0.627974
O2    O     O_2   0.065890 0.366651 0.734144 -0.292277
O3    O     O_3   0.258800 0.347328 0.647240 -0.560834
O4    O     O_2   0.933999 0.633488 0.265623 -0.293311
O5    O     O_2   0.822605 0.515135 0.251492 -0.275761
O6    O     O_3   0.741099 0.653045 0.352623 -0.559897
O7    O     O_2   0.201034 0.503852 0.136592 -0.270134
O8    O     O_2   0.305600 0.584867 0.201959 -0.299483
O9    O     O_3   0.299536 0.411589 0.214416 -0.575918
O10   O     O_2   0.798761 0.490029 0.863437 -0.246660
O11   O     O_2   0.698924 0.565626 0.789435 -0.357522
O12   O     O_R   0.580280 0.367860 0.500020 -0.629016
O13   O     O_3   0.696015 0.391068 0.795699 -0.556983
O14   O     O_R   0.580270 0.632160 0.499970 -0.581206
O15   O     O_R   0.419730 0.367840 0.500030 -0.582233
O16   O     O_R   0.373870 0.499980 0.632250 -0.515838
O17   O     O_R   0.626130 0.500020 0.367750 -0.518043
O18   O     O_R   0.534420 0.500000 0.632240 -0.641934
O19   O     O_R   0.465580 0.500000 0.367760 -0.633652
O20   O     O_2   0.177041 0.485028 0.748684 -0.273968
S1    S     S_3+6 0.164426 0.420766 0.681422 0.029746
S2    S     S_3+6 0.835393 0.579531 0.318561 0.030072
S3    S     S_3+6 0.235109 0.504610 0.216100 0.001446
S4    S     S_3+6 0.764612 0.486901 0.784091 0.007065
Zn1   Zn    Zn3+2 0.392800 0.499980 0.500010 1.028399
Zn2   Zn    Zn3+2 0.607200 0.500020 0.499990 1.023699

loop_
_geom_bond_atom_site_label_1
_geom_bond_atom_site_label_2
_ccdc_geom_bond_type
C23   C45   A    
C22   C29   A    
C2    C4    A    
C32   H19   S    
C7    C8    A    
C23   H3    S    
H15   O13   S    
C45   H1    S    
O14   Zn2   S    
C24   C26   A    
C5    C11   A    
O1    Zn1   S    
C2    C55   A    
C8    C10   A    
C11   C14   A    
O15   Zn1   S    
C55   H6    S    
C21   H17   S    
C46   C53   A    
C1    C2    S    
C49   N3    T    
C52   N6    T    
C53   H12   S    
C17   O17   A    
C12   O15   A    
O13   S4    S    
C18   N1    A    
C22   C25   A    
O5    S2    D    
C43   C48   A    
C37   H2    S    
C36   C44   A    
C40   C42   A    
O16   Zn1   S    
C34   H4    S    
C41   C43   A    
C42   C44   A    
C41   C49   S    
O20   S1    D    
C1    O1    A    
C54   C56   A    
C33   C40   A    
N1    Zn1   S    
O7    S3    D    
H14   O9    S    
O6    S2    S    
C4    C6    A    
C10   C14   A    
C5    C7    A    
C16   O16   A    
C31   H18   S    
C6    C8    A    
O17   Zn2   S    
C15   H10   S    
O12   Zn2   S    
C35   C39   A    
C19   C28   A    
C16   C33   S    
C13   C52   S    
O4    S2    D    
C3    C56   A    
O8    S3    D    
C47   C48   A    
O3    S1    S    
O10   S4    D    
C39   H20   S    
C10   C55   A    
C12   C56   S    
C16   O18   A    
C38   H21   S    
C20   C22   A    
C13   C15   A    
O18   Zn2   S    
O2    S1    D    
H13   O6    S    
C51   N5    T    
C44   C45   A    
C50   N4    T    
C7    C9    A    
C23   C48   A    
C20   N1    A    
C30   S4    S    
C27   C32   A    
C9    C15   A    
C26   C28   A    
C28   C31   A    
C12   O12   A    
C18   C27   A    
C3    C5    A    
C1    O14   A    
C9    C54   A    
C54   H5    S    
C3    H7    S    
C25   C27   A    
C4    H8    S    
H11   O3    S    
C33   C38   A    
O19   Zn1   S    
C36   C38   A    
C25   C26   A    
C18   S1    S    
C29   C31   A    
C36   H22   S    
O9    S3    S    
C6    C13   A    
C30   C32   A    
C40   C50   S    
C21   N2    A    
C14   H9    S    
C42   C47   A    
C17   O19   A    
C19   N2    A    
C35   C41   A    
C43   C46   A    
C24   C30   A    
C11   C51   S    
O11   S4    D    
C19   S2    S    
C34   C53   A    
C37   C39   A    
C21   C24   A    
N2    Zn2   S    
C20   H16   S    
C34   C47   A    
C17   C35   S    
C37   C46   A    
C29   S3    S    
