data_mof_unit_23874.cif
_audit_creation_date              2012-12-10T17:08:48-0500
_audit_creation_method            fapswitch 2.2
_symmetry_space_group_name_H-M    P1
_symmetry_Int_Tables_number       1
_space_group_crystal_system       triclinic
_cell_length_a                    27.596427
_cell_length_b                    11.077891
_cell_length_c                    10.001683
_cell_angle_alpha                 112.413979
_cell_angle_beta                  98.355148
_cell_angle_gamma                 92.261817
_cell_volume                      2781.53722905

loop_
_atom_site_label
_atom_site_type_symbol
_atom_type_description
_atom_site_fract_x
_atom_site_fract_y
_atom_site_fract_z
_atom_type_partial_charge
C1    C     C_R   0.496655 0.253951 0.438704 0.803972
C2    C     C_R   0.503470 0.746056 0.561366 0.817018
C3    C     C_R   0.103237 0.485582 0.549462 -0.047207
C4    C     C_R   0.896907 0.513561 0.452237 -0.047448
C5    C     C_R   0.123387 0.367511 0.476418 -0.076065
C6    C     C_R   0.876803 0.631814 0.524869 -0.075436
C7    C     C_R   0.091349 0.254047 0.386035 -0.027629
C8    C     C_R   0.908861 0.745257 0.615166 -0.027690
C9    C     C_R   0.135112 0.594321 0.653198 -0.072482
C10   C     C_R   0.865001 0.404751 0.348754 -0.071550
C11   C     C_R   0.354717 0.502470 0.502441 -0.188768
C12   C     C_R   0.645278 0.497881 0.497767 -0.199400
C13   C     C_R   0.968336 0.389122 0.397052 0.041182
C14   C     C_R   0.031789 0.609836 0.604893 0.041146
C15   C     C_R   0.980295 0.618825 0.575156 0.041736
C16   C     C_R   0.019852 0.380213 0.426586 0.041771
C17   C     C_R   0.948661 0.506963 0.475378 0.072819
C18   C     C_R   0.051477 0.492072 0.526425 0.072990
C19   C     C_R   0.935862 0.285016 0.287768 -0.227017
C20   C     C_R   0.064228 0.713816 0.714482 -0.226896
C21   C     C_R   0.885191 0.291349 0.263717 -0.035705
C22   C     C_R   0.114898 0.707531 0.738552 -0.035737
C23   C     C_R   0.407683 0.499353 0.500360 0.917882
C24   C     C_R   0.592311 0.500787 0.499667 0.918847
C25   C     C_R   0.040720 0.261288 0.363010 -0.234000
C26   C     C_R   0.959473 0.737870 0.638433 -0.234208
C27   C     C_2   0.490863 0.112573 0.401121 0.208234
C28   C     C_2   0.509864 0.887402 0.599340 0.204157
C29   C     C_2   0.510405 0.063940 0.500226 -0.120861
C30   C     C_2   0.490094 0.937037 0.501437 -0.113126
C31   C     C_2   0.502571 0.516763 0.083164 0.335105
C32   C     C_2   0.493013 0.497232 0.921702 0.336301
C33   C     C_R   0.175241 0.369283 0.497175 0.568411
C34   C     C_R   0.824967 0.630299 0.503716 0.567476
C35   C     C_R   0.186291 0.584002 0.666803 0.559693
C36   C     C_R   0.813819 0.415185 0.335106 0.558538
C37   C     C_R   0.286230 0.619882 0.595148 -0.066767
C38   C     C_R   0.713963 0.380040 0.407441 -0.066923
C39   C     C_R   0.337039 0.616630 0.594023 0.269734
C40   C     C_R   0.663120 0.383151 0.408050 0.255666
C41   C     C_R   0.321059 0.398448 0.400732 0.273541
C42   C     C_R   0.678783 0.602828 0.598378 0.271212
C43   C     C_R   0.270451 0.402674 0.404305 -0.073588
C44   C     C_R   0.729431 0.598560 0.595689 -0.071563
C45   C     C_R   0.253744 0.501798 0.523204 0.090006
C46   C     C_R   0.746334 0.498446 0.478134 0.086581
Cu1   Cu    Cu3+1 0.508480 0.521810 0.644910 1.108771
Cu2   Cu    Cu3+1 0.491520 0.478190 0.355090 1.101832
H1    H     H_    0.948855 0.196937 0.216457 0.139430
H2    H     H_    0.051190 0.801715 0.786028 0.139481
H3    H     H_    0.018385 0.170336 0.295907 0.138357
H4    H     H_    0.981845 0.828806 0.705391 0.138489
N1    N     N_R   0.204274 0.486916 0.558983 -0.425761
N2    N     N_R   0.795863 0.512784 0.442486 -0.425943
N3    N     N_2   0.478780 0.445430 0.137360 -0.276752
N4    N     N_2   0.521220 0.554570 0.862640 -0.260115
O1    O     O_R   0.504520 0.332330 0.577400 -0.602789
O2    O     O_R   0.495480 0.667670 0.422600 -0.561903
O3    O     O_R   0.490210 0.295500 0.332650 -0.536343
O4    O     O_R   0.509790 0.704500 0.667350 -0.503865
O5    O     O_R   0.437420 0.518430 0.622370 -0.491517
O6    O     O_R   0.562580 0.481570 0.377630 -0.527657
O7    O     O_R   0.423110 0.481600 0.377610 -0.561890
O8    O     O_R   0.576890 0.518400 0.622390 -0.588605
O9    O     O_2   0.196278 0.256186 0.466291 -0.492994
O10   O     O_2   0.804038 0.743464 0.533373 -0.493934
O11   O     O_2   0.783408 0.338167 0.210500 -0.497908
O12   O     O_2   0.216654 0.660452 0.791772 -0.494288
Cl1   Cl    Cl    0.341948 0.261508 0.268405 -0.479141
Cl2   Cl    Cl    0.657643 0.741025 0.728144 -0.474864
Cl3   Cl    Cl    0.544044 0.983081 0.775947 -0.442122
Cl4   Cl    Cl    0.457898 0.015084 0.223401 -0.418991
Cl5   Cl    Cl    0.435835 0.410945 0.819087 -0.532619
Cl6   Cl    Cl    0.541656 0.658301 0.204255 -0.531194
C47   C     C_1   0.571379 0.579615 0.920062 0.547462
N5    N     N_1   0.613155 0.600109 0.966748 -0.182342
C48   C     C_1   0.465019 0.313464 0.048300 0.551179
N6    N     N_1   0.453668 0.203547 0.975019 -0.126882
C49   C     C_1   0.236617 0.320769 0.272277 0.432650
N7    N     N_1   0.209710 0.255584 0.166396 -0.211046
C50   C     C_1   0.763050 0.681423 0.727736 0.432036
N8    N     N_1   0.789781 0.747372 0.833650 -0.210626
C51   C     C_1   0.108697 0.128765 0.308778 0.343296
N9    N     N_1   0.122378 0.028358 0.246735 -0.220970
C52   C     C_1   0.891536 0.870625 0.692223 0.343058
N10   N     N_1   0.877870 0.971092 0.754117 -0.221042
Cl7   Cl    Cl    0.622206 0.239035 0.305809 -0.519898
Cl8   Cl    Cl    0.378094 0.760150 0.697908 -0.504152
C53   C     C_1   0.732534 0.252698 0.365996 0.446404
N11   N     N_1   0.747190 0.150689 0.333530 -0.182230
C54   C     C_1   0.267810 0.747457 0.638272 0.441336
N12   N     N_1   0.253280 0.849668 0.672075 -0.182512
C55   C     C_1   0.855152 0.175752 0.155707 0.353770
N13   N     N_1   0.831247 0.083067 0.069391 -0.167706
C56   C     C_1   0.144923 0.823039 0.846789 0.353515
N14   N     N_1   0.168820 0.915651 0.933275 -0.167197
C57   C     C_1   0.444059 0.868818 0.405304 0.421612
N15   N     N_1   0.407396 0.813846 0.330128 -0.152334
C58   C     C_1   0.555988 0.133615 0.597994 0.403016
N16   N     N_1   0.592291 0.189839 0.674433 -0.179510

loop_
_geom_bond_atom_site_label_1
_geom_bond_atom_site_label_2
_ccdc_geom_bond_type
Cu2   N3    S    
C7    C51   S    
C55   N13   T    
C35   N1    A    
C8    C26   A    
C22   C56   S    
C14   C18   A    
C56   N14   T    
C34   O10   S    
C57   N15   T    
C36   O11   S    
C33   O9    S    
C48   N6    T    
C38   C53   S    
C51   N9    T    
C40   Cl7   S    
C19   C21   A    
C26   H4    S    
C1    O3    A    
N3    C48   S    
C2    O4    A    
C9    C22   A    
C27   C29   D    
C43   C49   S    
C42   Cl2   S    
C3    C18   A    
C8    C52   S    
C12   C42   A    
Cu1   O4    S    
Cu1   Cu2   S    
C5    C33   A    
C20   H2    S    
C54   N12   T    
C1    C27   S    
C23   O7    A    
C45   N1    S    
C24   O8    A    
N4    C47   S    
C41   C43   A    
C42   C44   A    
C39   Cl8   S    
C44   C46   A    
C50   N8    T    
C10   C21   A    
C33   N1    A    
C29   C58   S    
C14   C20   A    
C4    C6    A    
C44   C50   S    
Cu1   O8    S    
C5    C7    A    
C37   C54   S    
C15   C26   A    
C6    C8    A    
C3    C5    A    
C52   N10   T    
C6    C34   A    
C12   C40   A    
C47   N5    T    
C25   H3    S    
C29   C30   S    
C3    C9    A    
C1    O1    A    
Cu1   O1    S    
C19   H1    S    
Cu2   O6    S    
C58   N16   T    
C30   C57   S    
C46   N2    S    
C11   C39   A    
C43   C45   A    
C4    C17   A    
C20   C22   A    
C34   N2    A    
C28   Cl3   S    
C37   C45   A    
C32   Cl5   S    
Cu2   O3    S    
C41   Cl1   S    
C16   C25   A    
C15   C17   A    
C24   O6    A    
C31   C32   S    
Cu2   O7    S    
Cu1   O5    S    
C10   C36   A    
C2    O2    A    
Cu2   O2    S    
C12   C24   S    
C7    C25   A    
C13   C17   A    
C28   C30   D    
C37   C39   A    
C38   C40   A    
C21   C55   S    
C35   O12   S    
C11   C23   S    
C11   C41   A    
C31   Cl6   S    
C38   C46   A    
C36   N2    A    
C49   N7    T    
C23   O5    A    
C16   C18   A    
C13   C16   A    
C9    C35   A    
C13   C19   A    
C14   C15   A    
C2    C28   S    
C31   N3    D    
C53   N11   T    
C4    C10   A    
C32   N4    D    
C27   Cl4   S    
Cu1   N4    S    
