data_mof_unit_63994.cif
_audit_creation_date              2013-03-05T16:33:06-0500
_audit_creation_method            fapswitch 2.2
_symmetry_space_group_name_H-M    P1
_symmetry_Int_Tables_number       1
_space_group_crystal_system       triclinic
_cell_length_a                    35.656174
_cell_length_b                    35.660899
_cell_length_c                    47.353642
_cell_angle_alpha                 90.002856
_cell_angle_beta                  89.999255
_cell_angle_gamma                 89.979159
_cell_volume                      60211.6301082

loop_
_atom_site_label
_atom_site_type_symbol
_atom_site_description
_atom_site_fract_x
_atom_site_fract_y
_atom_site_fract_z
_atom_type_partial_charge
O1    O     O_R   0.554380 0.968480 0.000000 -0.511553
O2    O     O_R   0.031520 0.554380 0.000000 -0.511995
O3    O     O_R   0.445620 0.031520 0.000000 -0.511552
O4    O     O_R   0.968480 0.445620 0.000000 -0.511808
O5    O     O_R   0.554380 0.031520 0.000000 -0.559020
O6    O     O_R   0.031520 0.445620 0.000000 -0.561686
O7    O     O_R   0.445620 0.968480 0.000000 -0.559021
O8    O     O_R   0.968480 0.554380 0.000000 -0.561416
O9    O     O_R   0.054380 0.468480 0.500000 -0.544276
O10   O     O_R   0.531520 0.054380 0.500000 -0.533715
O11   O     O_R   0.945620 0.531520 0.500000 -0.544281
O12   O     O_R   0.468480 0.945620 0.500000 -0.533709
O13   O     O_R   0.054380 0.531520 0.500000 -0.543791
O14   O     O_R   0.531520 0.945620 0.500000 -0.561244
O15   O     O_R   0.945620 0.468480 0.500000 -0.543791
O16   O     O_R   0.468480 0.054380 0.500000 -0.561242
C1    C     C_R   0.572431 0.999909 0.000997 0.858637
C2    C     C_R   0.000065 0.572444 0.000919 0.875554
C3    C     C_R   0.427568 0.000091 0.000997 0.858636
C4    C     C_R   0.999931 0.427557 0.000917 0.875708
C5    C     C_R   0.072309 0.500007 0.499980 0.917837
C6    C     C_R   0.499947 0.072292 0.500207 0.895986
C7    C     C_R   0.927691 0.499993 0.499980 0.917830
C8    C     C_R   0.500053 0.927708 0.500207 0.895983
O17   O     O_R   0.499980 0.968480 0.958940 -0.553302
O18   O     O_R   0.031520 0.499980 0.958940 -0.554849
O19   O     O_R   0.500020 0.031520 0.958940 -0.553293
O20   O     O_R   0.968480 0.500020 0.958940 -0.554748
O21   O     O_R   0.499980 0.031520 0.041060 -0.534491
O22   O     O_R   0.031520 0.500020 0.041060 -0.539788
O23   O     O_R   0.500020 0.968480 0.041060 -0.534486
O24   O     O_R   0.968480 0.499980 0.041060 -0.540129
O25   O     O_R   0.999980 0.468480 0.458940 -0.545042
O26   O     O_R   0.531520 0.999980 0.458940 -0.534662
O27   O     O_R   0.000020 0.531520 0.458940 -0.545035
O28   O     O_R   0.468480 0.000020 0.458940 -0.534664
O29   O     O_R   0.999980 0.531520 0.541060 -0.544915
O30   O     O_R   0.531520 0.000020 0.541060 -0.541521
O31   O     O_R   0.000020 0.468480 0.541060 -0.544905
O32   O     O_R   0.468480 0.999980 0.541060 -0.541529
C9    C     C_R   0.500000 0.999999 0.945431 0.870310
C10   C     C_R   0.000000 0.500004 0.945436 0.871406
C11   C     C_R   0.500000 0.000001 0.054545 0.888629
C12   C     C_R   0.999999 0.499999 0.054539 0.918137
C13   C     C_R   0.000000 0.499999 0.445429 0.925685
C14   C     C_R   0.500000 0.999999 0.445301 0.867025
C15   C     C_R   0.000000 0.500001 0.554516 0.932197
C16   C     C_R   0.500000 1.000000 0.554525 0.937430
Cu1   Cu    Cu3+1 0.500000 0.962680 0.000000 1.222182
Cu2   Cu    Cu3+1 0.037320 0.500000 0.000000 1.218237
Cu3   Cu    Cu3+1 0.500000 0.037320 0.000000 1.222183
Cu4   Cu    Cu3+1 0.962680 0.500000 0.000000 1.218441
Cu5   Cu    Cu3+1 0.000000 0.462680 0.500000 1.217875
Cu6   Cu    Cu3+1 0.537320 1.000000 0.500000 1.218654
Cu7   Cu    Cu3+1 0.000000 0.537320 0.500000 1.217874
Cu8   Cu    Cu3+1 0.462680 1.000000 0.500000 1.218654
C17   C     C_R   0.532880 0.994165 0.690146 0.619956
C18   C     C_R   0.004694 0.533072 0.690125 0.619878
C19   C     C_R   0.467118 0.005829 0.690147 0.619955
C20   C     C_R   0.995344 0.466958 0.690127 0.619877
C21   C     C_R   0.528925 0.983311 0.309225 0.621320
C22   C     C_R   0.968908 0.512202 0.309921 0.622170
C23   C     C_R   0.471078 0.016697 0.309228 0.621320
C24   C     C_R   0.031103 0.487797 0.309919 0.622170
C25   C     C_R   0.031570 0.489035 0.190012 0.619950
C26   C     C_R   0.467458 0.007495 0.190102 0.621759
C27   C     C_R   0.968443 0.510976 0.190014 0.619911
C28   C     C_R   0.532545 0.992521 0.190101 0.621754
C29   C     C_R   0.002085 0.466701 0.809720 0.619622
C30   C     C_R   0.466625 0.998912 0.809709 0.619621
C31   C     C_R   0.997964 0.533351 0.809719 0.619649
C32   C     C_R   0.533374 0.001076 0.809709 0.619624
N1    N     N_R   0.499999 0.999997 0.675938 -0.458405
N2    N     N_R   0.000017 0.500014 0.675917 -0.458392
N3    N     N_R   0.500001 0.000003 0.323461 -0.455274
N4    N     N_R   0.000005 0.499998 0.324012 -0.462038
N5    N     N_R   0.000006 0.500005 0.175905 -0.461900
N6    N     N_R   0.500002 0.000007 0.175870 -0.455890
N7    N     N_R   0.000022 0.500027 0.823924 -0.456974
N8    N     N_R   0.499999 0.999994 0.823913 -0.456932
C33   C     C_R   0.465798 0.003363 0.719947 -0.149319
C34   C     C_R   0.997799 0.465730 0.719935 -0.149382
C35   C     C_R   0.534201 0.996628 0.719946 -0.149318
C36   C     C_R   0.002246 0.534306 0.719934 -0.149386
C37   C     C_R   0.468620 0.013993 0.279553 -0.146476
C38   C     C_R   0.032435 0.488520 0.280022 -0.151712
C39   C     C_R   0.531383 0.986018 0.279551 -0.146475
C40   C     C_R   0.967577 0.511483 0.280024 -0.151714
C41   C     C_R   0.967666 0.511752 0.219928 -0.152019
C42   C     C_R   0.532505 0.988870 0.219776 -0.146095
C43   C     C_R   0.032347 0.488257 0.219925 -0.152038
C44   C     C_R   0.467499 0.011144 0.219777 -0.146094
C45   C     C_R   0.000494 0.534382 0.779910 -0.147701
C46   C     C_R   0.534332 0.998457 0.779909 -0.147571
C47   C     C_R   0.999557 0.465664 0.779911 -0.147701
C48   C     C_R   0.465666 0.001531 0.779909 -0.147573
C49   C     C_R   0.499999 0.999995 0.734945 -0.072925
C50   C     C_R   0.000024 0.500019 0.734936 -0.072911
C51   C     C_R   0.500002 0.000006 0.264598 -0.074273
C52   C     C_R   0.000006 0.500002 0.264991 -0.071272
C53   C     C_R   0.000006 0.500004 0.234952 -0.070963
C54   C     C_R   0.500002 0.000007 0.234730 -0.074272
C55   C     C_R   0.000025 0.500022 0.764909 -0.073737
C56   C     C_R   0.499999 0.999994 0.764911 -0.073787
C57   C     C_R   0.431560 0.005188 0.735099 0.245145
C58   C     C_R   0.997070 0.431461 0.735093 0.245234
C59   C     C_R   0.568438 0.994802 0.735097 0.245143
C60   C     C_R   0.002980 0.568577 0.735091 0.245231
C61   C     C_R   0.436386 0.025828 0.264485 0.245941
C62   C     C_R   0.064827 0.477449 0.264807 0.248245
C63   C     C_R   0.563618 0.974185 0.264481 0.245942
C64   C     C_R   0.935185 0.522556 0.264811 0.248242
C65   C     C_R   0.935453 0.523324 0.235172 0.247054
C66   C     C_R   0.564167 0.975580 0.234844 0.246666
C67   C     C_R   0.064560 0.476685 0.235168 0.247049
C68   C     C_R   0.435837 0.024434 0.234848 0.246668
C69   C     C_R   0.002441 0.568602 0.764751 0.247663
C70   C     C_R   0.568481 0.995396 0.764756 0.247593
C71   C     C_R   0.997613 0.431442 0.764753 0.247653
C72   C     C_R   0.431517 0.004592 0.764758 0.247594
O33   O     O_2   0.563934 0.985204 0.675350 -0.434685
O34   O     O_2   0.012498 0.564416 0.675318 -0.435009
O35   O     O_2   0.436064 0.014791 0.675353 -0.434685
O36   O     O_2   0.987534 0.435612 0.675322 -0.435009
O37   O     O_2   0.554635 0.963445 0.323816 -0.442614
O38   O     O_2   0.939724 0.525521 0.325009 -0.431974
O39   O     O_2   0.445367 0.036561 0.323822 -0.442614
O40   O     O_2   0.060287 0.474476 0.325004 -0.431975
O41   O     O_2   0.061974 0.478857 0.174908 -0.432096
O42   O     O_2   0.435112 0.010479 0.175505 -0.442841
O43   O     O_2   0.938038 0.521155 0.174912 -0.432158
O44   O     O_2   0.564891 0.989537 0.175503 -0.442837
O45   O     O_2   0.007384 0.434839 0.824534 -0.444606
O46   O     O_2   0.434618 0.994486 0.824512 -0.444738
O47   O     O_2   0.992665 0.565216 0.824532 -0.444613
O48   O     O_2   0.565380 0.005502 0.824511 -0.444734
C73   C     C_R   0.000224 0.072066 0.999995 0.900885
C74   C     C_R   0.927930 0.000261 0.999997 0.900871
C75   C     C_R   0.999794 0.927935 0.999992 0.900896
C76   C     C_R   0.072070 0.999739 0.999997 0.900898
C77   C     C_R   0.500029 0.572101 0.500008 0.901175
C78   C     C_R   0.427908 0.499980 0.499998 0.901018
C79   C     C_R   0.499970 0.427899 0.500007 0.901175
C80   C     C_R   0.572092 0.500020 0.499998 0.901015
C81   C     C_R   0.520055 0.972707 0.869376 -0.123700
C82   C     C_R   0.026811 0.520714 0.869400 -0.124008
C83   C     C_R   0.479944 0.027284 0.869378 -0.123705
C84   C     C_R   0.973206 0.479340 0.869389 -0.123966
C85   C     C_R   0.514847 0.969564 0.130454 -0.118310
C86   C     C_R   0.022754 0.525078 0.130553 -0.118923
C87   C     C_R   0.485155 0.030446 0.130455 -0.118307
C88   C     C_R   0.977249 0.474929 0.130555 -0.118956
C89   C     C_R   0.022588 0.525208 0.369306 -0.120379
C90   C     C_R   0.468416 0.988016 0.368884 -0.121934
C91   C     C_R   0.977422 0.474786 0.369304 -0.120377
C92   C     C_R   0.531586 0.011986 0.368885 -0.121940
C93   C     C_R   0.024844 0.476994 0.630443 -0.116364
C94   C     C_R   0.476024 0.976113 0.630473 -0.115884
C95   C     C_R   0.975177 0.523025 0.630446 -0.116366
C96   C     C_R   0.523974 0.023884 0.630475 -0.115882
H1    H     H_    0.535824 0.951761 0.857818 0.209560
H2    H     H_    0.047371 0.536968 0.857842 0.209288
H3    H     H_    0.464174 0.048229 0.857820 0.209558
H4    H     H_    0.952650 0.463090 0.857822 0.209286
H5    H     H_    0.526460 0.946002 0.141943 0.212843
H6    H     H_    0.039821 0.544850 0.142227 0.199563
H7    H     H_    0.473542 0.054010 0.141944 0.212844
H8    H     H_    0.960182 0.455161 0.142232 0.199573
H9    H     H_    0.040317 0.544368 0.357613 0.200192
H10   H     H_    0.443882 0.978509 0.357444 0.209997
H11   H     H_    0.959693 0.455627 0.357609 0.200191
H12   H     H_    0.556120 0.021494 0.357445 0.210000
H13   H     H_    0.044580 0.459766 0.642030 0.207155
H14   H     H_    0.458029 0.957081 0.642055 0.207138
H15   H     H_    0.955444 0.540255 0.642036 0.207158
H16   H     H_    0.541969 0.042916 0.642059 0.207139
C97   C     C_R   0.521334 0.973102 0.898946 0.255486
C98   C     C_R   0.026403 0.521952 0.898977 0.255676
C99   C     C_R   0.478665 0.026891 0.898948 0.255490
C100  C     C_R   0.973602 0.478090 0.898965 0.255634
C101  C     C_R   0.516618 0.969940 0.100966 0.268978
C102  C     C_R   0.022719 0.525792 0.100927 0.268746
C103  C     C_R   0.483383 0.030068 0.100967 0.268978
C104  C     C_R   0.977275 0.474215 0.100929 0.269027
C105  C     C_R   0.023341 0.525240 0.398929 0.277152
C106  C     C_R   0.467399 0.989321 0.398357 0.279751
C107  C     C_R   0.976666 0.474755 0.398927 0.277151
C108  C     C_R   0.532603 0.010678 0.398358 0.279770
C109  C     C_R   0.025209 0.476596 0.600850 0.271205
C110  C     C_R   0.475594 0.975774 0.600887 0.272327
C111  C     C_R   0.974802 0.523414 0.600853 0.271201
C112  C     C_R   0.524404 0.024224 0.600889 0.272322
C113  C     C_R   0.499999 0.999997 0.914124 -0.266677
C114  C     C_R   0.000001 0.500016 0.914139 -0.264977
C115  C     C_R   0.500001 0.000003 0.085785 -0.253272
C116  C     C_R   0.999998 0.500001 0.085786 -0.244584
C117  C     C_R   0.000003 0.499998 0.414123 -0.239518
C118  C     C_R   0.500001 0.999999 0.413795 -0.265609
C119  C     C_R   0.000003 0.500003 0.585714 -0.239360
C120  C     C_R   0.499999 1.000000 0.585736 -0.238802
C121  C     C_R   0.499999 0.999995 0.854439 0.191942
C122  C     C_R   0.000013 0.500028 0.854454 0.192378
C123  C     C_R   0.500001 0.000006 0.145380 0.186177
C124  C     C_R   0.000004 0.500003 0.145424 0.198598
C125  C     C_R   0.000005 0.499997 0.354465 0.199611
C126  C     C_R   0.500001 0.000002 0.353954 0.185103
C127  C     C_R   0.000013 0.500011 0.645381 0.187842
C128  C     C_R   0.499999 0.999998 0.645407 0.187702
C129  C     C_R   0.827656 0.025591 0.019517 -0.004348
C130  C     C_R   0.974777 0.827566 0.019342 -0.004300
C131  C     C_R   0.172345 0.974418 0.019519 -0.004366
C132  C     C_R   0.025356 0.172391 0.019403 -0.004293
C133  C     C_R   0.826537 0.981395 0.979664 -0.005226
C134  C     C_R   0.981009 0.173376 0.979640 -0.005406
C135  C     C_R   0.173463 0.018593 0.979657 -0.005244
C136  C     C_R   0.019151 0.826669 0.979593 -0.005408
C137  C     C_R   0.326888 0.521832 0.519938 -0.004493
C138  C     C_R   0.478237 0.327018 0.520422 -0.004658
C139  C     C_R   0.673112 0.478167 0.519935 -0.004492
C140  C     C_R   0.521759 0.672984 0.520427 -0.004659
C141  C     C_R   0.327002 0.477768 0.480006 -0.004793
C142  C     C_R   0.478111 0.673199 0.480243 -0.004684
C143  C     C_R   0.672999 0.522230 0.480005 -0.004793
C144  C     C_R   0.521886 0.326799 0.480237 -0.004684
C145  C     C_R   0.867201 0.024032 0.019675 0.282400
C146  C     C_R   0.976202 0.867110 0.019568 0.281792
C147  C     C_R   0.132800 0.975979 0.019679 0.282449
C148  C     C_R   0.023890 0.132849 0.019600 0.281806
C149  C     C_R   0.866094 0.980127 0.979979 0.282723
C150  C     C_R   0.979845 0.133824 0.979989 0.282717
C151  C     C_R   0.133907 0.019863 0.979973 0.282748
C152  C     C_R   0.020270 0.866221 0.979969 0.282728
C153  C     C_R   0.366483 0.521807 0.519839 0.282455
C154  C     C_R   0.478209 0.366609 0.520120 0.282662
C155  C     C_R   0.633517 0.478193 0.519836 0.282454
C156  C     C_R   0.521787 0.633393 0.520124 0.282660
C157  C     C_R   0.366595 0.477937 0.480128 0.282140
C158  C     C_R   0.478303 0.633602 0.480175 0.282086
C159  C     C_R   0.633405 0.522061 0.480127 0.282141
C160  C     C_R   0.521694 0.366396 0.480171 0.282085
C161  C     C_R   0.886439 0.001352 0.999959 -0.248291
C162  C     C_R   0.998878 0.886452 0.999924 -0.248387
C163  C     C_R   0.113562 0.998648 0.999958 -0.248148
C164  C     C_R   0.001198 0.113549 0.999940 -0.248387
C165  C     C_R   0.386363 0.499908 0.499989 -0.248886
C166  C     C_R   0.499923 0.386338 0.500068 -0.248622
C167  C     C_R   0.613637 0.500091 0.499988 -0.248893
C168  C     C_R   0.500074 0.613662 0.500072 -0.248623
O49   O     O_R   0.000020 0.054200 0.976220 -0.538381
O50   O     O_R   0.945800 0.000020 0.976220 -0.538179
O51   O     O_R   0.999980 0.945800 0.976220 -0.538419
O52   O     O_R   0.054200 0.999980 0.976220 -0.538147
O53   O     O_R   0.000020 0.945800 0.023780 -0.536019
O54   O     O_R   0.945800 0.999980 0.023780 -0.536053
O55   O     O_R   0.999980 0.054200 0.023780 -0.536027
O56   O     O_R   0.054200 0.000020 0.023780 -0.536024
O57   O     O_R   0.500020 0.554200 0.476220 -0.536481
O58   O     O_R   0.445800 0.500020 0.476220 -0.537125
O59   O     O_R   0.499980 0.445800 0.476220 -0.536488
O60   O     O_R   0.554200 0.499980 0.476220 -0.537127
O61   O     O_R   0.500020 0.445800 0.523780 -0.537366
O62   O     O_R   0.445800 0.499980 0.523780 -0.537178
O63   O     O_R   0.499980 0.554200 0.523780 -0.537373
O64   O     O_R   0.554200 0.500020 0.523780 -0.537176
C169  C     C_R   0.807527 0.004167 0.999492 0.004111
C170  C     C_R   0.996342 0.807551 0.999325 0.003909
C171  C     C_R   0.192474 0.995832 0.999489 0.004106
C172  C     C_R   0.003819 0.192451 0.999396 0.003922
C173  C     C_R   0.307336 0.499768 0.499963 0.004015
C174  C     C_R   0.500143 0.307294 0.500439 0.003969
C175  C     C_R   0.692664 0.500231 0.499962 0.004015
C176  C     C_R   0.499854 0.692706 0.500445 0.003969
C177  C     C_1   0.767032 0.004919 0.999643 -0.008200
C178  C     C_1   0.995640 0.767065 0.999359 -0.008635
C179  C     C_1   0.232968 0.995079 0.999639 -0.008202
C180  C     C_1   0.004539 0.232939 0.999472 -0.008626
C181  C     C_1   0.266791 0.499736 0.499929 -0.007952
C182  C     C_1   0.500259 0.266740 0.500640 -0.008453
C183  C     C_1   0.733209 0.500264 0.499927 -0.007952
C184  C     C_1   0.499739 0.733260 0.500645 -0.008453
C185  C     C_1   0.733324 0.004843 0.999891 0.006682
C186  C     C_1   0.995680 0.733361 0.999535 0.006725
C187  C     C_1   0.266677 0.995156 0.999888 0.006673
C188  C     C_1   0.004489 0.266643 0.999670 0.006697
C189  C     C_1   0.233053 0.499749 0.499906 0.006427
C190  C     C_1   0.500302 0.232998 0.500767 0.003639
C191  C     C_1   0.766947 0.500251 0.499904 0.006427
C192  C     C_1   0.499697 0.767002 0.500772 0.003639
C193  C     C_R   0.672803 0.033653 0.011326 -0.182697
C194  C     C_R   0.966205 0.673002 0.010297 -0.184049
C195  C     C_R   0.327197 0.966346 0.011322 -0.182707
C196  C     C_R   0.033771 0.327053 0.010603 -0.183977
C197  C     C_R   0.674735 0.971444 0.991358 -0.183093
C198  C     C_R   0.971035 0.325344 0.991574 -0.183858
C199  C     C_R   0.325266 0.028555 0.991357 -0.183104
C200  C     C_R   0.029150 0.674608 0.991648 -0.183906
C201  C     C_R   0.173403 0.526813 0.515362 -0.179038
C202  C     C_R   0.474716 0.173280 0.517550 -0.182055
C203  C     C_R   0.826597 0.473188 0.515360 -0.179035
C204  C     C_R   0.525284 0.826722 0.517551 -0.182054
C205  C     C_R   0.173278 0.473014 0.484373 -0.175413
C206  C     C_R   0.474565 0.826744 0.483728 -0.179378
C207  C     C_R   0.826722 0.526984 0.484372 -0.175412
C208  C     C_R   0.525434 0.173254 0.483725 -0.179379
H17   H     H_    0.687577 0.057998 0.019348 0.181470
H18   H     H_    0.941613 0.687892 0.017775 0.181533
H19   H     H_    0.312423 0.942002 0.019342 0.181471
H20   H     H_    0.058298 0.312202 0.018241 0.181612
H21   H     H_    0.690926 0.947762 0.983731 0.176461
H22   H     H_    0.947110 0.309248 0.984287 0.176383
H23   H     H_    0.309075 0.052237 0.983731 0.176464
H24   H     H_    0.053176 0.690658 0.984496 0.176302
H25   H     H_    0.188943 0.547272 0.527606 0.178511
H26   H     H_    0.455428 0.188797 0.530852 0.179406
H27   H     H_    0.811056 0.452730 0.527604 0.178511
H28   H     H_    0.544572 0.811208 0.530853 0.179406
H29   H     H_    0.188722 0.452546 0.472058 0.179619
H30   H     H_    0.455413 0.811281 0.470288 0.178501
H31   H     H_    0.811280 0.547451 0.472057 0.179619
H32   H     H_    0.544585 0.188714 0.470283 0.178502
C209  C     C_R   0.633587 0.031961 0.013125 0.299528
C210  C     C_R   0.967660 0.633795 0.012148 0.301683
C211  C     C_R   0.366412 0.968040 0.013122 0.299526
C212  C     C_R   0.032250 0.366264 0.012413 0.301807
C213  C     C_R   0.635632 0.968826 0.992777 0.314279
C214  C     C_R   0.968577 0.364450 0.993025 0.316378
C215  C     C_R   0.364368 0.031174 0.992778 0.314283
C216  C     C_R   0.031539 0.635503 0.993152 0.316938
C217  C     C_R   0.134100 0.526997 0.515960 0.308567
C218  C     C_R   0.474386 0.133948 0.517907 0.307100
C219  C     C_R   0.865899 0.473005 0.515960 0.308564
C220  C     C_R   0.525614 0.866055 0.517908 0.307105
C221  C     C_R   0.133973 0.473095 0.483747 0.305933
C222  C     C_R   0.474955 0.866024 0.482871 0.288233
C223  C     C_R   0.866028 0.526903 0.483746 0.305931
C224  C     C_R   0.525044 0.133973 0.482869 0.288233
C225  C     C_R   0.614202 0.999881 0.002722 -0.251145
C226  C     C_R   0.000066 0.614231 0.002497 -0.239929
C227  C     C_R   0.385798 0.000119 0.002722 -0.251144
C228  C     C_R   0.999930 0.385774 0.002539 -0.239934
C229  C     C_R   0.113848 0.500030 0.499913 -0.231888
C230  C     C_R   0.499808 0.113810 0.500409 -0.243586
C231  C     C_R   0.886152 0.499970 0.499913 -0.231901
C232  C     C_R   0.500192 0.886190 0.500410 -0.243578
C233  C     C_R   0.693159 0.003667 0.000377 0.013751
C234  C     C_R   0.996687 0.693199 1.000000 0.013619
C235  C     C_R   0.306841 0.996332 0.000374 0.013751
C236  C     C_R   0.003428 0.306805 0.000132 0.013535
C237  C     C_R   0.192820 0.499831 0.499899 0.012445
C238  C     C_R   0.500284 0.192756 0.500801 0.013536
C239  C     C_R   0.807180 0.500169 0.499898 0.012445
C240  C     C_R   0.499715 0.807245 0.500805 0.013537
Cu9   Cu    Cu3+1 0.000000 1.000000 0.971840 1.240850
Cu10  Cu    Cu3+1 0.000000 1.000000 0.028160 1.243845
Cu11  Cu    Cu3+1 0.500000 0.500000 0.471840 1.241913
Cu12  Cu    Cu3+1 0.500000 0.500000 0.528160 1.239314
N9    N     N_R   0.396206 0.006631 0.720688 0.195563
O65   O     O_R   0.383602 0.976951 0.707834 -0.237857
O66   O     O_R   0.374660 0.035872 0.723329 -0.224343
N10   N     N_R   0.996792 0.396079 0.720688 0.195528
O67   O     O_R   0.026911 0.384381 0.707912 -0.237846
O68   O     O_R   0.968228 0.373651 0.723273 -0.224599
N11   N     N_R   0.603793 0.993360 0.720685 0.195563
O69   O     O_R   0.616396 0.023040 0.707834 -0.237850
O70   O     O_R   0.625338 0.964118 0.723322 -0.224342
N12   N     N_R   0.003260 0.603957 0.720685 0.195529
O71   O     O_R   0.973139 0.615658 0.707915 -0.237830
O72   O     O_R   0.031828 0.626381 0.723266 -0.224620
N13   N     N_R   0.403255 0.038095 0.278992 0.194945
O73   O     O_R   0.383212 0.014068 0.293123 -0.242412
O74   O     O_R   0.390844 0.072086 0.275466 -0.224146
N14   N     N_R   0.098818 0.467353 0.279094 0.193939
O75   O     O_R   0.111083 0.433024 0.277962 -0.227559
O76   O     O_R   0.119981 0.493393 0.289874 -0.237947
N15   N     N_R   0.596749 0.961918 0.278986 0.194946
O77   O     O_R   0.616790 0.985943 0.293121 -0.242415
O78   O     O_R   0.609161 0.927927 0.275457 -0.224139
N16   N     N_R   0.901195 0.532651 0.279100 0.193941
O79   O     O_R   0.888931 0.566980 0.277973 -0.227557
O80   O     O_R   0.880030 0.506610 0.289876 -0.237948
N17   N     N_R   0.902288 0.535862 0.220908 0.194943
O81   O     O_R   0.872292 0.515110 0.221014 -0.230666
O82   O     O_R   0.900432 0.570076 0.211473 -0.228183
N18   N     N_R   0.596783 0.962002 0.220338 0.194556
O83   O     O_R   0.595111 0.930749 0.206212 -0.243106
O84   O     O_R   0.629008 0.978451 0.223861 -0.225966
N19   N     N_R   0.097725 0.464150 0.220902 0.194942
O85   O     O_R   0.127721 0.484902 0.221011 -0.230661
O86   O     O_R   0.099583 0.429937 0.211462 -0.228161
N20   N     N_R   0.403222 0.038015 0.220343 0.194555
O87   O     O_R   0.404895 0.069268 0.206220 -0.243113
O88   O     O_R   0.370996 0.021567 0.223866 -0.225967
N21   N     N_R   0.004915 0.603898 0.779155 0.194255
O89   O     O_R   0.035862 0.613210 0.791910 -0.243159
O90   O     O_R   0.978171 0.628490 0.776582 -0.229119
N22   N     N_R   0.603683 0.991804 0.779166 0.194251
O91   O     O_R   0.611974 0.960626 0.792005 -0.243052
O92   O     O_R   0.629138 0.017697 0.776535 -0.229098
N23   N     N_R   0.995143 0.396148 0.779158 0.194260
O93   O     O_R   0.964196 0.386833 0.791912 -0.243109
O94   O     O_R   0.021891 0.371560 0.776585 -0.229130
N24   N     N_R   0.396315 0.008183 0.779169 0.194251
O95   O     O_R   0.388023 0.039361 0.792010 -0.243057
O96   O     O_R   0.370861 0.982289 0.776536 -0.229108
N25   N     N_R   0.545960 0.947338 0.913081 0.163077
O97   O     O_R   0.550457 0.913539 0.903285 -0.268576
O98   O     O_R   0.568747 0.959507 0.932472 -0.316305
N26   N     N_R   0.051646 0.547083 0.913139 0.162867
O99   O     O_R   0.085280 0.552433 0.903266 -0.268577
O100  O     O_R   0.039069 0.569397 0.932702 -0.321614
N27   N     N_R   0.454039 0.052657 0.913083 0.163078
O101  O     O_R   0.449541 0.086455 0.903289 -0.268580
O102  O     O_R   0.431252 0.040489 0.932474 -0.316312
N28   N     N_R   0.948351 0.452958 0.913114 0.162916
O103  O     O_R   0.914719 0.447616 0.903233 -0.268430
O104  O     O_R   0.960918 0.430633 0.932671 -0.321392
N29   N     N_R   0.536975 0.940524 0.087000 0.163485
O105  O     O_R   0.534040 0.906115 0.095873 -0.267881
O106  O     O_R   0.563519 0.948885 0.069215 -0.297963
N30   N     N_R   0.044816 0.553751 0.086708 0.154418
O107  O     O_R   0.076773 0.564328 0.097320 -0.268424
O108  O     O_R   0.030673 0.572750 0.065808 -0.331083
N31   N     N_R   0.463026 0.059481 0.087002 0.163483
O109  O     O_R   0.465961 0.093892 0.095875 -0.267885
O110  O     O_R   0.436482 0.051119 0.069218 -0.297967
N32   N     N_R   0.955157 0.446267 0.086714 0.154378
O111  O     O_R   0.923203 0.435700 0.097337 -0.268680
O112  O     O_R   0.969274 0.427272 0.065800 -0.330763
N33   N     N_R   0.048906 0.550151 0.413061 0.155239
O113  O     O_R   0.055538 0.583258 0.402640 -0.282723
O114  O     O_R   0.069986 0.537884 0.433498 -0.321513
N34   N     N_R   0.432702 0.980004 0.411914 0.173377
O115  O     O_R   0.416783 0.948051 0.406263 -0.239835
O116  O     O_R   0.412314 0.006818 0.422489 -0.272554
N35   N     N_R   0.951100 0.449844 0.413056 0.155239
O117  O     O_R   0.944469 0.416737 0.402633 -0.282724
O118  O     O_R   0.930018 0.462110 0.433493 -0.321505
N36   N     N_R   0.567301 0.019991 0.411915 0.173385
O119  O     O_R   0.583224 0.051942 0.406265 -0.239831
O120  O     O_R   0.587685 0.993176 0.422489 -0.272560
N37   N     N_R   0.052071 0.453043 0.586708 0.151847
O121  O     O_R   0.061284 0.420812 0.597577 -0.270567
O122  O     O_R   0.071382 0.465806 0.565483 -0.331492
N38   N     N_R   0.450931 0.949920 0.586780 0.152383
O123  O     O_R   0.418189 0.942416 0.597526 -0.269367
O124  O     O_R   0.463012 0.929678 0.565818 -0.324841
N39   N     N_R   0.947936 0.546964 0.586714 0.151848
O125  O     O_R   0.938724 0.579196 0.597584 -0.270570
O126  O     O_R   0.928623 0.534196 0.565492 -0.331477
N40   N     N_R   0.549067 0.050080 0.586784 0.152384
O127  O     O_R   0.581808 0.057584 0.597531 -0.269363
O128  O     O_R   0.536986 0.070321 0.565824 -0.324829
C241  C     C_3   0.806933 0.051110 0.040046 -0.340508
C242  C     C_3   0.796351 0.088233 0.025770 -0.367187
C243  C     C_3   0.774191 0.113424 0.045766 -0.725661
H33   H     H_    0.747704 0.099434 0.052214 0.259849
H34   H     H_    0.791080 0.119950 0.064855 0.272029
H35   H     H_    0.767126 0.140107 0.034912 0.259393
H36   H     H_    0.822273 0.103125 0.019097 0.260007
H37   H     H_    0.779046 0.082814 0.006684 0.234473
H38   H     H_    0.781388 0.036836 0.048125 0.207897
H39   H     H_    0.824046 0.057185 0.059051 0.252123
C244  C     C_3   0.949242 0.806723 0.039779 -0.341883
C245  C     C_3   0.912184 0.796133 0.025414 -0.367411
C246  C     C_3   0.886996 0.773829 0.045309 -0.721796
H40   H     H_    0.901043 0.747343 0.051706 0.259526
H41   H     H_    0.880372 0.790611 0.064435 0.272602
H42   H     H_    0.860358 0.766764 0.034395 0.260106
H43   H     H_    0.897237 0.822051 0.018787 0.260418
H44   H     H_    0.917705 0.778930 0.006291 0.234473
H45   H     H_    0.963556 0.781176 0.047826 0.207158
H46   H     H_    0.943069 0.823752 0.058811 0.252032
C247  C     C_3   0.193068 0.948910 0.040054 -0.340483
C248  C     C_3   0.203648 0.911780 0.025785 -0.367206
C249  C     C_3   0.225809 0.886598 0.045786 -0.725689
H47   H     H_    0.252297 0.900590 0.052230 0.259857
H48   H     H_    0.208920 0.880083 0.064877 0.272035
H49   H     H_    0.232872 0.859909 0.034938 0.259379
H50   H     H_    0.177727 0.896885 0.019116 0.259989
H51   H     H_    0.220954 0.917188 0.006698 0.234467
H52   H     H_    0.218613 0.963187 0.048128 0.207894
H53   H     H_    0.175956 0.942845 0.059061 0.252120
C250  C     C_3   0.050900 0.193186 0.039862 -0.341875
C251  C     C_3   0.087971 0.203766 0.025511 -0.367401
C252  C     C_3   0.113175 0.226015 0.045431 -0.721817
H54   H     H_    0.099150 0.252504 0.051853 0.259536
H55   H     H_    0.119780 0.209196 0.064540 0.272591
H56   H     H_    0.139821 0.233075 0.034526 0.260066
H57   H     H_    0.102897 0.177845 0.018860 0.260379
H58   H     H_    0.082470 0.221005 0.006404 0.234502
H59   H     H_    0.036604 0.218734 0.047928 0.207132
H60   H     H_    0.057055 0.176127 0.058880 0.252040
C253  C     C_3   0.804525 0.957227 0.958979 -0.340433
C254  C     C_3   0.792189 0.920470 0.972980 -0.372050
C255  C     C_3   0.768609 0.896774 0.952879 -0.716206
H61   H     H_    0.742824 0.912216 0.946679 0.261802
H62   H     H_    0.784993 0.889679 0.933654 0.272826
H63   H     H_    0.760268 0.870329 0.963539 0.260458
H64   H     H_    0.817369 0.904155 0.979393 0.260641
H65   H     H_    0.775337 0.926473 0.992199 0.234270
H66   H     H_    0.779670 0.972839 0.951068 0.208341
H67   H     H_    0.821265 0.950646 0.939881 0.252772
C256  C     C_3   0.956699 0.195315 0.958995 -0.339580
C257  C     C_3   0.919997 0.207669 0.973092 -0.372623
C258  C     C_3   0.896176 0.231207 0.953039 -0.717717
H68   H     H_    0.911561 0.256987 0.946777 0.262042
H69   H     H_    0.889007 0.214796 0.933845 0.272810
H70   H     H_    0.869769 0.239551 0.963765 0.259868
H71   H     H_    0.903737 0.182501 0.979577 0.260222
H72   H     H_    0.926082 0.224554 0.992277 0.233759
H73   H     H_    0.972243 0.220151 0.950998 0.208524
H74   H     H_    0.950029 0.178524 0.939944 0.252670
C259  C     C_3   0.195475 0.042752 0.958967 -0.340412
C260  C     C_3   0.207810 0.079516 0.972959 -0.372067
C261  C     C_3   0.231391 0.103202 0.952854 -0.716241
H75   H     H_    0.257176 0.087757 0.946657 0.261811
H76   H     H_    0.215007 0.110287 0.933626 0.272828
H77   H     H_    0.239731 0.129652 0.963508 0.260440
H78   H     H_    0.182630 0.095834 0.979369 0.260622
H79   H     H_    0.224662 0.073523 0.992180 0.234262
H80   H     H_    0.220330 0.027136 0.951058 0.208340
H81   H     H_    0.178735 0.049323 0.939867 0.252769
C262  C     C_3   0.043503 0.804776 0.958947 -0.339515
C263  C     C_3   0.080194 0.792428 0.973061 -0.372518
C264  C     C_3   0.104054 0.768923 0.953009 -0.717992
H82   H     H_    0.088693 0.743138 0.946724 0.262057
H83   H     H_    0.111233 0.785356 0.933829 0.272798
H84   H     H_    0.130455 0.760588 0.963747 0.259822
H85   H     H_    0.096432 0.817598 0.979574 0.260157
H86   H     H_    0.074095 0.775519 0.992231 0.233743
H87   H     H_    0.027987 0.779941 0.950917 0.208572
H88   H     H_    0.050190 0.821597 0.939916 0.252655
C265  C     C_3   0.305459 0.546531 0.540622 -0.344689
C266  C     C_3   0.294030 0.583591 0.526631 -0.366232
C267  C     C_3   0.271192 0.607940 0.546787 -0.722446
H89   H     H_    0.245046 0.593207 0.553082 0.258883
H90   H     H_    0.287863 0.614617 0.565955 0.270778
H91   H     H_    0.263491 0.634589 0.536133 0.260854
H92   H     H_    0.319599 0.599211 0.520136 0.259801
H93   H     H_    0.276928 0.578019 0.507466 0.236029
H94   H     H_    0.280229 0.531538 0.548521 0.205293
H95   H     H_    0.322348 0.552694 0.559723 0.251582
C268  C     C_3   0.453762 0.305765 0.541348 -0.344007
C269  C     C_3   0.416583 0.294183 0.527614 -0.366920
C270  C     C_3   0.392467 0.271492 0.548009 -0.722516
H96   H     H_    0.407306 0.245412 0.554339 0.259108
H97   H     H_    0.385954 0.288309 0.567138 0.270982
H98   H     H_    0.365722 0.263685 0.537539 0.260382
H99   H     H_    0.400855 0.319679 0.521084 0.259718
H100  H     H_    0.422002 0.276930 0.508499 0.235345
H101  H     H_    0.468868 0.280623 0.549299 0.205209
H102  H     H_    0.447750 0.322817 0.560396 0.251580
C271  C     C_3   0.694540 0.453469 0.540617 -0.344689
C272  C     C_3   0.705970 0.416409 0.526624 -0.366234
C273  C     C_3   0.728808 0.392060 0.546778 -0.722441
H103  H     H_    0.754953 0.406793 0.553075 0.258884
H104  H     H_    0.712136 0.385384 0.565946 0.270777
H105  H     H_    0.736508 0.365411 0.536123 0.260854
H106  H     H_    0.680400 0.400789 0.520128 0.259800
H107  H     H_    0.723072 0.421980 0.507459 0.236030
H108  H     H_    0.719769 0.468463 0.548517 0.205294
H109  H     H_    0.677651 0.447306 0.559718 0.251583
C274  C     C_3   0.546234 0.694238 0.541354 -0.344007
C275  C     C_3   0.583413 0.705818 0.527620 -0.366916
C276  C     C_3   0.607529 0.728512 0.548014 -0.722516
H110  H     H_    0.592690 0.754592 0.554345 0.259108
H111  H     H_    0.614041 0.711696 0.567144 0.270983
H112  H     H_    0.634275 0.736316 0.537545 0.260383
H113  H     H_    0.599142 0.680322 0.521090 0.259721
H114  H     H_    0.577996 0.723070 0.508505 0.235343
H115  H     H_    0.531128 0.719382 0.549305 0.205209
H116  H     H_    0.552244 0.677188 0.560401 0.251578
C277  C     C_3   0.305698 0.453002 0.459305 -0.341258
C278  C     C_3   0.294341 0.415931 0.473301 -0.370640
C279  C     C_3   0.271614 0.391518 0.453130 -0.715840
H117  H     H_    0.245438 0.406190 0.446800 0.260136
H118  H     H_    0.288342 0.384864 0.433983 0.272237
H119  H     H_    0.263969 0.364860 0.463786 0.259836
H120  H     H_    0.319940 0.400371 0.479835 0.259995
H121  H     H_    0.277182 0.421484 0.492443 0.235694
H122  H     H_    0.280446 0.467934 0.451361 0.207042
H123  H     H_    0.322652 0.446851 0.440231 0.252712
C280  C     C_3   0.453578 0.694667 0.459475 -0.343990
C281  C     C_3   0.416287 0.705829 0.473248 -0.366562
C282  C     C_3   0.392095 0.728712 0.453016 -0.721153
H124  H     H_    0.406794 0.754969 0.446945 0.259034
H125  H     H_    0.385742 0.712164 0.433726 0.271236
H126  H     H_    0.365271 0.736210 0.463508 0.260417
H127  H     H_    0.400695 0.680148 0.479520 0.259955
H128  H     H_    0.421544 0.722806 0.492526 0.235938
H129  H     H_    0.468559 0.720017 0.451790 0.204692
H130  H     H_    0.447734 0.677890 0.440261 0.251895
C283  C     C_3   0.694302 0.546995 0.459306 -0.341260
C284  C     C_3   0.705659 0.584067 0.473303 -0.370640
C285  C     C_3   0.728387 0.608480 0.453134 -0.715837
H131  H     H_    0.754563 0.593807 0.446803 0.260136
H132  H     H_    0.711660 0.615133 0.433987 0.272237
H133  H     H_    0.736031 0.635138 0.463792 0.259835
H134  H     H_    0.680060 0.599628 0.479838 0.259995
H135  H     H_    0.722817 0.578515 0.492445 0.235694
H136  H     H_    0.719555 0.532063 0.451361 0.207042
H137  H     H_    0.677350 0.553146 0.440233 0.252713
C286  C     C_3   0.546419 0.305329 0.459469 -0.343992
C287  C     C_3   0.583710 0.294170 0.473240 -0.366557
C288  C     C_3   0.607902 0.271284 0.453007 -0.721159
H138  H     H_    0.593203 0.245027 0.446936 0.259035
H139  H     H_    0.614254 0.287831 0.433717 0.271236
H140  H     H_    0.634726 0.263789 0.463497 0.260417
H141  H     H_    0.599302 0.319852 0.479511 0.259958
H142  H     H_    0.578454 0.277195 0.492518 0.235938
H143  H     H_    0.531438 0.279978 0.451783 0.204692
H144  H     H_    0.552261 0.322104 0.440254 0.251894
N41   N     N_R   0.887960 0.046808 0.039124 0.123425
O129  O     O_R   0.906211 0.076014 0.030096 -0.335884
O130  O     O_R   0.891605 0.036281 0.065284 -0.300897
N42   N     N_R   0.953280 0.887758 0.038997 0.123652
O131  O     O_R   0.924079 0.906004 0.029924 -0.334970
O132  O     O_R   0.963691 0.891350 0.065188 -0.301222
N43   N     N_R   0.112043 0.953218 0.039138 0.123441
O133  O     O_R   0.093798 0.923999 0.030123 -0.335880
O134  O     O_R   0.108398 0.963766 0.065293 -0.300860
N44   N     N_R   0.046786 0.112157 0.039019 0.123651
O135  O     O_R   0.075974 0.093897 0.029938 -0.335086
O136  O     O_R   0.036363 0.108546 0.065205 -0.301247
N45   N     N_R   0.885635 0.955974 0.960738 0.124018
O137  O     O_R   0.902614 0.926166 0.970081 -0.335342
O138  O     O_R   0.889998 0.965993 0.934528 -0.300434
N46   N     N_R   0.955684 0.114212 0.960804 0.123941
O139  O     O_R   0.925946 0.097188 0.970209 -0.335981
O140  O     O_R   0.965631 0.109847 0.934577 -0.300539
N47   N     N_R   0.114366 0.044008 0.960728 0.124029
O141  O     O_R   0.097391 0.073822 0.970065 -0.335394
O142  O     O_R   0.110001 0.033976 0.934520 -0.300395
N48   N     N_R   0.044421 0.885879 0.960803 0.123922
O143  O     O_R   0.074134 0.902929 0.970228 -0.336123
O144  O     O_R   0.034487 0.890252 0.934574 -0.300580
N49   N     N_R   0.386583 0.545380 0.539146 0.123622
O145  O     O_R   0.404212 0.574844 0.529889 -0.336861
O146  O     O_R   0.390671 0.535153 0.565336 -0.304790
N50   N     N_R   0.454794 0.386853 0.539462 0.123806
O147  O     O_R   0.425223 0.404401 0.530284 -0.336321
O148  O     O_R   0.465254 0.391137 0.565583 -0.304943
N51   N     N_R   0.613416 0.454620 0.539142 0.123622
O149  O     O_R   0.595787 0.425156 0.529883 -0.336861
O150  O     O_R   0.609327 0.464847 0.565333 -0.304789
N52   N     N_R   0.545203 0.613151 0.539466 0.123806
O151  O     O_R   0.574774 0.595603 0.530287 -0.336319
O152  O     O_R   0.534741 0.608868 0.565586 -0.304942
N53   N     N_R   0.386813 0.454458 0.460815 0.123778
O153  O     O_R   0.404504 0.425008 0.470051 -0.336142
O154  O     O_R   0.390896 0.464737 0.434637 -0.301242
N54   N     N_R   0.455005 0.613557 0.460651 0.123959
O155  O     O_R   0.425400 0.595915 0.469641 -0.335387
O156  O     O_R   0.465574 0.609591 0.434527 -0.302156
N55   N     N_R   0.613188 0.545540 0.460817 0.123778
O157  O     O_R   0.595498 0.574991 0.470054 -0.336142
O158  O     O_R   0.609105 0.535260 0.434638 -0.301243
N56   N     N_R   0.544992 0.386440 0.460647 0.123958
O159  O     O_R   0.574597 0.404081 0.469636 -0.335386
O160  O     O_R   0.534422 0.390404 0.434522 -0.302155
N57   N     N_R   0.614267 0.062022 0.027146 0.150730
O161  O     O_R   0.625253 0.096487 0.023546 -0.303894
O162  O     O_R   0.590599 0.054592 0.047309 -0.309954
N58   N     N_R   0.936920 0.614678 0.025440 0.150285
O163  O     O_R   0.902644 0.625448 0.020589 -0.304148
O164  O     O_R   0.943310 0.591573 0.046168 -0.293960
N59   N     N_R   0.385731 0.937979 0.027143 0.150730
O165  O     O_R   0.374746 0.903514 0.023541 -0.303900
O166  O     O_R   0.409397 0.945410 0.047307 -0.309951
N60   N     N_R   0.062819 0.385444 0.025882 0.150346
O167  O     O_R   0.097153 0.374621 0.021343 -0.304190
O168  O     O_R   0.056161 0.408700 0.046467 -0.294210
N61   N     N_R   0.618669 0.934014 0.984667 0.163057
O169  O     O_R   0.603225 0.913150 0.003974 -0.253658
O170  O     O_R   0.628154 0.918593 0.960808 -0.263157
N62   N     N_R   0.933630 0.381544 0.985387 0.161970
O171  O     O_R   0.913122 0.396793 0.005002 -0.255805
O172  O     O_R   0.917828 0.372461 0.961581 -0.263477
N63   N     N_R   0.381332 0.065987 0.984671 0.163060
O173  O     O_R   0.396775 0.086850 0.003980 -0.253667
O174  O     O_R   0.371847 0.081408 0.960814 -0.263165
N64   N     N_R   0.066547 0.618345 0.985772 0.161568
O175  O     O_R   0.086907 0.603310 0.005569 -0.255733
O176  O     O_R   0.082489 0.627075 0.961947 -0.263019
N65   N     N_R   0.115496 0.553980 0.533659 0.149569
O177  O     O_R   0.129033 0.587713 0.536068 -0.299506
O178  O     O_R   0.089127 0.543383 0.550884 -0.309532
N66   N     N_R   0.448631 0.115217 0.536554 0.149500
O179  O     O_R   0.415594 0.129491 0.541150 -0.303569
O180  O     O_R   0.459892 0.087469 0.552239 -0.312169
N67   N     N_R   0.884502 0.446024 0.533658 0.149568
O181  O     O_R   0.870965 0.412290 0.536066 -0.299506
O182  O     O_R   0.910870 0.456622 0.550884 -0.309518
N68   N     N_R   0.551371 0.884789 0.536552 0.149501
O183  O     O_R   0.584409 0.870516 0.541147 -0.303566
O184  O     O_R   0.540110 0.912538 0.552239 -0.312173
N69   N     N_R   0.115207 0.446631 0.465722 0.150323
O185  O     O_R   0.128524 0.412859 0.462887 -0.297264
O186  O     O_R   0.088964 0.457847 0.448597 -0.310321
N70   N     N_R   0.451255 0.884819 0.462837 0.154197
O187  O     O_R   0.418049 0.871644 0.457233 -0.279876
O188  O     O_R   0.465131 0.910837 0.446674 -0.335938
N71   N     N_R   0.884795 0.553365 0.465723 0.150324
O189  O     O_R   0.871478 0.587137 0.462888 -0.297264
O190  O     O_R   0.911038 0.542148 0.448597 -0.310316
N72   N     N_R   0.548743 0.115175 0.462834 0.154196
O191  O     O_R   0.581949 0.128349 0.457228 -0.279872
O192  O     O_R   0.534866 0.089155 0.446671 -0.335959

loop_
_geom_bond_atom_site_label_1
_geom_bond_atom_site_label_2
_geom_bond_distance
_ccdc_geom_bond_type
C277  H123  1.108673 S    
N72   O192  1.300709 A    
C279  H118  1.110853 S    
C74   O50   1.293747 A    
N9    O65   1.301146 A    
C140  C274  1.522635 S    
N27   O102  1.300699 A    
O25   C13   1.293368 A    
C271  C272  1.533409 S    
C241  H38   1.111489 S    
C255  H61   1.111045 S    
C178  C186  1.201920 T    
C207  C223  1.401791 A    
N61   O169  1.301165 A    
C158  C168  1.412648 A    
C64   N16   1.433842 S    
C8    C232  1.480590 S    
C171  C179  1.444118 S    
C97   C113  1.419316 A    
C204  C220  1.402780 A    
C155  N51   1.434058 S    
N30   O107  1.301341 A    
C38   C62   1.417264 A    
N22   O92   1.300995 A    
C4    C228  1.492001 S    
C14   C118  1.491905 S    
C222  N70   1.436306 S    
C193  H17   1.084329 S    
C254  H65   1.111336 S    
C77   C168  1.482096 S    
O49   Cu9   1.943904 S    
N14   O75   1.300905 A    
C90   H10   1.083475 S    
O32   C16   1.292157 A    
C78   O58   1.294165 A    
C267  H91   1.110355 S    
C155  C167  1.412570 A    
C244  C245  1.533515 S    
C75   C162  1.479690 S    
N44   O135  1.300606 A    
O24   Cu4   1.955311 S    
C9    C113  1.482519 S    
C94   H14   1.083269 S    
O19   Cu3   1.955305 S    
C245  C246  1.525574 S    
Cu1   Cu3   2.661733 S    
C263  H85   1.111936 S    
C96   H16   1.083268 S    
C203  C239  1.393111 A    
C17   C35   1.414647 A    
O3    C3    1.293525 A    
O51   Cu9   1.943928 S    
C82   H2    1.083189 S    
C144  C286  1.522505 S    
C224  N72   1.436302 S    
C19   N1    1.367604 A    
C251  H58   1.111307 S    
C189  C237  1.434560 S    
C44   C54   1.414890 A    
C32   C46   1.414646 A    
O15   C7    1.292677 A    
C196  C236  1.392210 A    
N33   O114  1.301034 A    
C134  C256  1.522733 S    
C46   C56   1.416336 A    
C130  C170  1.413757 A    
C137  C153  1.411810 A    
C23   C37   1.411246 A    
N60   O168  1.301554 A    
N43   O134  1.300906 A    
C202  H26   1.084269 S    
N42   O132  1.300904 A    
N42   O131  1.300612 A    
C60   N12   1.434350 S    
C1    C225  1.491602 S    
C217  N65   1.437967 S    
C207  H31   1.084312 S    
C41   C65   1.417824 A    
C202  C218  1.402782 A    
C258  H69   1.110850 S    
C274  C275  1.533401 S    
C143  C283  1.522604 S    
C86   C102  1.403117 A    
O17   C9    1.293307 A    
C22   O38   1.348505 S    
N20   O88   1.301034 A    
C47   C71   1.417528 A    
O50   Cu9   1.943660 S    
C22   C40   1.416749 A    
C247  H52   1.111489 S    
O27   Cu7   1.955305 S    
C151  N47   1.434225 S    
C141  C157  1.411772 A    
N49   O145  1.300681 A    
C81   H1    1.083195 S    
N39   O126  1.300650 A    
C143  C175  1.414163 A    
C278  C279  1.525595 S    
C249  H48   1.110856 S    
C98   C114  1.419218 A    
C25   O41   1.348416 S    
N8    C121  1.445489 S    
C148  C164  1.412590 A    
C108  C118  1.425154 A    
C262  H87   1.111476 S    
C107  N35   1.438197 S    
O52   Cu9   1.943662 S    
O13   C5    1.292677 A    
C282  H124  1.111045 S    
C218  C230  1.422473 A    
C148  N44   1.433931 S    
C44   C68   1.417014 A    
C136  C170  1.414104 A    
C73   O55   1.294075 A    
C283  H137  1.108670 S    
C157  N53   1.434057 S    
N34   O115  1.301022 A    
C192  C240  1.435103 S    
N1    C128  1.445749 S    
N26   O100  1.300801 A    
O26   Cu6   1.955315 S    
O7    C3    1.298747 A    
C266  H92   1.111952 S    
C48   C56   1.416335 A    
N17   O81   1.300834 A    
C282  H126  1.110352 S    
C68   N20   1.434706 S    
N51   O149  1.300677 A    
O27   C13   1.293359 A    
N5    C124  1.443424 S    
C98   N26   1.436493 S    
C271  H109  1.108677 S    
C249  H47   1.111054 S    
C133  C149  1.411232 A    
C257  C258  1.525573 S    
O31   C15   1.292066 A    
N56   O159  1.300678 A    
C99   C113  1.419322 A    
C222  C232  1.420245 A    
C28   C42   1.411242 A    
C25   C43   1.417053 A    
N62   O171  1.301065 A    
C245  H44   1.111299 S    
C41   C53   1.418133 A    
C202  C238  1.393875 A    
C137  C173  1.414246 A    
C260  H79   1.111334 S    
C259  H81   1.108638 S    
N54   O156  1.300906 A    
C281  C282  1.525603 S    
C91   C125  1.396804 A    
C32   O48   1.348617 S    
N18   O84   1.301032 A    
C138  C154  1.411917 A    
N52   O152  1.300929 A    
N15   O77   1.301188 A    
C95   C127  1.399071 A    
C31   C45   1.414925 A    
C103  N31   1.436634 S    
C149  N45   1.434221 S    
N21   O89   1.301144 A    
N36   O120  1.301153 A    
C185  C233  1.432940 S    
C61   N13   1.434710 S    
C269  C270  1.525601 S    
C208  C224  1.401440 A    
O18   Cu2   1.955315 S    
C177  C185  1.201985 T    
C143  C159  1.411776 A    
N25   O97   1.301320 A    
C153  C165  1.412571 A    
C248  C249  1.525578 S    
N64   O176  1.301161 A    
O6    C4    1.298450 A    
C204  H28   1.084270 S    
C87   H7    1.083178 S    
O11   C7    1.293537 A    
C139  C175  1.414247 A    
C112  C120  1.420862 A    
C131  C247  1.522703 S    
C5    C229  1.481133 S    
C150  C164  1.412340 A    
C275  H113  1.111955 S    
N67   O181  1.301367 A    
O4    C4    1.293800 A    
C83   C99   1.401055 A    
C21   O37   1.348784 S    
C285  H133  1.110350 S    
C39   C63   1.417020 A    
C132  C172  1.413724 A    
C284  C285  1.525597 S    
N10   O67   1.301145 A    
N59   O165  1.301323 A    
C243  H34   1.110858 S    
C207  C239  1.393200 A    
C266  C267  1.525596 S    
O5    Cu3   1.949905 S    
C91   C107  1.403016 A    
C105  C117  1.421628 A    
N16   O79   1.300904 A    
N57   O161  1.301319 A    
C216  C226  1.425196 A    
N55   O157  1.300659 A    
N35   O118  1.301035 A    
C256  H73   1.111478 S    
N40   O128  1.300638 A    
C288  H138  1.111044 S    
C197  C213  1.399016 A    
C156  C168  1.412966 A    
Cu5   Cu7   2.661733 S    
C93   C127  1.399070 A    
C261  H77   1.110349 S    
O9    C5    1.293537 A    
N50   O147  1.300670 A    
C45   C55   1.416419 A    
C223  C231  1.422318 A    
C193  C209  1.402183 A    
N63   O174  1.301180 A    
N33   O113  1.301355 A    
C90   C106  1.396883 A    
C208  C238  1.393279 A    
C278  H120  1.111956 S    
C206  H30   1.084292 S    
C160  N56   1.433975 S    
C193  C233  1.392312 A    
C94   C110  1.401173 A    
C108  N36   1.432939 S    
C3    C227  1.491603 S    
C146  C162  1.412535 A    
C96   C128  1.398869 A    
C13   C117  1.482439 S    
N23   O93   1.301143 A    
C86   H6    1.083216 S    
C133  C169  1.414207 A    
C221  N69   1.437798 S    
N46   O139  1.300661 A    
C82   C98   1.401343 A    
C11   C115  1.479328 S    
C142  C280  1.522512 S    
O14   C8    1.291321 A    
C138  C268  1.522640 S    
C200  C234  1.391092 A    
C42   C54   1.414892 A    
C281  H128  1.111330 S    
C21   C39   1.411243 A    
N68   O183  1.301415 A    
C69   N21   1.434336 S    
C285  H131  1.111042 S    
N46   O140  1.300927 A    
C135  C171  1.414203 A    
C57   C72   1.404606 A    
O28   C14   1.296251 A    
C242  C243  1.525579 S    
O26   C14   1.296250 A    
C141  C277  1.522606 S    
O29   C15   1.292069 A    
C179  C187  1.201982 T    
O8    Cu4   1.950307 S    
C59   C70   1.404603 A    
O30   C16   1.292159 A    
C109  C119  1.420466 A    
C42   C66   1.417012 A    
C176  C184  1.446234 S    
C264  H82   1.111048 S    
C130  C146  1.411123 A    
C15   C119  1.477363 S    
O54   Cu10  1.943666 S    
C45   C69   1.417529 A    
C43   C53   1.418137 A    
C140  C176  1.414139 A    
C199  C235  1.390990 A    
C251  C252  1.525578 S    
N29   O106  1.301593 A    
C47   C55   1.416415 A    
C287  H141  1.111949 S    
C270  H96   1.111043 S    
N2    C127  1.445972 S    
C6    C230  1.480592 S    
C24   N4    1.365208 A    
C33   C57   1.417499 A    
C194  H18   1.084366 S    
C173  C181  1.445692 S    
C84   H4    1.083192 S    
C139  C155  1.411810 A    
C83   C121  1.399379 A    
C79   O59   1.294749 A    
N6    C123  1.443827 S    
C110  N38   1.438819 S    
C59   N11   1.434373 S    
C141  C173  1.414160 A    
C26   C44   1.411246 A    
C180  C188  1.201948 T    
C181  C189  1.202947 T    
C92   H12   1.083478 S    
C106  N34   1.432940 S    
N38   O123  1.301407 A    
C183  C191  1.202947 T    
C30   C48   1.414648 A    
C194  C234  1.392230 A    
C72   N24   1.434364 S    
C252  H54   1.111057 S    
C37   C51   1.414862 A    
C154  N50   1.434092 S    
C210  C226  1.424833 A    
C71   N23   1.434339 S    
Cu2   Cu4   2.661380 S    
C268  C269  1.533400 S    
O61   Cu12  1.943907 S    
C153  N49   1.434057 S    
N55   O158  1.300915 A    
C172  C180  1.444080 S    
C131  C171  1.413650 A    
C253  H66   1.111481 S    
C188  C236  1.432882 S    
C272  H107  1.111328 S    
O6    Cu2   1.950310 S    
C144  C160  1.412082 A    
C101  N29   1.436632 S    
C74   C161  1.479910 S    
C89   C125  1.396799 A    
C169  C177  1.444122 S    
N58   O164  1.301596 A    
C288  H140  1.110350 S    
C223  N71   1.437798 S    
C29   N7    1.367494 A    
C65   N17   1.433251 S    
N48   O144  1.300931 A    
O53   Cu10  1.943907 S    
C242  H36   1.111973 S    
C92   C126  1.396850 A    
C18   N2    1.367603 A    
C30   O46   1.348618 S    
N24   O95   1.301149 A    
O21   Cu3   1.955321 S    
C276  H112  1.110349 S    
C277  H122  1.111497 S    
N70   O187  1.301337 A    
C85   C123  1.399204 A    
C76   O56   1.294003 A    
C60   C69   1.404660 A    
C106  C118  1.425154 A    
N19   O86   1.301019 A    
C57   N9    1.434371 S    
C262  C263  1.533552 S    
C156  N52   1.434096 S    
O12   C8    1.294200 A    
O1    C1    1.293525 A    
C270  H98   1.110350 S    
C79   C166  1.482096 S    
C134  C172  1.414143 A    
N36   O119  1.301023 A    
C94   C128  1.398872 A    
N30   O108  1.301025 A    
C260  C261  1.525581 S    
C197  H21   1.084695 S    
C190  C238  1.435099 S    
C215  N63   1.433548 S    
C40   C64   1.417267 A    
C38   C52   1.418084 A    
C46   C70   1.417485 A    
C23   N3    1.368158 A    
C70   N22   1.434362 S    
C175  C183  1.445692 S    
C52   C53   1.422489 A    
C270  H97   1.110853 S    
N14   O76   1.301111 A    
C255  H63   1.110348 S    
C267  H90   1.110850 S    
C273  H105  1.110350 S    
N44   O136  1.300905 A    
C279  H117  1.111041 S    
O29   Cu7   1.955321 S    
C64   C65   1.403802 A    
C206  C240  1.393279 A    
N41   O130  1.300907 A    
C77   O63   1.294128 A    
C264  H84   1.110351 S    
C280  H130  1.108713 S    
C77   O57   1.294743 A    
C274  H116  1.108646 S    
N45   O138  1.300922 A    
C253  C254  1.533532 S    
N47   O142  1.300923 A    
C261  H75   1.111043 S    
N67   O182  1.300937 A    
C216  N64   1.433172 S    
C160  C166  1.412642 A    
C210  N58   1.436271 S    
N41   O129  1.300599 A    
C58   C71   1.404657 A    
N59   O166  1.301621 A    
C34   C50   1.416374 A    
C76   O52   1.293757 A    
C86   C124  1.397866 A    
C22   N4    1.365211 A    
O57   Cu11  1.943904 S    
C158  N54   1.433974 S    
Cu9   Cu10  2.666962 S    
C110  C120  1.420864 A    
C248  H50   1.111974 S    
N31   O110  1.301591 A    
O10   C6    1.294199 A    
C129  C169  1.413655 A    
N53   O154  1.300916 A    
O18   C10   1.293065 A    
C138  C174  1.414135 A    
C16   C120  1.477936 S    
C152  C162  1.412371 A    
O15   Cu5   1.949908 S    
C130  C244  1.522684 S    
C28   N6    1.368086 A    
C252  H56   1.110355 S    
C37   C61   1.417019 A    
C85   H5    1.083183 S    
C100  N28   1.436469 S    
C250  H59   1.111490 S    
N37   O122  1.300647 A    
C29   C47   1.414912 A    
O5    C1    1.298748 A    
N32   O111  1.301343 A    
C145  C161  1.412715 A    
C284  H134  1.111959 S    
C62   N14   1.433842 S    
C268  H102  1.108644 S    
C159  C167  1.412677 A    
C24   C38   1.416753 A    
C28   O44   1.348786 S    
N12   O71   1.301147 A    
C61   C68   1.404429 A    
C2    C226  1.492036 S    
O32   Cu8   1.955311 S    
C214  N62   1.433394 S    
C103  C115  1.420153 A    
N11   O69   1.301148 A    
C286  H144  1.108715 S    
C93   C109  1.401501 A    
C214  C228  1.425345 A    
N56   O160  1.300907 A    
C247  H53   1.108713 S    
C283  H136  1.111494 S    
C199  C215  1.399015 A    
N34   O116  1.301147 A    
N72   O191  1.301337 A    
O22   Cu2   1.955305 S    
C279  H119  1.110348 S    
C243  H33   1.111055 S    
C84   C100  1.401327 A    
C266  H93   1.111327 S    
C265  C266  1.533411 S    
O21   C11   1.292758 A    
C85   C101  1.397847 A    
C282  H125  1.110855 S    
O22   C12   1.292491 A    
C241  H39   1.108716 S    
C129  C145  1.411123 A    
O16   Cu8   1.950307 S    
O23   Cu1   1.955301 S    
C271  H108  1.111490 S    
N61   O170  1.301179 A    
C140  C156  1.411916 A    
N29   O105  1.301274 A    
C215  C227  1.425284 A    
C92   C108  1.396888 A    
C19   O35   1.348621 S    
C26   N6    1.368086 A    
C27   O43   1.348416 S    
C262  H88   1.108625 S    
C18   O34   1.348602 S    
N15   O78   1.301033 A    
C84   C122  1.399509 A    
N39   O125  1.301415 A    
C213  C225  1.425282 A    
C95   C111  1.401503 A    
C259  H80   1.111478 S    
N54   O155  1.300674 A    
C96   C112  1.401175 A    
N63   O173  1.301164 A    
O3    Cu3   1.950058 S    
N51   O150  1.300916 A    
C276  H110  1.111042 S    
C30   N8    1.367496 A    
C254  H64   1.111936 S    
O8    C2    1.298371 A    
C31   N7    1.367493 A    
N71   O189  1.301356 A    
O62   Cu12  1.943666 S    
C273  H103  1.111032 S    
N71   O190  1.301139 A    
C218  N66   1.438635 S    
O28   Cu8   1.955310 S    
C27   N5    1.365880 A    
O55   Cu10  1.943924 S    
C25   N5    1.365877 A    
C149  C161  1.412304 A    
O30   Cu6   1.955305 S    
C97   N25   1.436200 S    
C256  C257  1.533543 S    
N7    C122  1.445702 S    
N22   O91   1.301150 A    
C87   C103  1.397849 A    
C217  C229  1.422711 A    
C251  H57   1.111974 S    
C40   C52   1.418083 A    
C275  H114  1.111329 S    
C83   H3    1.083198 S    
C146  N42   1.433929 S    
C285  H132  1.110855 S    
C107  C117  1.421627 A    
C242  H37   1.111304 S    
N28   O103  1.301321 A    
O9    Cu5   1.950054 S    
C272  C273  1.525598 S    
C88   H8    1.083219 S    
N16   O80   1.301104 A    
C134  C150  1.411191 A    
C280  H129  1.111499 S    
O11   Cu7   1.950058 S    
N4    C125  1.442056 S    
C63   N15   1.434711 S    
N45   O137  1.300669 A    
O16   C6    1.291321 A    
C182  C190  1.203275 T    
C75   O53   1.294105 A    
C145  N41   1.433932 S    
C19   C33   1.414645 A    
C111  C119  1.420469 A    
C261  H76   1.110847 S    
N50   O148  1.300927 A    
C73   O49   1.293603 A    
N47   O141  1.300669 A    
C196  C212  1.401944 A    
N20   O87   1.301191 A    
C67   N19   1.433250 S    
C186  C234  1.432837 S    
C219  N67   1.437965 S    
C278  H121  1.111327 S    
C76   C163  1.479920 S    
C104  N32   1.438366 S    
C174  C182  1.446235 S    
N57   O162  1.301623 A    
C36   C50   1.416378 A    
C104  C116  1.420158 A    
C154  C166  1.412972 A    
C249  H49   1.110356 S    
C147  C163  1.412726 A    
C99   N27   1.436200 S    
N69   O185  1.301355 A    
O31   Cu5   1.955301 S    
C265  H94   1.111492 S    
C170  C178  1.444023 S    
C212  N60   1.436371 S    
N62   O172  1.301264 A    
C244  H46   1.108718 S    
C36   C60   1.417541 A    
C43   C67   1.417828 A    
C63   C66   1.404432 A    
C257  H72   1.111335 S    
C129  C241  1.522697 S    
C101  C115  1.420155 A    
O17   Cu1   1.955326 S    
C49   C56   1.418976 A    
N69   O186  1.301144 A    
C201  C217  1.401687 A    
C132  C148  1.411132 A    
C39   C51   1.414862 A    
C51   C54   1.414396 A    
N26   O99   1.301321 A    
C32   N8    1.367499 A    
C35   C49   1.416303 A    
O60   Cu11  1.943662 S    
C89   H9    1.083245 S    
N27   O101  1.301319 A    
N17   O82   1.301021 A    
C33   C49   1.416299 A    
C88   C124  1.397866 A    
C7    C231  1.481133 S    
C78   O62   1.294298 A    
C74   O54   1.294007 A    
N65   O178  1.300934 A    
C62   C67   1.403806 A    
C93   H13   1.083249 S    
O13   Cu7   1.949905 S    
C81   C121  1.399381 A    
C184  C192  1.203271 T    
C198  C214  1.398961 A    
C136  C262  1.522733 S    
C211  C227  1.424660 A    
C245  H43   1.111974 S    
C198  C236  1.390999 A    
O2    C2    1.293911 A    
O25   Cu5   1.955326 S    
C66   N18   1.434705 S    
O23   C11   1.292756 A    
C211  N59   1.436651 S    
C260  H78   1.111934 S    
N28   O104  1.300795 A    
N24   O96   1.300993 A    
C205  C237  1.393199 A    
N18   O83   1.301188 A    
C194  C210  1.401873 A    
N10   O68   1.300992 A    
C283  C284  1.533412 S    
C287  H142  1.111327 S    
N23   O94   1.300995 A    
N65   O177  1.301362 A    
C21   N3    1.368156 A    
C250  H60   1.108717 S    
N21   O90   1.300998 A    
C258  H68   1.111048 S    
C89   C105  1.403010 A    
O4    Cu4   1.950161 S    
C250  C251  1.533507 S    
C135  C151  1.411233 A    
N38   O124  1.300636 A    
C205  H29   1.084310 S    
C58   N10   1.434352 S    
N25   O98   1.300700 A    
C31   O47   1.348605 S    
N3    C126  1.443978 S    
C284  H135  1.111324 S    
C208  H32   1.084293 S    
N64   O175  1.301200 A    
C17   N1    1.367606 A    
C27   C41   1.417052 A    
N70   O188  1.300712 A    
C259  C260  1.533531 S    
C20   N2    1.367602 A    
C20   O36   1.348604 S    
C246  H41   1.110857 S    
C73   C164  1.479762 S    
C20   C34   1.414920 A    
N31   O109  1.301273 A    
C201  C237  1.393108 A    
Cu11  Cu12  2.666962 S    
C34   C58   1.417539 A    
C268  H101  1.111492 S    
C24   O40   1.348505 S    
C50   C55   1.419307 A    
C243  H35   1.110357 S    
C224  C230  1.420244 A    
C267  H89   1.111031 S    
C187  C235  1.432937 S    
C79   O61   1.294122 A    
C159  N55   1.434053 S    
C88   C104  1.403120 A    
O2    Cu2   1.950157 S    
C196  H20   1.084360 S    
C203  H27   1.084336 S    
C142  C176  1.414346 A    
C256  H74   1.108632 S    
C78   C165  1.481325 S    
C109  N37   1.438952 S    
N40   O127  1.301404 A    
C221  C229  1.422317 A    
C288  H139  1.110853 S    
C95   H15   1.083252 S    
N11   O70   1.301002 A    
C241  C242  1.533505 S    
C105  N33   1.438195 S    
C244  H45   1.111493 S    
N66   O180  1.300701 A    
N68   O184  1.300695 A    
C276  H111  1.110855 S    
C209  N57   1.436652 S    
C199  H23   1.084698 S    
C287  C288  1.525601 S    
O63   Cu12  1.943924 S    
C139  C271  1.522590 S    
C12   C116  1.479669 S    
C157  C165  1.412670 A    
C82   C122  1.399519 A    
O7    Cu1   1.949908 S    
O56   Cu10  1.943657 S    
C286  C287  1.533378 S    
C206  C222  1.401442 A    
C257  H71   1.111935 S    
C200  H24   1.084725 S    
C247  C248  1.533503 S    
C265  H95   1.108675 S    
C144  C174  1.414352 A    
C142  C158  1.412082 A    
C203  C219  1.401685 A    
N9    O66   1.301000 A    
C151  C163  1.412308 A    
C281  H127  1.111949 S    
C204  C240  1.393876 A    
C18   C36   1.414926 A    
C147  N43   1.433932 S    
O19   C9    1.293304 A    
C209  C225  1.424660 A    
C198  H22   1.084710 S    
C195  C211  1.402183 A    
N43   O133  1.300595 A    
C246  H40   1.111058 S    
O24   C12   1.292471 A    
C255  H62   1.110846 S    
C269  H99   1.111953 S    
N58   O163  1.301380 A    
C273  H104  1.110855 S    
O12   Cu8   1.950161 S    
C111  N39   1.438952 S    
C219  C231  1.422713 A    
N66   O179  1.301413 A    
O14   Cu6   1.950310 S    
C213  N61   1.433545 S    
O58   Cu11  1.943660 S    
C269  H100  1.111327 S    
C264  H83   1.110848 S    
C80   C167  1.481321 S    
C102  C116  1.420139 A    
C263  H86   1.111335 S    
C100  C114  1.419209 A    
C275  C276  1.525601 S    
C90   C126  1.396851 A    
N13   O73   1.301189 A    
C220  C232  1.422475 A    
C254  C255  1.525575 S    
C258  H70   1.110349 S    
C29   O45   1.348606 S    
C102  N30   1.438354 S    
C132  C250  1.522685 S    
C48   C72   1.417484 A    
C75   O51   1.293537 A    
C10   C114  1.482036 S    
C87   C123  1.399204 A    
C274  H115  1.111494 S    
C205  C221  1.401793 A    
Cu6   Cu8   2.661380 S    
C248  H51   1.111303 S    
N52   O151  1.300668 A    
N49   O146  1.300913 A    
N53   O153  1.300664 A    
C133  C253  1.522720 S    
C246  H42   1.110357 S    
C197  C233  1.390994 A    
C286  H143  1.111497 S    
C137  C265  1.522590 S    
O64   Cu12  1.943657 S    
C201  H25   1.084333 S    
C280  C281  1.533374 S    
C252  H55   1.110859 S    
C195  H19   1.084330 S    
O20   Cu4   1.955310 S    
C135  C259  1.522720 S    
N37   O121  1.301414 A    
N60   O167  1.301359 A    
N32   O112  1.301012 A    
C191  C239  1.434560 S    
C112  N40   1.438822 S    
O20   C10   1.293066 A    
C136  C152  1.411150 A    
C35   C59   1.417499 A    
C253  H67   1.108640 S    
C212  C228  1.424841 A    
C272  H106  1.111952 S    
C277  C278  1.533411 S    
O10   Cu6   1.950157 S    
N12   O72   1.300994 A    
C152  N48   1.434246 S    
C80   O60   1.294169 A    
C17   O33   1.348617 S    
N35   O117  1.301356 A    
C91   H11   1.083240 S    
C150  N46   1.434235 S    
C263  C264  1.525569 S    
C81   C97   1.401061 A    
C200  C216  1.398906 A    
C131  C147  1.411122 A    
N13   O74   1.301034 A    
N48   O143  1.300659 A    
O1    Cu1   1.950054 S    
C220  N68   1.438634 S    
O59   Cu11  1.943928 S    
C23   O39   1.348786 S    
N19   O85   1.300833 A    
C195  C235  1.392313 A    
C26   O42   1.348784 S    
C80   O64   1.294298 A    
