data_mof_unit_48527.cif
_audit_creation_date              2012-12-10T18:05:58-0500
_audit_creation_method            fapswitch 2.2
_symmetry_space_group_name_H-M    P1
_symmetry_Int_Tables_number       1
_space_group_crystal_system       triclinic
_cell_length_a                    12.708645
_cell_length_b                    12.907337
_cell_length_c                    15.014383
_cell_angle_alpha                 92.304144
_cell_angle_beta                  102.713818
_cell_angle_gamma                 81.969404
_cell_volume                      2378.82076102

loop_
_atom_site_label
_atom_site_type_symbol
_atom_type_description
_atom_site_fract_x
_atom_site_fract_y
_atom_site_fract_z
_atom_type_partial_charge
C1    C     C_R   0.439934 0.690974 0.480502 0.865614
C2    C     C_R   0.595006 0.518154 0.833263 -0.244218
C3    C     C_R   0.501654 0.499971 0.769370 -0.080969
C4    C     C_R   0.500854 0.500276 0.673037 0.906036
C5    C     C_R   0.408006 0.480941 0.796908 -0.215105
C6    C     C_R   0.729348 0.044196 0.501086 -0.167348
C7    C     C_R   0.594439 0.198264 0.485324 -0.118347
C8    C     C_R   0.298188 0.845717 0.451009 -0.175030
C9    C     C_R   0.269222 0.953111 0.440309 -0.144855
C10   C     C_R   0.346971 0.016080 0.432121 -0.099087
C11   C     C_R   0.453669 0.971328 0.427003 0.120428
C12   C     C_R   0.405407 0.479784 0.074535 0.102861
C13   C     C_R   0.480049 0.861597 0.428981 0.049504
C14   C     C_R   0.539130 0.032515 0.432706 0.071402
C15   C     C_R   0.648420 0.984182 0.456745 0.081606
C16   C     C_R   0.560197 0.308119 0.504324 0.862020
C17   C     C_R   0.670931 0.877056 0.438372 -0.030563
C18   C     C_R   0.584542 0.818334 0.416256 -0.220802
C19   C     C_R   0.520504 0.141313 0.426506 -0.076699
C20   C     C_R   0.699564 0.148787 0.522964 -0.191592
C21   C     C_R   0.404662 0.799702 0.450046 -0.117536
C22   C     C_R   0.078509 0.394825 0.337457 -0.071770
C23   C     C_R   0.687417 0.536891 0.084291 -0.240732
C24   C     C_R   0.803799 0.608779 0.626215 -0.080144
C25   C     C_R   0.911793 0.618798 0.664089 -0.054633
C26   C     C_R   0.991167 0.576413 0.616714 -0.143889
C27   C     C_R   0.962856 0.532950 0.527820 -0.010921
C28   C     C_R   0.498980 0.500098 0.326998 0.890942
C29   C     C_R   0.852727 0.516053 0.496814 0.126659
C30   C     C_R   0.040228 0.494696 0.473119 -0.047234
C31   C     C_R   0.003349 0.445885 0.387094 0.076244
C32   C     C_R   0.892747 0.441970 0.355156 -0.288624
C33   C     C_R   0.824842 0.455688 0.416292 -0.031014
C34   C     C_R   0.689813 0.536349 0.992139 0.001317
C35   C     C_R   0.152693 0.502993 0.497658 0.056898
C36   C     C_R   0.188542 0.391240 0.374653 -0.056516
C37   C     C_R   0.405394 0.479931 0.166854 -0.235345
C38   C     C_R   0.498171 0.500070 0.230823 -0.054948
C39   C     C_R   0.591510 0.519980 0.203050 -0.182932
C40   C     C_R   0.593295 0.518803 0.111370 0.088239
C41   C     C_R   0.499780 0.499138 0.046442 0.063337
C42   C     C_1   0.780580 0.825430 0.443647 0.166489
C43   C     C_2   0.441795 0.192281 0.346200 0.397269
C44   C     C_1   0.046066 0.343431 0.250232 0.157807
C45   C     C_R   0.596070 0.518000 0.926135 0.073484
C46   C     C_1   0.194590 0.585477 0.556664 0.227419
C47   C     C_2   0.940546 0.669746 0.754587 0.429073
C48   C     C_2   0.772814 0.361917 0.417943 0.519281
C49   C     C_1   0.789633 0.554500 0.967766 0.157272
C50   C     C_1   0.213576 0.439308 0.854039 0.211185
C51   C     C_R   0.500605 0.499013 0.953755 0.040891
C52   C     C_R   0.405933 0.479932 0.888866 0.062967
C53   C     C_R   0.311802 0.460365 0.917633 -0.003875
C54   C     C_R   0.312507 0.460427 0.010370 -0.221986
H1    H     H_    0.333224 0.464499 0.188671 0.165702
H2    H     H_    0.740958 0.638318 0.662543 0.137586
H3    H     H_    0.073778 0.573393 0.653730 0.184383
H4    H     H_    0.759244 0.551214 0.135115 0.156908
H5    H     H_    0.666574 0.532609 0.810224 0.164929
H6    H     H_    0.336305 0.466871 0.746258 0.170765
H7    H     H_    0.240399 0.445395 0.032611 0.163565
H8    H     H_    0.758854 0.191063 0.567088 0.148453
H9    H     H_    0.435235 0.275499 0.335367 0.098878
H10   H     H_    0.877088 0.699736 0.790507 0.062629
H11   H     H_    0.796872 0.314755 0.478726 0.046448
H12   H     H_    0.812716 0.008838 0.525462 0.152012
H13   H     H_    0.238637 0.799497 0.464458 0.173846
H14   H     H_    0.323809 0.099828 0.434282 0.147598
H15   H     H_    0.187906 0.988493 0.444154 0.153376
H16   H     H_    0.601692 0.737527 0.395765 0.184755
H17   H     H_    0.248060 0.353527 0.338036 0.142948
H18   H     H_    0.864624 0.402961 0.290680 0.193637
H19   H     H_    0.663365 0.536339 0.252622 0.173326
N1    N     N_R   0.222190 0.444670 0.452360 -0.132665
N2    N     N_R   0.776970 0.554790 0.547140 -0.131579
N3    N     N_1   0.868371 0.784041 0.447849 -0.197265
N4    N     N_1   0.020193 0.302372 0.180441 -0.167593
N5    N     N_1   0.227466 0.652227 0.603972 -0.195195
N6    N     N_1   0.869606 0.568908 0.948398 -0.191587
N7    N     N_1   0.134989 0.422269 0.803292 -0.194617
O1    O     O_R   0.366740 0.627160 0.477250 -0.603277
O2    O     O_2   0.034907 0.679340 0.789976 -0.548292
O3    O     O_2   0.713306 0.330481 0.349851 -0.595066
O4    O     O_R   0.544830 0.662520 0.507680 -0.620606
O5    O     O_R   0.410940 0.482340 0.616930 -0.614469
O6    O     O_R   0.589030 0.517700 0.647360 -0.628278
O7    O     O_R   0.455170 0.337480 0.492320 -0.632798
O8    O     O_R   0.633260 0.372840 0.522750 -0.623203
O9    O     O_R   0.410970 0.482300 0.352640 -0.647260
O10   O     O_R   0.589060 0.517660 0.383070 -0.620836
O11   O     O_2   0.388699 0.140790 0.287420 -0.563413
Zn1   Zn    Zn3+2 0.381090 0.476390 0.479680 0.946685
Zn2   Zn    Zn3+2 0.618910 0.523610 0.520320 0.940036

loop_
_geom_bond_atom_site_label_1
_geom_bond_atom_site_label_2
_ccdc_geom_bond_type
C18   H16   S    
C23   H4    S    
C35   N1    A    
C1    C21   S    
C27   C29   A    
C43   H9    S    
C32   H18   S    
C53   C54   A    
C1    O4    A    
C26   C27   A    
C37   C38   A    
C30   C35   A    
C44   N4    T    
C9    H15   S    
C38   C39   A    
C11   C14   A    
C4    O6    A    
C45   C51   A    
C1    O1    A    
C23   C40   A    
C29   C33   A    
C47   O2    D    
N1    Zn1   S    
C12   C37   A    
C17   C42   S    
C6    C15   A    
O1    Zn1   S    
C22   C44   S    
C8    C9    A    
C16   O7    A    
C5    C52   A    
C28   O9    A    
C48   H11   S    
C9    C10   A    
C25   C47   S    
C36   H17   S    
O7    Zn1   S    
C27   C30   A    
O5    Zn1   S    
C19   C43   S    
C8    C21   A    
C2    C45   A    
C50   C53   S    
C22   C31   A    
C51   C52   A    
C24   C25   A    
C39   C40   A    
C46   N5    T    
C2    H5    S    
C4    O5    A    
C25   C26   A    
C43   O11   D    
C49   N6    T    
C12   C41   A    
O6    Zn2   S    
C31   C32   A    
C28   C38   S    
C23   C34   A    
C17   C18   A    
C13   C21   A    
C34   C45   A    
O9    Zn1   S    
C36   N1    A    
C13   C18   A    
C40   C41   A    
C7    C19   A    
C3    C4    S    
C47   H10   S    
C6    C20   A    
C52   C53   A    
N2    Zn2   S    
O10   Zn2   S    
C15   C17   A    
O8    Zn2   S    
C7    C16   S    
C34   C49   S    
C5    H6    S    
C14   C19   A    
C3    C5    A    
C50   N7    T    
C24   N2    A    
C29   N2    A    
C54   H7    S    
C10   H14   S    
C24   H2    S    
C22   C36   A    
C42   N3    T    
C48   O3    D    
C32   C33   A    
C2    C3    A    
C11   C13   A    
C30   C31   A    
O4    Zn2   S    
C39   H19   S    
C20   H8    S    
C26   H3    S    
C10   C11   A    
C37   H1    S    
C6    H12   S    
C8    H13   S    
C7    C20   A    
C16   O8    A    
C33   C48   S    
C14   C15   A    
C28   O10   A    
C35   C46   S    
C41   C51   A    
C12   C54   A    
