data_mof_unit_48421.cif
_audit_creation_date              2012-12-10T17:19:53-0500
_audit_creation_method            fapswitch 2.2
_symmetry_space_group_name_H-M    P1
_symmetry_Int_Tables_number       1
_space_group_crystal_system       triclinic
_cell_length_a                    9.652958
_cell_length_b                    10.772682
_cell_length_c                    15.538196
_cell_angle_alpha                 85.694994
_cell_angle_beta                  73.816819
_cell_angle_gamma                 89.978854
_cell_volume                      1547.03039975

loop_
_atom_site_label
_atom_site_type_symbol
_atom_type_description
_atom_site_fract_x
_atom_site_fract_y
_atom_site_fract_z
_atom_type_partial_charge
C1    C     C_R   0.998749 0.262620 0.502968 0.776596
C2    C     C_R   0.670143 0.526687 0.903946 0.089647
C3    C     C_R   0.768526 0.569280 0.948649 0.169997
C4    C     C_R   0.520067 0.516131 0.949735 0.069552
C5    C     C_R   0.472844 0.535714 0.042890 0.064754
C6    C     C_R   0.574590 0.578777 0.084833 -0.229693
C7    C     C_R   0.719201 0.596095 0.038152 -0.239617
C8    C     C_R   0.415306 0.490091 0.904964 -0.222996
C9    C     C_R   0.269972 0.477219 0.950878 -0.246917
C10   C     C_R   0.223524 0.487436 0.043142 0.171330
C11   C     C_R   0.324651 0.514336 0.090463 0.080825
C12   C     C_R   0.917916 0.501456 0.671712 0.759871
C13   C     C_R   0.076607 0.469915 0.088852 -0.213718
C14   C     C_R   0.028729 0.476845 0.181517 -0.210867
C15   C     C_R   0.274476 0.514796 0.184374 -0.246497
C16   C     C_R   0.072810 0.113371 0.648439 -0.190318
C17   C     C_R   0.109969 0.040924 0.716518 -0.140016
C18   C     C_R   0.110253 0.911817 0.716354 -0.124240
C19   C     C_R   0.073494 0.854390 0.648072 -0.173573
C20   C     C_R   0.037271 0.925912 0.577639 0.090394
C21   C     C_R   0.037059 0.057210 0.577780 0.100103
C22   C     C_R   0.996338 0.128124 0.508687 -0.094692
C23   C     C_R   0.998850 0.736840 0.502624 0.812627
C24   C     C_R   0.951976 0.070307 0.443171 -0.200582
C25   C     C_R   0.952491 0.942248 0.442966 -0.205105
C26   C     C_R   0.996611 0.870088 0.508465 -0.089678
C27   C     C_R   0.701213 0.676521 0.390284 -0.141569
C28   C     C_R   0.658887 0.782793 0.351769 -0.303414
C29   C     C_R   0.517404 0.795949 0.354738 -0.267951
C30   C     C_R   0.416880 0.696030 0.388166 0.529664
C31   C     C_R   0.451712 0.593232 0.445629 0.095014
C32   C     C_R   0.601331 0.588881 0.445844 0.156538
C33   C     C_R   0.550259 0.415376 0.551614 -0.050463
C34   C     C_R   0.082032 0.498843 0.328205 0.819785
C35   C     C_R   0.403132 0.414925 0.551248 -0.065253
C36   C     C_R   0.871577 0.515575 0.768662 -0.039391
C37   C     C_R   0.127959 0.497512 0.229896 -0.064912
C38   C     C_R   0.915590 0.585844 0.902961 -0.220292
C39   C     C_R   0.966839 0.559582 0.813347 -0.215598
C40   C     C_R   0.725823 0.495782 0.814783 -0.239079
Cu1   Cu    Cu3+1 0.140660 0.499990 0.500010 0.969600
Cu2   Cu    Cu3+1 0.859340 0.500010 0.499990 0.936717
H1    H     H_    0.793171 0.630228 0.072671 0.147087
H2    H     H_    0.998850 0.449356 0.053062 0.143276
H3    H     H_    0.919936 0.124911 0.390674 0.149451
H4    H     H_    0.069961 0.213055 0.652891 0.136251
H5    H     H_    0.137018 0.085125 0.770204 0.132856
H6    H     H_    0.137470 0.855781 0.769912 0.134678
H7    H     H_    0.071586 0.753914 0.652108 0.143470
H8    H     H_    0.921778 0.899172 0.390074 0.133488
H9    H     H_    0.585627 0.345736 0.594282 0.132627
H10   H     H_    0.814472 0.669513 0.375825 0.207989
H11   H     H_    0.737686 0.853624 0.315718 0.164083
H12   H     H_    0.348383 0.524866 0.224057 0.174846
H13   H     H_    0.492111 0.881248 0.321710 0.157441
H14   H     H_    0.329531 0.344937 0.593492 0.130698
H15   H     H_    0.914914 0.462760 0.215440 0.160417
H16   H     H_    0.193604 0.457330 0.913876 0.147010
H17   H     H_    0.990569 0.621348 0.936143 0.137409
H18   H     H_    0.079908 0.576545 0.778588 0.150017
H19   H     H_    0.658115 0.455200 0.779361 0.145046
H20   H     H_    0.545315 0.604453 0.153171 0.146709
H21   H     H_    0.441122 0.482832 0.833517 0.142785
N1    N     N_R   0.648320 0.501210 0.499140 -0.187028
N2    N     N_R   0.352470 0.501290 0.499110 -0.185134
O1    O     O_R   0.118810 0.319640 0.500010 -0.584221
O2    O     O_R   0.881240 0.319660 0.500000 -0.576379
O3    O     O_R   0.055570 0.499980 0.629840 -0.601651
O4    O     O_R   0.818000 0.500010 0.629830 -0.577522
O5    O     O_R   0.118760 0.680340 0.500000 -0.528715
O6    O     O_R   0.881190 0.680360 0.499990 -0.594770
O7    O     O_R   0.182000 0.499990 0.370170 -0.514000
O8    O     O_R   0.944430 0.500020 0.370160 -0.618158
O9    O     O_3   0.292411 0.693440 0.360499 -0.537125
C41   C     C_3   0.279409 0.784644 0.292907 -0.381702
H22   H     H_    0.372549 0.783789 0.231721 0.164034
H23   H     H_    0.262840 0.878098 0.319472 0.172902
H24   H     H_    0.181374 0.762237 0.272700 0.175249

loop_
_geom_bond_atom_site_label_1
_geom_bond_atom_site_label_2
_ccdc_geom_bond_type
C12   O4    A    
C16   C21   A    
Cu2   N1    S    
C34   C37   S    
Cu1   Cu2   S    
C19   C20   A    
C4    C8    A    
C12   O3    A    
C24   H3    S    
C28   C29   A    
C5    C11   A    
C3    C7    A    
C38   C39   A    
C30   O9    S    
C16   C17   A    
C35   N2    A    
C9    H16   S    
C23   C26   S    
C25   H8    S    
C15   C37   A    
C1    O2    A    
C11   C15   A    
C3    C38   A    
C8    C9    A    
C7    H1    S    
C12   C36   S    
C9    C10   A    
C27   C32   A    
C1    C22   S    
C21   C22   A    
C23   O5    A    
C17   C18   A    
Cu1   O3    S    
O9    C41   S    
C15   H12   S    
C23   O6    A    
C36   C40   A    
C24   C25   A    
C32   N1    A    
C16   H4    S    
C18   C19   A    
Cu1   N2    S    
C34   O8    A    
C25   C26   A    
Cu2   O4    S    
C40   H19   S    
C2    C4    A    
C41   H22   S    
C29   C30   A    
C19   H7    S    
C31   C32   A    
C30   C31   A    
C1    O1    A    
C41   H23   S    
Cu1   O1    S    
Cu1   O7    S    
Cu2   O2    S    
C22   C24   A    
C34   O7    A    
C27   H10   S    
C31   N2    A    
C14   H15   S    
Cu2   O8    S    
C35   H14   S    
C36   C39   A    
C17   H5    S    
C4    C5    A    
C10   C13   A    
C18   H6    S    
C28   H11   S    
C6    C7    A    
C33   H9    S    
C29   H13   S    
C6    H20   S    
C2    C3    A    
C14   C37   A    
C5    C6    A    
C20   C26   A    
C33   N1    A    
C39   H18   S    
Cu2   O6    S    
C33   C35   A    
C41   H24   S    
C10   C11   A    
C8    H21   S    
C38   H17   S    
C2    C40   A    
C20   C21   A    
C27   C28   A    
C13   C14   A    
C13   H2    S    
Cu1   O5    S    
