data_mof_unit_46877.cif
_audit_creation_date              2012-12-10T18:10:45-0500
_audit_creation_method            fapswitch 2.2
_symmetry_space_group_name_H-M    P1
_symmetry_Int_Tables_number       1
_space_group_crystal_system       triclinic
_cell_length_a                    12.581716
_cell_length_b                    13.134593
_cell_length_c                    15.744201
_cell_angle_alpha                 90.896603
_cell_angle_beta                  102.761613
_cell_angle_gamma                 81.445854
_cell_volume                      2508.92015635

loop_
_atom_site_label
_atom_site_type_symbol
_atom_type_description
_atom_site_fract_x
_atom_site_fract_y
_atom_site_fract_z
_atom_type_partial_charge
C1    C     C_R   0.438132 0.691360 0.486096 0.842298
C2    C     C_3   0.416430 0.420959 0.032080 -0.265712
C3    C     C_3   0.500673 0.489333 0.082908 0.185068
C4    C     C_3   0.620758 0.453972 0.070432 -0.142558
C5    C     C_3   0.621754 0.456046 0.972116 -0.499634
C6    C     C_1   0.498516 0.493146 0.174303 -0.022683
C7    C     C_1   0.504965 0.495105 0.826311 -0.066826
C8    C     C_1   0.504182 0.498034 0.750914 -0.164419
C9    C     C_R   0.713264 0.051629 0.458504 -0.156830
C10   C     C_R   0.599943 0.196374 0.507549 -0.167356
C11   C     C_R   0.296421 0.840949 0.492766 -0.169597
C12   C     C_R   0.501097 0.500127 0.661495 0.902992
C13   C     C_R   0.264908 0.946526 0.495737 -0.109426
C14   C     C_R   0.337971 0.013110 0.486351 -0.157085
C15   C     C_R   0.442884 0.974350 0.470102 0.086283
C16   C     C_R   0.465575 0.869000 0.451842 0.084769
C17   C     C_R   0.527564 0.035366 0.474031 0.087293
C18   C     C_R   0.626037 0.994412 0.448296 0.112603
C19   C     C_R   0.637506 0.895459 0.415137 -0.224691
C20   C     C_R   0.557554 0.833640 0.415950 -0.178197
C21   C     C_R   0.518955 0.134372 0.506841 -0.228759
C22   C     C_R   0.702939 0.151964 0.490760 -0.005018
C23   C     C_R   0.562325 0.307798 0.510293 0.865424
C24   C     C_R   0.397527 0.801389 0.472789 -0.123730
C25   C     C_R   0.087078 0.356535 0.366377 -0.111861
C26   C     C_R   0.797976 0.632513 0.599792 0.029279
C27   C     C_R   0.892927 0.676582 0.605722 -0.336627
C28   C     C_R   0.968100 0.638839 0.555157 0.013836
C29   C     C_R   0.954342 0.546313 0.507947 0.015760
C30   C     C_R   0.851809 0.510587 0.498417 0.177953
C31   C     C_R   0.036059 0.488245 0.469447 0.018423
C32   C     C_R   0.006945 0.410542 0.407935 0.047224
C33   C     C_R   0.900451 0.385188 0.393554 -0.175981
C34   C     C_R   0.499043 0.499543 0.338557 0.890240
C35   C     C_R   0.826377 0.431634 0.440539 -0.162943
C36   C     C_R   0.147762 0.498730 0.495279 0.031668
C37   C     C_R   0.195235 0.376533 0.392256 0.024455
C38   C     C_3   0.423878 0.416414 0.934032 -0.220763
C39   C     C_3   0.462459 0.600673 0.946205 -0.407596
C40   C     C_3   0.464033 0.600424 0.044439 -0.440434
C41   C     C_1   0.497843 0.496389 0.249482 -0.115922
C42   C     C_3   0.503583 0.491044 0.917633 0.252834
H1    H     H_    0.332636 0.462513 0.033199 0.184115
H2    H     H_    0.672988 0.511329 0.102633 0.174018
H3    H     H_    0.710172 0.864429 0.391505 0.165020
H4    H     H_    0.790323 0.016805 0.443102 0.185265
H5    H     H_    0.447881 0.166283 0.531359 0.165307
H6    H     H_    0.243608 0.790151 0.509064 0.197977
H7    H     H_    0.309668 0.094175 0.491165 0.149335
H8    H     H_    0.185830 0.976712 0.509724 0.170839
H9    H     H_    0.340078 0.446115 0.894553 0.173758
H10   H     H_    0.569349 0.757428 0.389308 0.173282
H11   H     H_    0.259005 0.338716 0.361438 0.188544
H12   H     H_    0.874887 0.324094 0.350828 0.198780
H13   H     H_    0.178036 0.547804 0.547849 0.131410
H14   H     H_    0.736192 0.666116 0.634241 0.148633
H15   H     H_    0.902607 0.745499 0.643651 0.150590
H16   H     H_    0.749807 0.402751 0.431227 0.210887
H17   H     H_    0.515674 0.656123 0.932381 0.186260
H18   H     H_    0.377142 0.627705 0.908717 0.175096
H19   H     H_    0.380529 0.631826 0.054433 0.186295
H20   H     H_    0.521315 0.652722 0.078224 0.186646
H21   H     H_    0.656708 0.380188 0.949832 0.156678
H22   H     H_    0.676879 0.510982 0.960804 0.188904
N1    N     N_R   0.222200 0.444690 0.455710 -0.134092
N2    N     N_R   0.776960 0.554780 0.543830 -0.133236
O1    O     O_R   0.366740 0.627160 0.478850 -0.594072
O2    O     O_R   0.544830 0.662520 0.507140 -0.620794
O3    O     O_R   0.410920 0.482310 0.608710 -0.608189
O4    O     O_R   0.589010 0.517670 0.637000 -0.616418
O5    O     O_R   0.455170 0.337480 0.492860 -0.602892
O6    O     O_R   0.633260 0.372840 0.521150 -0.658968
O7    O     O_R   0.410990 0.482330 0.363000 -0.599827
O8    O     O_R   0.589080 0.517690 0.391290 -0.632477
Zn1   Zn    Zn3+2 0.381090 0.476390 0.481110 0.977716
Zn2   Zn    Zn3+2 0.618910 0.523610 0.518890 0.927245
C43   C     C_2   0.454858 0.308464 0.902684 0.422472
H23   H     H_    0.532748 0.262408 0.932408 0.040087
O9    O     O_2   0.392051 0.272085 0.843641 -0.550718
C44   C     C_2   0.422564 0.317000 0.075298 0.456018
H24   H     H_    0.493367 0.258043 0.079173 0.047992
O10   O     O_2   0.346477 0.298108 0.106029 -0.527564
C45   C     C_2   0.802025 0.204114 0.511295 0.369494
H25   H     H_    0.807161 0.266885 0.556665 0.101351
O11   O     O_2   0.881939 0.174465 0.480446 -0.582023
C46   C     C_2   0.061020 0.281689 0.295580 0.430554
H26   H     H_    0.977323 0.280472 0.259556 0.100663
O12   O     O_2   0.134175 0.220801 0.275267 -0.539882
C47   C     C_2   0.043673 0.709570 0.540523 0.330268
H27   H     H_    0.075594 0.760329 0.591860 0.059762
O13   O     O_2   0.064940 0.716612 0.469029 -0.569856
C48   C     C_2   0.673982 0.350890 0.112596 0.377343
H28   H     H_    0.669967 0.280614 0.075695 0.060015
O14   O     O_2   0.722112 0.345567 0.189100 -0.591369

loop_
_geom_bond_atom_site_label_1
_geom_bond_atom_site_label_2
_ccdc_geom_bond_type
C12   O3    A    
C19   C20   A    
O6    Zn2   S    
C3    C6    S    
C7    C8    T    
C43   H23   S    
C10   C22   A    
C26   C27   A    
O8    Zn2   S    
C30   C35   A    
C35   H16   S    
C28   C29   A    
C38   C42   S    
C46   O12   D    
C9    C22   A    
C14   H7    S    
C15   C16   A    
C11   C24   A    
C1    O2    A    
C40   H20   S    
C5    H21   S    
C18   C19   A    
C7    C42   S    
C48   H28   S    
C1    O1    A    
C45   H25   S    
C6    C41   T    
C37   N1    A    
C28   C47   S    
C47   O13   D    
C16   C20   A    
C37   H11   S    
C25   C32   A    
C39   H17   S    
C9    H4    S    
C16   C24   A    
C13   C14   A    
O7    Zn1   S    
C11   H6    S    
C34   C41   S    
C39   C42   S    
C43   O9    D    
C10   C21   A    
C26   N2    A    
C23   O5    A    
C44   O10   D    
C27   H15   S    
C39   C40   S    
C36   N1    A    
C4    C5    S    
C38   H9    S    
C4    H2    S    
C17   C21   A    
C40   H19   S    
C5    H22   S    
C29   C30   A    
C2    C38   S    
C31   C32   A    
C14   C15   A    
C2    H1    S    
C8    C12   S    
N2    Zn2   S    
C48   O14   D    
C17   C18   A    
C30   N2    A    
C34   O8    A    
C45   O11   D    
C3    C40   S    
O4    Zn2   S    
O1    Zn1   S    
C3    C4    S    
C5    C42   S    
C33   H12   S    
C15   C17   A    
C12   O4    A    
C46   H26   S    
C23   O6    A    
C44   H24   S    
C26   H14   S    
C19   H3    S    
C38   C43   S    
C10   C23   S    
O2    Zn2   S    
N1    Zn1   S    
C32   C33   A    
C2    C3    S    
C20   H10   S    
C36   H13   S    
C22   C45   S    
O5    Zn1   S    
C11   C13   A    
C39   H18   S    
C25   C46   S    
C33   C35   A    
O3    Zn1   S    
C2    C44   S    
C34   O7    A    
C13   H8    S    
C9    C18   A    
C1    C24   S    
C29   C31   A    
C27   C28   A    
C31   C36   A    
C21   H5    S    
C47   H27   S    
C25   C37   A    
C4    C48   S    
