data_mof_unit_18402.cif
_audit_creation_date              2012-12-10T19:12:33-0500
_audit_creation_method            fapswitch 2.2
_symmetry_space_group_name_H-M    P1
_symmetry_Int_Tables_number       1
_space_group_crystal_system       triclinic
_cell_length_a                    15.718142
_cell_length_b                    10.631805
_cell_length_c                    9.723215
_cell_angle_alpha                 90.441275
_cell_angle_beta                  89.833772
_cell_angle_gamma                 89.847042
_cell_volume                      1624.80713501

loop_
_atom_site_label
_atom_site_type_symbol
_atom_type_description
_atom_site_fract_x
_atom_site_fract_y
_atom_site_fract_z
_atom_type_partial_charge
C1    C     C_R   0.499135 0.257574 0.499863 0.829518
C2    C     C_3   0.486031 0.929848 0.648969 -0.377863
C3    C     C_3   0.422970 0.071919 0.412890 -0.411603
C4    C     C_R   0.337867 0.500081 0.500136 0.930667
C5    C     C_3   0.583215 0.071387 0.438852 -0.395434
C6    C     C_3   0.498461 0.121242 0.500123 0.189517
C7    C     C_3   0.498388 0.878805 0.500550 0.160267
C8    C     C_3   0.424101 0.927451 0.410459 -0.385237
C9    C     C_3   0.583973 0.927029 0.442114 -0.404081
C10   C     C_3   0.517877 0.372440 0.081175 -0.235588
C11   C     C_3   0.514305 0.369405 0.918771 -0.285633
C12   C     C_3   0.082842 0.507153 0.500033 0.132631
C13   C     C_3   0.414070 0.535760 0.083082 -0.268063
C14   C     C_3   0.562318 0.587449 0.080655 -0.216027
C15   C     C_3   0.415113 0.540951 0.920581 -0.049728
C16   C     C_R   0.499035 0.742439 0.500357 0.855543
C17   C     C_3   0.567299 0.578108 0.918993 -0.233863
C18   C     C_R   0.662160 0.500339 0.499870 0.911678
C19   C     C_3   0.972183 0.389952 0.525783 -0.138064
C20   C     C_3   0.028632 0.427171 0.402027 -0.191742
C21   C     C_1   0.248997 0.502035 0.500503 -0.139488
C22   C     C_1   0.751086 0.502513 0.499551 -0.207159
C23   C     C_3   0.970981 0.586840 0.597755 -0.211016
C24   C     C_3   0.027847 0.470090 0.623765 -0.183137
C25   C     C_2   0.389920 0.672277 0.875416 0.920077
C26   C     C_2   0.057143 0.753350 0.445062 0.893344
C27   C     C_3   0.917244 0.506536 0.499496 0.196176
C28   C     C_3   0.027231 0.622436 0.474045 0.031465
C29   C     C_3   0.971796 0.543803 0.375420 -0.216432
C30   C     C_1   0.173718 0.504327 0.500519 -0.000488
C31   C     C_1   0.826393 0.504616 0.499433 -0.061095
C32   C     C_3   0.488801 0.072456 0.649601 -0.411365
H1    H     H_    0.054084 0.361782 0.322312 0.146731
H2    H     H_    0.431630 0.893854 0.302336 0.191457
H3    H     H_    0.472058 0.302557 0.122358 0.150593
H4    H     H_    0.947384 0.294348 0.547016 0.143480
H5    H     H_    0.582009 0.341999 0.116109 0.150962
H6    H     H_    0.574842 0.330187 0.876908 0.159034
H7    H     H_    0.463187 0.304072 0.884837 0.147931
H8    H     H_    0.365383 0.466434 0.116408 0.139781
H9    H     H_    0.364544 0.476080 0.882966 0.106987
H10   H     H_    0.546892 0.685655 0.112289 0.182956
H11   H     H_    0.625952 0.566394 0.124506 0.148096
H12   H     H_    0.423088 0.898924 0.688171 0.203888
H13   H     H_    0.630677 0.539861 0.888723 0.145905
H14   H     H_    0.564732 0.673158 0.872976 0.183627
H15   H     H_    0.393876 0.626584 0.130738 0.183092
H16   H     H_    0.946977 0.574376 0.274205 0.147311
H17   H     H_    0.945487 0.652442 0.677245 0.148012
H18   H     H_    0.052657 0.439823 0.725082 0.146845
H19   H     H_    0.429341 0.109888 0.697524 0.169943
H20   H     H_    0.543331 0.104318 0.713908 0.176001
H21   H     H_    0.536356 0.893542 0.718799 0.189207
H22   H     H_    0.398311 0.859078 0.913444 0.326910
H23   H     H_    0.361660 0.106160 0.457134 0.159792
H24   H     H_    0.156115 0.871332 0.419807 0.338071
H25   H     H_    0.362263 0.891046 0.449398 0.181222
H26   H     H_    0.590843 0.103522 0.330791 0.172615
H27   H     H_    0.638054 0.108505 0.498823 0.157930
H28   H     H_    0.637610 0.893884 0.507157 0.162105
H29   H     H_    0.594649 0.889670 0.336141 0.175921
H30   H     H_    0.427285 0.107129 0.305557 0.174754
N1    N     N_3   0.498170 0.499750 0.138610 -0.046213
N2    N     N_3   0.498850 0.496730 0.861320 -0.076794
O1    O     O_R   0.499980 0.314910 0.616040 -0.640562
O2    O     O_R   0.428533 0.777506 0.935668 -0.870899
O3    O     O_2   0.004927 0.836714 0.425980 -0.639575
O4    O     O_R   0.144135 0.779656 0.440045 -0.806745
O5    O     O_R   0.500040 0.314680 0.383960 -0.637581
O6    O     O_R   0.376750 0.500100 0.616020 -0.596417
O7    O     O_R   0.376810 0.499870 0.383940 -0.631046
O8    O     O_R   0.499960 0.685320 0.616040 -0.623303
O9    O     O_R   0.500020 0.685090 0.383960 -0.633807
O10   O     O_R   0.623190 0.500130 0.616060 -0.625690
O11   O     O_R   0.623250 0.499900 0.383980 -0.622332
O12   O     O_2   0.330887 0.686616 0.795412 -0.625968
Zn1   Zn    Zn3+2 0.499960 0.500150 0.654960 0.930042
Zn2   Zn    Zn3+2 0.500040 0.499850 0.345040 0.907952

loop_
_geom_bond_atom_site_label_1
_geom_bond_atom_site_label_2
_ccdc_geom_bond_type
C6    C32   S    
C18   O11   A    
C27   C29   S    
N2    Zn1   S    
C10   N1    S    
C16   O8    A    
C3    C6    S    
C4    O6    A    
C7    C8    S    
C5    H26   S    
C12   C28   S    
C10   H5    S    
C9    H29   S    
C26   O3    D    
C28   C29   S    
C17   H13   S    
C19   H4    S    
C17   N2    S    
C5    C6    S    
C23   H17   S    
C2    C32   S    
C32   H20   S    
C13   H8    S    
C2    C7    S    
C3    H23   S    
C19   C20   S    
C2    H12   S    
O10   Zn1   S    
C1    O1    A    
O9    Zn2   S    
C10   H3    S    
C23   C27   S    
C19   C27   S    
C14   H10   S    
C18   O10   A    
O6    Zn1   S    
C14   C17   S    
O5    Zn2   S    
C20   C29   S    
C24   H18   S    
O1    Zn1   S    
C22   C31   T    
C5    H27   S    
C29   H16   S    
C27   C31   S    
C16   O9    A    
C17   H14   S    
C15   H9    S    
C3    C8    S    
C13   H15   S    
H24   O4    S    
C1    O5    A    
C1    C6    S    
C11   H6    S    
C32   H19   S    
C5    C9    S    
O8    Zn1   S    
C8    H25   S    
C13   N1    S    
C15   N2    S    
C12   C20   S    
C8    H2    S    
C23   C28   S    
C11   H7    S    
C20   H1    S    
C7    C16   S    
C11   N2    S    
C13   C15   S    
C3    H30   S    
C7    C9    S    
C12   C30   S    
C18   C22   S    
C25   O2    S    
C2    H21   S    
H22   O2    S    
C21   C30   T    
C12   C24   S    
C26   C28   S    
C25   O12   D    
C26   O4    S    
C9    H28   S    
C19   C24   S    
C4    C21   S    
C14   N1    S    
O7    Zn2   S    
O11   Zn2   S    
C15   C25   S    
C10   C11   S    
C23   C24   S    
C4    O7    A    
C14   H11   S    
N1    Zn2   S    
