data_mof_unit_24549.cif
_audit_creation_date              2012-12-11T14:29:42-0500
_audit_creation_method            fapswitch 2.2
_symmetry_space_group_name_H-M    P1
_symmetry_Int_Tables_number       1
_space_group_crystal_system       triclinic
_cell_length_a                    6.940607
_cell_length_b                    14.77527
_cell_length_c                    16.2815
_cell_angle_alpha                 90.363469
_cell_angle_beta                  90.125604
_cell_angle_gamma                 90.162931
_cell_volume                      1669.61269317

loop_
_atom_site_label
_atom_site_type_symbol
_atom_type_description
_atom_site_fract_x
_atom_site_fract_y
_atom_site_fract_z
_atom_type_partial_charge
O1    O     O_R   0.494400 0.416610 0.413880 -0.554835
O2    O     O_R   0.823920 0.406790 0.585520 -0.512035
O3    O     O_R   0.994250 0.583390 0.586120 -0.543133
C1    C     C_R   0.653925 0.379222 0.607918 0.644313
O4    O     O_R   0.824110 0.405730 0.414490 -0.516162
O5    O     O_R   0.994440 0.582310 0.413870 -0.520640
C2    C     C_R   0.655270 0.383123 0.387133 0.757944
O6    O     O_R   0.494210 0.417690 0.586130 -0.545214
O7    O     O_3   0.660810 0.557940 0.500000 -0.384618
V1    V     V_3+5 0.935650 0.489250 0.500000 1.562372
O8    O     O_R   0.324160 0.593210 0.414480 -0.555983
C3    C     C_R   0.155567 0.613104 0.384869 0.770171
O9    O     O_R   0.323970 0.594270 0.585510 -0.531720
C4    C     C_R   0.155755 0.618525 0.612373 0.874959
V2    V     V_3+5 0.435660 0.510750 0.500000 1.470840
O10   O     O_3   0.160630 0.442060 0.500000 -0.369915
C5    C     C_R   0.104627 0.563261 0.782121 0.377116
C6    C     C_R   0.023490 0.534367 0.856160 0.207652
C7    C     C_R   0.997974 0.597227 0.919889 0.258412
C8    C     C_R   0.064634 0.686200 0.909135 0.296275
C9    C     C_R   0.097556 0.720487 0.828508 -0.163515
C10   C     C_R   0.114447 0.657049 0.762773 -0.172101
C11   C     C_R   0.118541 0.814761 0.813204 -0.063989
C12   C     C_R   0.145388 0.846298 0.730891 -0.084555
C13   C     C_R   0.171105 0.781969 0.665429 -0.153961
C14   C     C_R   0.151146 0.686960 0.681157 -0.083480
C15   C     C_R   0.148068 0.941115 0.712146 0.259251
C16   C     C_R   0.165635 0.970658 0.630362 0.175009
C17   C     C_R   0.190133 0.907006 0.566795 0.215897
C18   C     C_R   0.213963 0.815431 0.585386 0.353773
C19   C     C_2   0.994949 0.725542 0.294954 0.245697
C20   C     C_2   0.148140 0.671041 0.310006 0.147242
C21   C     C_2   0.974455 0.775857 0.215160 0.331573
C22   C     C_2   0.121255 0.826457 0.185937 -0.280880
H1    H     H_    0.256911 0.828321 0.219328 0.127259
C23   C     C_2   0.750152 0.190008 0.765743 -0.247618
C24   C     C_2   0.620828 0.191423 0.827145 0.330250
H2    H     H_    0.846564 0.132761 0.759070 0.113670
C25   C     C_2   0.780644 0.270865 0.711658 0.480241
C26   C     C_2   0.637753 0.296586 0.660239 0.127733
C27   C     C_2   0.777573 0.211486 0.214194 0.154560
C28   C     C_2   0.614581 0.188729 0.172238 0.242574
C29   C     C_2   0.784395 0.292743 0.270651 0.302878
C30   C     C_2   0.644914 0.308336 0.326772 -0.287017
H3    H     H_    0.521633 0.263324 0.331087 0.136406
O11   O     O_R   0.770210 0.079270 0.910680 -0.549899
O12   O     O_R   0.440150 0.091160 0.082270 -0.535155
O13   O     O_R   0.269970 0.914530 0.082860 -0.556853
C31   C     C_R   0.609038 0.114290 0.109824 0.701199
O14   O     O_R   0.440480 0.090100 0.911240 -0.537657
O15   O     O_R   0.270310 0.913460 0.910610 -0.537323
C32   C     C_R   0.609619 0.113898 0.885116 0.621598
O16   O     O_R   0.769870 0.080340 0.082930 -0.523385
O17   O     O_3   0.603660 0.938980 0.996790 -0.376517
V3    V     V_3+5 0.328750 0.007610 0.996740 1.488222
O18   O     O_R   0.940600 0.902510 0.911180 -0.538352
C33   C     C_R   0.109142 0.880218 0.883241 0.896310
O19   O     O_R   0.940270 0.903570 0.082200 -0.500809
C34   C     C_R   0.108631 0.884769 0.112411 0.838505
V4    V     V_3+5 0.828770 0.986010 0.996670 1.531137
O20   O     O_3   0.103730 0.054750 0.996710 -0.373056
O21   O     O_3   0.194589 0.931463 0.485047 -0.627170
H4    H     H_    0.114205 0.986079 0.477562 0.300447
O22   O     O_3   0.292758 0.664609 0.251791 -0.674620
H5    H     H_    0.386133 0.617794 0.269042 0.283921
O23   O     O_3   0.801116 0.773597 0.173141 -0.638631
H6    H     H_    0.716328 0.728231 0.199545 0.290389
O24   O     O_3   0.501459 0.266745 0.833685 -0.559486
C35   C     C_3   0.464775 0.290461 0.916054 -0.282873
H7    H     H_    0.595242 0.284512 0.955630 0.105342
H8    H     H_    0.343565 0.249389 0.939940 0.154579
H9    H     H_    0.418708 0.362222 0.918327 0.172994
O25   O     O_3   0.945373 0.324781 0.717085 -0.549417
C36   C     C_3   0.099569 0.279579 0.754819 -0.036279
H10   H     H_    0.134676 0.215989 0.721519 0.141803
H11   H     H_    0.069950 0.266757 0.820828 0.136264
H12   H     H_    0.227139 0.323917 0.751448 0.242137
O26   O     O_3   0.476701 0.241465 0.653648 -0.656369
H13   H     H_    0.393657 0.263658 0.608546 0.295343
O27   O     O_3   0.944396 0.162542 0.200838 -0.644386
H14   H     H_    0.043208 0.182922 0.240992 0.319348
O28   O     O_3   0.444632 0.234329 0.189052 -0.566161
C37   C     C_3   0.413172 0.301008 0.129004 -0.272215
H15   H     H_    0.323035 0.272274 0.079047 0.154711
H16   H     H_    0.548369 0.331023 0.103933 0.111209
H17   H     H_    0.331360 0.357356 0.157423 0.174104
O29   O     O_3   0.937754 0.352472 0.266013 -0.639385
H18   H     H_    0.013730 0.337243 0.216416 0.296073
O30   O     O_3   0.203515 0.499839 0.736284 -0.528437
C38   C     C_3   0.397227 0.500779 0.763969 -0.142699
H19   H     H_    0.468266 0.437734 0.744213 0.166958
H20   H     H_    0.410755 0.502745 0.832245 0.100654
H21   H     H_    0.477011 0.558775 0.737105 0.111405
O31   O     O_3   0.992992 0.442791 0.866863 -0.616110
H22   H     H_    0.929234 0.432139 0.920286 0.317707
O32   O     O_3   0.948026 0.567767 0.997465 -0.538351
C39   C     C_3   0.760327 0.598383 0.014939 -0.187964
H23   H     H_    0.654610 0.571804 0.969129 0.084611
H24   H     H_    0.754070 0.673589 0.017835 0.179170
H25   H     H_    0.717384 0.572541 0.076068 0.162961
O33   O     O_3   0.114378 0.735033 0.978677 -0.549233
C40   C     C_3   0.304744 0.710457 0.000199 -0.171241
H26   H     H_    0.408800 0.730666 0.951651 0.100486
H27   H     H_    0.317035 0.636692 0.012643 0.144821
H28   H     H_    0.347272 0.745740 0.057546 0.168747
O34   O     O_3   0.127115 0.004833 0.774014 -0.652269
H29   H     H_    0.181394 0.063660 0.756775 0.320632
O35   O     O_3   0.160491 0.062497 0.614838 -0.651263
H30   H     H_    0.242346 0.075531 0.566554 0.305942
O36   O     O_3   0.276561 0.759160 0.522921 -0.553222
C41   C     C_3   0.478262 0.770223 0.515167 -0.106056
H31   H     H_    0.554298 0.748867 0.572105 0.101916
H32   H     H_    0.518764 0.840973 0.499630 0.143628
H33   H     H_    0.530002 0.726986 0.464078 0.183390
O37   O     O_3   0.851120 0.732654 0.353350 -0.656427
H34   H     H_    0.758837 0.779746 0.335524 0.287909

loop_
_geom_bond_atom_site_label_1
_geom_bond_atom_site_label_2
_ccdc_geom_bond_type
O13   V3    S    
O29   H18   S    
O33   C40   S    
O25   C36   S    
C41   H31   S    
C28   O28   S    
C12   C15   A    
C1    O6    A    
C27   O27   S    
C39   H23   S    
O12   C31   A    
O17   V4    S    
O35   H30   S    
O21   H4    S    
C36   H11   S    
C18   O36   S    
C23   C24   D    
C22   H1    S    
O5    C3    A    
O34   H29   S    
O19   V4    S    
O37   H34   S    
C24   O24   S    
O11   C32   A    
O18   C33   A    
C40   H28   S    
C6    C7    A    
C27   C28   D    
C35   H8    S    
O36   C41   S    
O17   V3    S    
O8    V2    S    
C1    C26   S    
O24   C35   S    
C36   H12   S    
O14   C32   A    
C11   C12   A    
C19   C21   S    
O15   C33   A    
O7    V1    S    
O23   H6    S    
O9    C4    A    
C3    C20   S    
C27   C29   S    
C35   H7    S    
C19   O37   S    
C39   H24   S    
O16   V4    S    
C21   O23   S    
C21   C22   D    
C23   C25   S    
C36   H10   S    
C40   H26   S    
C5    O30   S    
C12   C13   A    
C20   O22   S    
C25   C26   D    
O4    C2    A    
C24   C32   S    
O26   H13   S    
C8    O33   S    
C15   O34   S    
C13   C14   A    
O18   V4    S    
V4    O20   S    
C35   H9    S    
O2    C1    A    
C29   C30   D    
C17   C18   A    
C38   H20   S    
C37   H15   S    
O32   C39   S    
C5    C6    A    
O13   C34   A    
C41   H32   S    
C2    C30   S    
C4    C14   S    
C40   H27   S    
O3    C4    A    
O1    V2    S    
C37   H16   S    
O6    V2    S    
C9    C11   A    
C22   C34   S    
C6    O31   S    
C26   O26   S    
O2    V1    S    
C39   H25   S    
C30   H3    S    
C38   H21   S    
O12   V3    S    
C13   C18   A    
C11   C33   S    
C17   O21   S    
C16   C17   A    
O11   V4    S    
O1    C2    A    
C19   C20   D    
C5    C10   A    
O27   H14   S    
O5    V1    S    
O8    C3    A    
O14   V3    S    
C29   O29   S    
O22   H5    S    
C7    C8    A    
O9    V2    S    
O19   C34   A    
O4    V1    S    
O3    V1    S    
V1    O10   S    
C38   H19   S    
C16   O35   S    
C31   O16   A    
V3    O20   S    
C23   H2    S    
C41   H33   S    
O15   V3    S    
C25   O25   S    
O7    V2    S    
O31   H22   S    
C28   C31   S    
C37   H17   S    
C8    C9    A    
O28   C37   S    
C10   C14   A    
C15   C16   A    
O30   C38   S    
C9    C10   A    
C7    O32   S    
V2    O10   S    
