data_mof_unit_28797.cif
_audit_creation_date              2012-12-10T17:47:43-0500
_audit_creation_method            fapswitch 2.2
_symmetry_space_group_name_H-M    P1
_symmetry_Int_Tables_number       1
_space_group_crystal_system       triclinic
_cell_length_a                    10.855664
_cell_length_b                    10.751099
_cell_length_c                    9.972748
_cell_angle_alpha                 89.935366
_cell_angle_beta                  93.467059
_cell_angle_gamma                 94.918823
_cell_volume                      1157.50400006

loop_
_atom_site_label
_atom_site_type_symbol
_atom_type_description
_atom_site_fract_x
_atom_site_fract_y
_atom_site_fract_z
_atom_type_partial_charge
C1    C     C_R   0.512601 0.261841 0.501622 1.020682
C2    C     C_R   0.550472 0.063693 0.625846 -0.005537
C3    C     C_R   0.523147 0.129090 0.504567 -0.176053
C4    C     C_R   0.257158 0.503094 0.496388 0.887694
C5    C     C_R   0.479639 0.064867 0.386796 -0.209852
C6    C     C_R   0.458963 0.937562 0.385573 0.400824
C7    C     C_R   0.477492 0.872098 0.505749 -0.211409
C8    C     C_R   0.332504 0.341536 0.136023 -0.156275
C9    C     C_R   0.233337 0.275882 0.069411 -0.132509
C10   C     C_R   0.211151 0.291099 0.934334 0.295455
C11   C     C_R   0.308876 0.341413 0.858536 -0.129374
C12   C     C_3   0.877221 0.501251 0.503115 0.000551
C13   C     C_R   0.411288 0.420273 0.923808 0.045522
C14   C     C_R   0.415218 0.421490 0.068593 0.098180
C15   C     C_R   0.580535 0.577142 0.075470 0.466120
C16   C     C_R   0.489526 0.738930 0.500421 0.911674
C17   C     C_R   0.581341 0.575703 0.933194 -0.136968
C18   C     C_R   0.741858 0.502936 0.502928 0.878447
C19   C     C_3   0.074887 0.472070 0.635066 -0.377901
C20   C     C_3   0.934547 0.458487 0.637933 -0.298274
C21   C     C_3   0.077330 0.636278 0.462299 -0.389873
C22   C     C_3   0.051649 0.405468 0.383401 -0.184185
C23   C     C_3   0.935572 0.635798 0.474254 -0.415455
C24   C     C_3   0.118610 0.503189 0.490650 0.011928
C25   C     C_2   0.320499 0.247653 0.755094 1.036188
C26   C     C_2   0.077218 0.435017 0.235715 0.854104
C27   C     C_2   0.089735 0.274130 0.419168 0.936326
C28   C     C_2   0.830110 0.288550 0.371014 0.964063
C29   C     C_3   0.908398 0.413597 0.387202 -0.262694
C30   C     C_R   0.612931 0.116557 0.746382 0.456434
C31   C     C_R   0.607528 0.052032 0.867893 -0.080923
C32   C     C_R   0.538062 0.938611 0.874428 -0.137506
C33   C     C_R   0.484557 0.883008 0.757223 -0.135469
C34   C     C_R   0.504426 0.937732 0.629595 -0.018462
Cl1   Cl    Cl    0.709834 0.254969 0.756373 -0.569342
Cl2   Cl    Cl    0.396682 0.867522 0.233110 -0.565087
Cl3   Cl    Cl    0.685814 0.684574 0.163886 -0.591792
Cl4   Cl    Cl    0.075305 0.206814 0.862190 -0.534378
H1    H     H_    0.112100 0.546971 0.707436 0.191720
H2    H     H_    0.337811 0.334197 0.241817 0.247055
H3    H     H_    0.169917 0.214384 0.122950 0.257474
H4    H     H_    0.647448 0.638070 0.883387 0.171579
H5    H     H_    0.905496 0.359544 0.655520 0.311999
H6    H     H_    0.905708 0.514189 0.722865 0.199429
H7    H     H_    0.125784 0.703853 0.536461 0.173686
H8    H     H_    0.916841 0.700050 0.556658 0.193120
H9    H     H_    0.321406 0.063237 0.728320 0.347574
H10   H     H_    0.014129 0.406093 0.042602 0.373856
H11   H     H_    0.071218 0.122293 0.538503 0.381908
H12   H     H_    0.876766 0.465643 0.296019 0.192336
H13   H     H_    0.763910 0.128170 0.454678 0.350560
H14   H     H_    0.102581 0.672089 0.362683 0.249346
H15   H     H_    0.892995 0.672770 0.379779 0.234107
H16   H     H_    0.457016 0.113789 0.294646 0.211620
H17   H     H_    0.653577 0.092329 0.959120 0.205935
H18   H     H_    0.526297 0.893117 0.970215 0.220552
H19   H     H_    0.423290 0.799671 0.769323 0.188086
H20   H     H_    0.110628 0.386033 0.673996 0.266804
N1    N     N_R   0.498810 0.498800 0.142780 -0.135508
N2    N     N_R   0.498760 0.498720 0.857170 -0.128868
O1    O     O_R   0.500000 0.316780 0.614690 -0.587427
O2    O     O_R   0.351539 0.130083 0.796974 -0.797656
O3    O     O_2   0.147682 0.523280 0.203691 -0.592877
O4    O     O_R   0.005232 0.367517 0.134682 -0.749264
O5    O     O_2   0.169295 0.228288 0.359063 -0.664458
O6    O     O_R   0.039308 0.207777 0.526393 -0.715893
O7    O     O_2   0.789585 0.253653 0.258914 -0.563061
O8    O     O_R   0.804152 0.213683 0.481717 -0.758614
O9    O     O_R   0.499990 0.316750 0.385360 -0.658836
O10   O     O_R   0.314800 0.499990 0.614670 -0.630636
O11   O     O_R   0.314790 0.499970 0.385330 -0.592228
O12   O     O_R   0.500010 0.683250 0.614640 -0.657851
O13   O     O_R   0.500000 0.683220 0.385310 -0.516493
O14   O     O_R   0.685210 0.500030 0.614670 -0.587307
O15   O     O_R   0.685200 0.500010 0.385330 -0.603816
O16   O     O_2   0.275654 0.260052 0.641500 -0.631583
Zn1   Zn    Zn3+2 0.500010 0.500020 0.653130 0.998425
Zn2   Zn    Zn3+2 0.499990 0.499980 0.346870 1.060330

loop_
_geom_bond_atom_site_label_1
_geom_bond_atom_site_label_2
_ccdc_geom_bond_type
C18   O15   A    
C22   C29   S    
C12   C29   S    
C19   C20   S    
C16   O12   A    
H9    O2    S    
C4    O10   A    
C13   N2    A    
C14   N1    A    
C12   C23   S    
C30   Cl1   S    
C28   C29   S    
C28   O8    S    
C30   C31   A    
C4    C24   S    
H10   O4    S    
C11   C25   S    
C26   O4    S    
C17   H4    S    
C15   Cl3   S    
O1    Zn1   S    
C8    C9    A    
O14   Zn1   S    
C33   H19   S    
O13   Zn2   S    
O11   Zn2   S    
C9    C10   A    
H13   O8    S    
C2    C34   A    
C18   O14   A    
C23   H8    S    
C13   C14   A    
O10   Zn1   S    
O9    Zn2   S    
N1    Zn2   S    
C20   H6    S    
C23   H15   S    
C21   H7    S    
C29   H12   S    
C19   H20   S    
N2    Zn1   S    
H11   O6    S    
C16   O13   A    
C5    H16   S    
C28   O7    D    
C1    O9    A    
C1    C3    S    
C26   O3    D    
O12   Zn1   S    
C27   O5    D    
C31   C32   A    
C12   C20   S    
C33   C34   A    
C19   H1    S    
C7    C16   S    
C22   C27   S    
C21   C23   S    
C7    C34   A    
C22   C24   S    
C20   H5    S    
C15   C17   A    
C8    C14   A    
C15   N1    A    
C3    C5    A    
C1    O1    A    
C6    C7    A    
C9    H3    S    
C2    C30   A    
C10   Cl4   S    
C25   O16   D    
C32   C33   A    
C2    C3    A    
C27   O6    S    
C11   C13   A    
C5    C6    A    
C6    Cl2   S    
C19   C24   S    
C25   O2    S    
C4    O11   A    
O15   Zn2   S    
C10   C11   A    
C17   N2    A    
C22   C26   S    
C21   C24   S    
C12   C18   S    
C8    H2    S    
C31   H17   S    
C32   H18   S    
C21   H14   S    
