data_mof_unit_20365.cif
_audit_creation_date              2012-12-11T16:24:01-0500
_audit_creation_method            fapswitch 2.2
_symmetry_space_group_name_H-M    P1
_symmetry_Int_Tables_number       1
_space_group_crystal_system       triclinic
_cell_length_a                    14.747526
_cell_length_b                    14.765978
_cell_length_c                    33.271481
_cell_angle_alpha                 95.99517
_cell_angle_beta                  96.149299
_cell_angle_gamma                 61.184533
_cell_volume                      6299.98433559

loop_
_atom_site_label
_atom_site_type_symbol
_atom_type_description
_atom_site_fract_x
_atom_site_fract_y
_atom_site_fract_z
_atom_type_partial_charge
C1    C     C_R   0.390969 0.699625 0.446114 0.546010
C2    C     C_R   0.327875 0.342974 0.309542 0.041619
C3    C     C_R   0.408701 0.260423 0.329642 -0.108100
C4    C     C_R   0.429204 0.271334 0.371230 -0.124755
C5    C     C_R   0.388565 0.240370 0.166888 -0.122011
C6    C     C_R   0.379965 0.225457 0.125016 -0.153985
C7    C     C_R   0.214381 0.384891 0.122048 0.141589
C8    C     C_R   0.224635 0.398300 0.164568 -0.078135
C9    C     C_R   0.309420 0.324637 0.186679 0.011821
C10   C     C_1   0.313394 0.332847 0.229955 -0.016166
C11   C     C_1   0.318188 0.337734 0.266276 -0.014252
C12   C     C_R   0.405678 0.386210 0.434104 0.544423
C13   C     C_R   0.291307 0.294201 0.102225 0.024819
C14   C     C_R   0.757441 0.372810 0.410411 0.021921
C15   C     C_R   0.791532 0.434124 0.394047 -0.129915
C16   C     C_R   0.822089 0.412832 0.354522 -0.119023
C17   C     C_R   0.819288 0.329756 0.330723 0.035558
C18   C     C_R   0.794751 0.262640 0.348368 -0.120640
C19   C     C_R   0.763973 0.284052 0.387945 -0.131420
C20   C     C_R   0.839129 0.310486 0.205443 0.347678
C21   C     C_R   0.831510 0.319978 0.286914 0.347649
C22   C     C_R   0.839310 0.389404 0.142958 -0.123292
C23   C     C_R   0.700884 0.409954 0.447569 0.546154
C24   C     C_R   0.867942 0.378620 0.103551 -0.128039
C25   C     C_R   0.909799 0.197899 0.099405 -0.131823
C26   C     C_R   0.880924 0.208770 0.138909 -0.119743
C27   C     C_R   0.850158 0.303413 0.161630 0.035571
C28   C     C_R   0.908187 0.281582 0.082159 0.023782
C29   C     C_R   0.370862 0.754725 0.409112 0.021861
C30   C     C_R   0.276658 0.784626 0.385934 -0.130365
C31   C     C_R   0.266410 0.812815 0.346418 -0.119821
C32   C     C_R   0.350061 0.811878 0.329447 0.035052
C33   C     C_R   0.440729 0.791593 0.353894 -0.120016
C34   C     C_R   0.393322 0.701417 0.561207 0.543133
C35   C     C_R   0.451087 0.763162 0.393456 -0.130831
C36   C     C_R   0.343237 0.829004 0.204413 0.347983
C37   C     C_R   0.345888 0.822372 0.285690 0.348412
C38   C     C_R   0.258278 0.832120 0.135337 -0.120446
C39   C     C_R   0.238629 0.862581 0.095766 -0.132005
C40   C     C_R   0.381584 0.901753 0.104872 -0.132313
C41   C     C_R   0.401300 0.871171 0.144499 -0.121699
C42   C     C_R   0.336554 0.840924 0.160653 0.035804
C43   C     C_R   0.296849 0.902484 0.080876 0.022056
C44   C     C_R   0.370269 0.368453 0.584643 0.022402
C45   C     C_R   0.407165 0.388774 0.548952 0.545445
C46   C     C_R   0.282890 0.447461 0.603256 -0.131592
C47   C     C_R   0.262147 0.437178 0.641959 -0.126688
C48   C     C_R   0.328618 0.347847 0.662590 0.033010
C49   C     C_R   0.410102 0.265170 0.642399 -0.121734
C50   C     C_R   0.430697 0.275336 0.603752 -0.130826
C51   C     C_R   0.314402 0.344969 0.787282 0.345557
C52   C     C_R   0.320293 0.344551 0.706063 0.345200
C53   C     C_R   0.216452 0.402467 0.849960 -0.129845
C54   C     C_R   0.206425 0.383709 0.889046 -0.134248
C55   C     C_R   0.384865 0.247131 0.891999 -0.135016
C56   C     C_R   0.701578 0.413427 0.562634 0.545028
C57   C     C_R   0.394834 0.265807 0.853014 -0.124093
C58   C     C_R   0.309253 0.340149 0.830912 0.032651
C59   C     C_R   0.289095 0.302393 0.909566 0.021421
C60   C     C_R   0.756537 0.379007 0.602483 -0.005363
C61   C     C_R   0.790973 0.440721 0.627487 -0.118732
C62   C     C_R   0.824541 0.419145 0.668174 0.154083
C63   C     C_R   0.821263 0.335958 0.684024 0.064203
C64   C     C_R   0.793203 0.270765 0.658595 -0.149638
C65   C     C_R   0.761752 0.291585 0.618079 -0.139502
C66   C     C_R   0.890569 0.211578 0.822304 -0.113140
C67   C     C_R   0.369163 0.365354 0.392990 0.019956
C68   C     C_R   0.915906 0.200939 0.863850 -0.125466
C69   C     C_R   0.875514 0.381359 0.872845 -0.127933
C70   C     C_R   0.850134 0.391766 0.831360 -0.110113
C71   C     C_R   0.860537 0.306202 0.805917 0.037430
C72   C     C_1   0.846950 0.314292 0.762859 -0.020831
C73   C     C_1   0.836389 0.322821 0.726863 0.003455
C74   C     C_R   0.912089 0.284882 0.889339 0.018346
C75   C     C_R   0.375500 0.755173 0.601840 0.020040
C76   C     C_R   0.278992 0.792319 0.618342 -0.125884
C77   C     C_R   0.268205 0.821664 0.659509 -0.112776
C78   C     C_R   0.283324 0.445143 0.372946 -0.126093
C79   C     C_R   0.353454 0.814575 0.684559 0.040550
C80   C     C_R   0.448002 0.783968 0.668029 -0.110628
C81   C     C_R   0.458998 0.754734 0.626806 -0.128164
C82   C     C_R   0.370688 0.918535 0.828876 -0.127642
C83   C     C_R   0.352822 0.944587 0.869643 -0.155208
C84   C     C_R   0.255272 0.848932 0.866927 0.143740
C85   C     C_R   0.273163 0.824609 0.825271 -0.078731
C86   C     C_R   0.328522 0.861274 0.806440 0.006627
C87   C     C_1   0.338475 0.844250 0.763561 -0.024827
C88   C     C_1   0.345642 0.831474 0.727532 -0.021671
C89   C     C_R   0.263136 0.434036 0.331323 -0.109098
C90   C     C_R   0.291960 0.914109 0.888774 0.022589
C91   C     C_R   0.963556 0.264205 0.045566 0.547211
C92   C     C_R   0.272764 0.259817 0.060083 0.547188
C93   C     C_R   0.259234 0.959603 0.043769 0.542469
C94   C     C_R   0.962917 0.267568 0.930640 0.540720
C95   C     C_R   0.270790 0.263996 0.945301 0.540659
C96   C     C_R   0.256755 0.964214 0.929145 0.536151
Cr1   Cr    Cr6+3 0.576280 0.580550 0.506370 1.011731
Cr2   Cr    Cr6+3 0.346780 0.572400 0.496520 1.012009
Cr3   Cr    Cr6+3 0.576960 0.347070 0.497150 1.012235
Cr4   Cr    Cr6+3 0.087320 0.083240 0.984860 1.019425
Cr5   Cr    Cr6+3 0.087720 0.316210 0.996740 1.021418
Cr6   Cr    Cr6+3 0.317350 0.090340 0.995890 1.009150
H1    H     H_    0.440256 0.156152 0.110815 0.136141
H2    H     H_    0.738934 0.234852 0.399909 0.129436
H3    H     H_    0.864559 0.444851 0.090816 0.130027
H4    H     H_    0.842748 0.464728 0.341994 0.134731
H5    H     H_    0.793104 0.197270 0.330898 0.134421
H6    H     H_    0.813742 0.463961 0.159437 0.133019
H7    H     H_    0.940074 0.122242 0.083517 0.130718
H8    H     H_    0.888879 0.141443 0.152386 0.136315
H9    H     H_    0.213000 0.780063 0.397358 0.130175
H10   H     H_    0.524396 0.741304 0.410746 0.129665
H11   H     H_    0.173663 0.860965 0.077769 0.128092
H12   H     H_    0.455126 0.183735 0.183981 0.124719
H13   H     H_    0.194698 0.830227 0.328562 0.136123
H14   H     H_    0.506041 0.791563 0.341791 0.135451
H15   H     H_    0.208429 0.806982 0.146689 0.133060
H16   H     H_    0.428316 0.931453 0.094090 0.128274
H17   H     H_    0.463099 0.877467 0.163142 0.133271
H18   H     H_    0.234355 0.519881 0.589093 0.128666
H19   H     H_    0.497787 0.212576 0.589952 0.129052
H20   H     H_    0.131766 0.428080 0.901954 0.128388
H21   H     H_    0.197951 0.501682 0.656577 0.127439
H22   H     H_    0.461449 0.194432 0.657220 0.131971
H23   H     H_    0.459010 0.189580 0.312878 0.117755
H24   H     H_    0.149587 0.461331 0.833860 0.126578
H25   H     H_    0.450349 0.184891 0.907299 0.129107
H26   H     H_    0.468155 0.218039 0.839467 0.133143
H27   H     H_    0.944401 0.125477 0.875520 0.138984
H28   H     H_    0.898557 0.144973 0.802789 0.112471
H29   H     H_    0.791031 0.206369 0.670554 0.114508
H30   H     H_    0.735726 0.242518 0.599653 0.136160
H31   H     H_    0.788238 0.507967 0.615916 0.120115
H32   H     H_    0.826547 0.465438 0.818911 0.119371
H33   H     H_    0.871815 0.447424 0.891602 0.126864
H34   H     H_    0.495652 0.208464 0.385816 0.129168
H35   H     H_    0.381883 0.994165 0.885595 0.142461
H36   H     H_    0.414118 0.946614 0.814475 0.126023
H37   H     H_    0.514352 0.778485 0.687272 0.113384
H38   H     H_    0.534440 0.725968 0.615088 0.127268
H39   H     H_    0.213264 0.793605 0.599923 0.126877
H40   H     H_    0.243578 0.778399 0.806973 0.113237
H41   H     H_    0.194611 0.845673 0.672093 0.109749
H42   H     H_    0.235705 0.518499 0.388849 0.128685
H43   H     H_    0.166344 0.464696 0.180879 0.114344
H44   H     H_    0.200322 0.498229 0.315869 0.115761
H45   H     H_    0.788595 0.502312 0.410830 0.130083
N1    N     N_R   0.834095 0.393711 0.228674 -0.231308
N2    N     N_R   0.238543 0.419911 0.725757 -0.251922
N3    N     N_R   0.398938 0.269815 0.727785 -0.234794
N4    N     N_R   0.395888 0.269825 0.767526 -0.236238
N5    N     N_R   0.830023 0.398514 0.268562 -0.230142
N6    N     N_R   0.836486 0.236576 0.263720 -0.230279
N7    N     N_R   0.840971 0.231583 0.223753 -0.229955
N8    N     N_R   0.266755 0.822506 0.221104 -0.231184
N9    N     N_R   0.268247 0.818889 0.260903 -0.230501
N10   N     N_R   0.422710 0.828538 0.269038 -0.231047
N11   N     N_R   0.421033 0.832506 0.229174 -0.231290
N12   N     N_R   0.235300 0.419697 0.765585 -0.249546
O1    O     O_R   0.679450 0.499830 0.463150 -0.519577
O2    O     O_R   0.356040 0.477400 0.534170 -0.502038
O3    O     O_R   0.495910 0.323070 0.537100 -0.520446
O4    O     O_R   0.663920 0.359620 0.542290 -0.500423
O5    O     O_3   0.500010 0.500010 0.500010 -0.235464
O6    O     O_R   0.170070 0.978950 0.027680 -0.522147
O7    O     O_R   0.001760 0.175230 0.026640 -0.503326
O8    O     O_R   0.984760 0.333570 0.037150 -0.505552
O9    O     O_R   0.183410 0.309240 0.041890 -0.472129
O10   O     O_R   0.340240 0.172500 0.045430 -0.525949
O11   O     O_R   0.309670 0.000990 0.032050 -0.501963
O12   O     O_R   0.480650 0.664000 0.464630 -0.501279
O13   O     O_R   0.168330 0.982130 0.939200 -0.496518
O14   O     O_R   0.000140 0.178170 0.944610 -0.499954
O15   O     O_R   0.983010 0.336750 0.948660 -0.521941
O16   O     O_R   0.181800 0.312190 0.959860 -0.505452
O17   O     O_R   0.338500 0.175680 0.956950 -0.522039
O18   O     O_R   0.308050 0.003930 0.950020 -0.507649
O19   O     O_3   0.164130 0.163270 0.992500 -0.238616
O20   O     O_R   0.323930 0.675950 0.455370 -0.520244
O21   O     O_R   0.354700 0.475360 0.451930 -0.502081
O22   O     O_R   0.494470 0.320860 0.448390 -0.519488
O23   O     O_R   0.662580 0.357570 0.460050 -0.501891
O24   O     O_R   0.680900 0.502040 0.551870 -0.520703
O25   O     O_R   0.481990 0.666040 0.546870 -0.502227
O26   O     O_R   0.325370 0.678160 0.544080 -0.519468
N13   N     N_2   0.854944 0.485129 0.693519 -0.524918
H46   H     H_    0.822633 0.559445 0.684119 0.241305
C97   C     C_3   0.965638 0.441195 0.702852 -0.287964
H47   H     H_    0.006022 0.427962 0.674752 0.145399
H48   H     H_    0.996682 0.366831 0.717521 0.168830
H49   H     H_    0.981876 0.495577 0.724117 0.160097
N14   N     N_2   0.200915 0.810290 0.887164 -0.501541
H50   H     H_    0.227446 0.793280 0.916817 0.258369
C98   C     C_3   0.168934 0.738787 0.865694 -0.311435
H51   H     H_    0.127626 0.718426 0.886163 0.140530
H52   H     H_    0.237703 0.666543 0.855584 0.148342
H53   H     H_    0.114313 0.775406 0.839424 0.152379
N15   N     N_2   0.127967 0.459873 0.098953 -0.489797
H54   H     H_    0.147521 0.487646 0.075952 0.248415
C99   C     C_3   0.035313 0.534383 0.118562 -0.304049
H55   H     H_    0.972191 0.574358 0.095154 0.139499
H56   H     H_    0.049967 0.593364 0.137316 0.132535
H57   H     H_    0.009257 0.494654 0.137495 0.158807

loop_
_geom_bond_atom_site_label_1
_geom_bond_atom_site_label_2
_ccdc_geom_bond_type
Cr6   O11   S    
C81   H38   S    
C98   H52   S    
C87   C88   T    
N10   N11   A    
C55   C59   A    
C5    H12   S    
Cr4   O13   S    
C41   C42   A    
C74   C94   S    
C91   O7    A    
C36   C42   S    
C8    H43   S    
C45   O3    A    
Cr5   O9    S    
Cr4   O19   S    
C65   H30   S    
C57   H26   S    
C61   H31   S    
C7    C8    A    
C85   C86   A    
C25   C28   A    
C67   C78   A    
C56   O4    A    
C26   C27   A    
C29   C30   A    
C84   C90   A    
C97   H49   S    
C91   O8    A    
C40   H16   S    
C38   C42   A    
Cr2   O26   S    
C69   C70   A    
C99   H57   S    
C5    C6    A    
C98   H53   S    
C66   C68   A    
C68   C74   A    
C15   C16   A    
Cr4   O7    S    
C18   C19   A    
C21   N5    A    
C37   N10   A    
Cr5   O8    S    
C95   O16   A    
C18   H5    S    
Cr3   O23   S    
C45   O2    A    
Cr5   O19   S    
C43   C93   S    
C38   H15   S    
C40   C43   A    
C47   C48   A    
C97   H48   S    
C99   H55   S    
C39   H11   S    
C20   N1    A    
C34   O25   A    
C70   C71   A    
C96   O18   A    
C9    C10   S    
C26   H8    S    
C16   H4    S    
C34   C75   S    
C4    H34   S    
C76   H39   S    
Cr6   O10   S    
C98   H51   S    
C54   H20   S    
N13   H46   S    
C93   O6    A    
C69   H33   S    
C95   O17   A    
N13   C97   S    
C37   N9    A    
Cr5   O15   S    
C68   H27   S    
C50   H19   S    
C59   C95   S    
C2    C11   S    
C31   H13   S    
C79   C88   S    
C44   C46   A    
Cr1   O24   S    
Cr4   O14   S    
C54   C59   A    
C77   C79   A    
C78   C89   A    
C89   H44   S    
C12   C67   S    
C93   O11   A    
C32   C37   S    
C63   C64   A    
Cr1   O1    S    
C24   C28   A    
C38   C39   A    
C84   C85   A    
C23   O23   A    
C53   H24   S    
C86   C87   S    
C16   C17   A    
C39   C43   A    
C63   C73   S    
C25   C26   A    
C82   C86   A    
C49   H22   S    
C1    O12   A    
C17   C21   S    
C56   C60   S    
C32   C33   A    
C60   C61   A    
C41   H17   S    
N14   C98   S    
C14   C23   S    
C2    C89   A    
C75   C76   A    
C77   H41   S    
C66   C71   A    
C5    C9    A    
C62   C63   A    
C78   H42   S    
C25   H7    S    
Cr3   O3    S    
C19   H2    S    
C52   N2    A    
C47   H21   S    
C12   O22   A    
C64   H29   S    
C7    C13   A    
C92   O10   A    
C53   C54   A    
Cr1   O5    S    
C23   O1    A    
C56   O24   A    
C1    C29   S    
C17   C18   A    
C8    C9    A    
C46   H18   S    
C69   C74   A    
C51   C58   S    
C6    H1    S    
C76   C77   A    
C34   O26   A    
N2    N12   A    
N15   H54   S    
C20   N7    A    
C94   O15   A    
Cr3   O4    S    
C52   N3    A    
C40   C41   A    
C12   O21   A    
C55   H25   S    
C60   C65   A    
C49   C50   A    
C22   C27   A    
C55   C57   A    
C13   C92   S    
Cr6   O19   S    
C22   C24   A    
Cr5   O16   S    
Cr2   O21   S    
C3    C4    A    
C83   H35   S    
Cr2   O2    S    
C44   C45   S    
Cr1   O25   S    
C44   C50   A    
C83   C90   A    
C46   C47   A    
C48   C49   A    
C33   H14   S    
N3    N4    A    
C14   C19   A    
C31   C32   A    
C75   C81   A    
N1    N5    A    
C80   C81   A    
C85   H40   S    
C4    C67   A    
Cr2   O5    S    
C53   C58   A    
C3    H23   S    
C90   C96   S    
C20   C27   S    
C36   N11   A    
C80   H37   S    
C29   C35   A    
Cr1   O12   S    
C62   N13   S    
C30   H9    S    
N14   H50   S    
C7    N15   S    
C2    C3    A    
N6    N7    A    
C71   C72   S    
C82   H36   S    
C64   C65   A    
C6    C13   A    
C15   H45   S    
C1    O20   A    
C57   C58   A    
C30   C31   A    
C72   C73   T    
C22   H6    S    
C51   N12   A    
Cr3   O5    S    
C33   C35   A    
C84   N14   S    
C28   C91   S    
C61   C62   A    
C92   O9    A    
Cr3   O22   S    
C10   C11   T    
C94   O14   A    
C51   N4    A    
C79   C80   A    
C48   C52   S    
C99   H56   S    
C82   C83   A    
C96   O13   A    
N8    N9    A    
C70   H32   S    
Cr6   O18   S    
C21   N6    A    
C14   C15   A    
Cr4   O6    S    
N15   C99   S    
C24   H3    S    
Cr2   O20   S    
Cr6   O17   S    
C97   H47   S    
C35   H10   S    
C36   N8    A    
C66   H28   S    
