data_mof_unit_53572.cif
_audit_creation_date              2012-12-10T17:16:42-0500
_audit_creation_method            fapswitch 2.2
_symmetry_space_group_name_H-M    P1
_symmetry_Int_Tables_number       1
_space_group_crystal_system       triclinic
_cell_length_a                    10.175735
_cell_length_b                    10.651712
_cell_length_c                    10.777325
_cell_angle_alpha                 90.864259
_cell_angle_beta                  94.769004
_cell_angle_gamma                 79.176509
_cell_volume                      1143.3902355

loop_
_atom_site_label
_atom_site_type_symbol
_atom_type_description
_atom_site_fract_x
_atom_site_fract_y
_atom_site_fract_z
_atom_type_partial_charge
C1    C     C_R   0.444348 0.504008 0.267092 0.934022
C2    C     C_R   0.493158 0.741029 0.485158 0.888858
C3    C     C_R   0.754221 0.062248 0.472386 -0.131647
C4    C     C_R   0.246525 0.937955 0.530362 -0.136085
C5    C     C_R   0.845607 0.985095 0.400980 -0.150100
C6    C     C_R   0.155494 0.015094 0.602142 -0.150435
C7    C     C_R   0.808637 0.881922 0.336046 -0.139727
C8    C     C_R   0.192584 0.118474 0.666622 -0.137994
C9    C     C_R   0.684388 0.849887 0.350852 -0.131930
C10   C     C_R   0.316607 0.150640 0.651118 -0.130191
C11   C     C_R   0.595285 0.921425 0.431418 0.087675
C12   C     C_R   0.555732 0.487495 0.732780 0.933919
C13   C     C_R   0.405437 0.078877 0.570483 0.089160
C14   C     C_R   0.623061 0.036963 0.479709 0.073644
C15   C     C_R   0.377619 0.963234 0.522417 0.074020
C16   C     C_R   0.481435 0.878215 0.467594 -0.254101
C17   C     C_R   0.519066 0.122075 0.533980 -0.251525
C18   C     C_3   0.835372 0.331250 0.277048 0.229930
C19   C     C_3   0.928628 0.246946 0.193582 -0.938733
C20   C     C_3   0.169223 0.667576 0.724021 0.247732
C21   C     C_3   0.078767 0.751143 0.810294 -0.941125
C22   C     C_2   0.412765 0.492463 0.135057 -0.373474
C23   C     C_2   0.587242 0.465557 0.864298 -0.376074
C24   C     C_2   0.512040 0.444980 0.065146 -0.152787
C25   C     C_2   0.488746 0.448887 0.932641 -0.164242
C26   C     C_2   0.074876 0.486907 0.492913 0.051979
C27   C     C_2   0.924860 0.514054 0.506033 0.051038
C28   C     C_R   0.506956 0.259100 0.515288 0.883992
H1    H     H_    0.123706 0.176121 0.725520 0.134416
H2    H     H_    0.614204 0.413673 0.104557 0.162914
H3    H     H_    0.688626 0.464986 0.905513 0.149066
H4    H     H_    0.310421 0.523955 0.094831 0.147308
H5    H     H_    0.882362 0.593490 0.563389 0.159381
H6    H     H_    0.117084 0.408439 0.434300 0.158317
H7    H     H_    0.806055 0.426566 0.230922 0.129078
H8    H     H_    0.745964 0.287248 0.285792 0.182006
H9    H     H_    0.018193 0.289998 0.182012 0.259580
H10   H     H_    0.962003 0.150326 0.234703 0.264537
H11   H     H_    0.875255 0.238001 0.100636 0.215888
H12   H     H_    0.877747 0.824346 0.277304 0.134756
H13   H     H_    0.257258 0.712588 0.712128 0.186898
H14   H     H_    0.201247 0.572551 0.769997 0.128695
H15   H     H_    0.990728 0.707073 0.825419 0.258333
H16   H     H_    0.135342 0.760789 0.901511 0.217471
H17   H     H_    0.042743 0.847557 0.769394 0.263790
H18   H     H_    0.789693 0.138126 0.525039 0.182937
H19   H     H_    0.210660 0.862209 0.477861 0.182385
H20   H     H_    0.944823 0.006011 0.395139 0.146661
H21   H     H_    0.056404 0.994056 0.608552 0.146389
H22   H     H_    0.658703 0.768282 0.299862 0.142005
H23   H     H_    0.342382 0.232503 0.701628 0.138265
H24   H     H_    0.387179 0.449352 0.892176 0.168891
N1    N     N_2   0.157300 0.551390 0.551120 0.027058
N2    N     N_2   0.842700 0.448610 0.448880 0.028855
O1    O     O_R   0.568940 0.489660 0.307530 -0.652805
O2    O     O_3   0.097298 0.658027 0.608308 -0.576483
O3    O     O_R   0.431060 0.510340 0.692470 -0.656795
O4    O     O_R   0.348880 0.522640 0.340350 -0.617011
O5    O     O_R   0.651120 0.477360 0.659650 -0.615274
O6    O     O_R   0.610030 0.300280 0.483580 -0.623111
O7    O     O_R   0.389970 0.699720 0.516420 -0.623522
O8    O     O_R   0.389970 0.333270 0.516400 -0.625610
O9    O     O_R   0.610030 0.666730 0.483600 -0.623605
O10   O     O_3   0.902953 0.340203 0.394866 -0.571315
Zn1   Zn    Zn3+2 0.646940 0.477980 0.478080 0.943554
Zn2   Zn    Zn3+2 0.353060 0.522020 0.521920 0.940301

loop_
_geom_bond_atom_site_label_1
_geom_bond_atom_site_label_2
_ccdc_geom_bond_type
C20   H14   S    
C7    H12   S    
O9    Zn1   S    
C24   C25   S    
C19   H10   S    
C21   H16   S    
C2    C16   S    
C11   C16   A    
C3    H18   S    
C14   C17   A    
C2    O7    A    
C13   C17   A    
O3    Zn2   S    
C20   O2    S    
C10   H23   S    
C20   C21   S    
C4    C15   A    
C23   C25   D    
C20   H13   S    
C1    O1    A    
C25   H24   S    
C1    C22   S    
N2    Zn1   S    
C10   C13   A    
C1    O4    A    
O5    Zn1   S    
N1    Zn2   S    
C9    C11   A    
C12   C23   S    
C18   O10   S    
C26   C27   S    
C3    C14   A    
C22   H4    S    
C12   O3    A    
C19   H11   S    
C8    C10   A    
O1    Zn1   S    
O4    Zn2   S    
O6    Zn1   S    
C12   O5    A    
C21   H17   S    
C13   C15   A    
C6    H21   S    
C5    H20   S    
C22   C24   D    
C27   N2    D    
C24   H2    S    
C8    H1    S    
C15   C16   A    
C26   N1    D    
C7    C9    A    
C28   O6    A    
C2    O9    A    
N2    O10   S    
C4    C6    A    
C18   C19   S    
C18   H7    S    
N1    O2    S    
C11   C14   A    
C5    C7    A    
O8    Zn2   S    
C6    C8    A    
C19   H9    S    
C21   H15   S    
C17   C28   S    
C18   H8    S    
O7    Zn2   S    
C26   H6    S    
C27   H5    S    
C9    H22   S    
C23   H3    S    
C3    C5    A    
C4    H19   S    
C28   O8    A    
