data_mof_unit_21634.cif
_audit_creation_date              2012-12-10T18:06:00-0500
_audit_creation_method            fapswitch 2.2
_symmetry_space_group_name_H-M    P1
_symmetry_Int_Tables_number       1
_space_group_crystal_system       triclinic
_cell_length_a                    12.744847
_cell_length_b                    13.142689
_cell_length_c                    15.022592
_cell_angle_alpha                 93.588092
_cell_angle_beta                  103.986276
_cell_angle_gamma                 81.74201
_cell_volume                      2415.37326786

loop_
_atom_site_label
_atom_site_type_symbol
_atom_type_description
_atom_site_fract_x
_atom_site_fract_y
_atom_site_fract_z
_atom_type_partial_charge
C1    C     C_R   0.438854 0.690704 0.483907 0.865158
C2    C     C_R   0.541308 0.581945 0.828688 0.540826
C3    C     C_R   0.504232 0.501800 0.769059 -0.199364
C4    C     C_R   0.501435 0.502360 0.672936 0.939523
C5    C     C_R   0.459156 0.423512 0.798754 -0.238011
C6    C     C_R   0.712453 0.055805 0.463472 0.591693
C7    C     C_R   0.597090 0.198686 0.514127 -0.129558
C8    C     C_R   0.295002 0.839762 0.478632 -0.193570
C9    C     C_R   0.264429 0.945303 0.482469 -0.113649
C10   C     C_R   0.339704 0.011603 0.480909 -0.168509
C11   C     C_R   0.445506 0.972614 0.469604 0.116214
C12   C     C_R   0.454125 0.412997 0.075282 -0.182660
C13   C     C_R   0.468728 0.866775 0.449938 0.091991
C14   C     C_R   0.529545 0.034630 0.478127 0.013958
C15   C     C_R   0.627869 0.994651 0.452229 0.033700
C16   C     C_R   0.561215 0.309084 0.515302 0.879064
C17   C     C_R   0.639453 0.894653 0.415434 -0.224942
C18   C     C_R   0.561071 0.831074 0.414790 -0.219164
C19   C     C_R   0.519303 0.134768 0.514060 -0.253950
C20   C     C_R   0.696754 0.157968 0.494298 -0.286974
C21   C     C_R   0.399204 0.799722 0.467138 -0.121368
C22   C     C_R   0.080162 0.354358 0.359056 0.501156
C23   C     C_R   0.564752 0.660753 0.072770 -0.228509
C24   C     C_R   0.805076 0.635297 0.610066 0.151398
C25   C     C_R   0.909168 0.670485 0.625043 0.092189
C26   C     C_R   0.981847 0.627411 0.571366 0.101020
C27   C     C_R   0.960641 0.534932 0.519809 -0.033559
C28   C     C_R   0.500001 0.493081 0.326898 0.882031
C29   C     C_R   0.853777 0.504800 0.503853 0.128085
C30   C     C_R   0.039529 0.474605 0.478249 -0.083285
C31   C     C_R   0.003852 0.404330 0.405507 -0.023302
C32   C     C_R   0.893477 0.386338 0.381624 0.124495
C33   C     C_R   0.824998 0.427917 0.437961 -0.212792
C34   C     C_R   0.570017 0.662352 0.981419 -0.148947
C35   C     C_R   0.153426 0.481264 0.506765 -0.116830
C36   C     C_R   0.185482 0.381157 0.378157 0.151676
C37   C     C_R   0.472667 0.400674 0.170819 0.129128
C38   C     C_R   0.497862 0.487831 0.229619 -0.067128
C39   C     C_R   0.524773 0.574772 0.195681 -0.299458
C40   C     C_R   0.526713 0.578164 0.104237 0.183623
C41   C     C_R   0.489797 0.498030 0.043423 0.002387
C42   C     C_3   0.483489 0.290449 0.203352 -0.329858
C43   C     C_3   0.557858 0.265072 0.296133 -0.950957
C44   C     C_3   0.250344 0.343445 0.308800 -0.324541
C45   C     C_R   0.534918 0.582451 0.920188 0.062635
C46   C     C_3   0.212903 0.412544 0.225204 -0.760877
C47   C     C_3   0.841451 0.333099 0.292504 -0.369357
C48   C     C_3   0.843458 0.218017 0.303641 -0.671178
C49   C     C_3   0.726355 0.689655 0.665481 -0.289402
C50   C     C_3   0.691734 0.804712 0.648111 -0.793873
C51   C     C_3   0.064811 0.693202 0.553485 -0.366867
C52   C     C_3   0.167419 0.696754 0.632402 -0.870624
C53   C     C_3   0.945750 0.750847 0.701059 -0.351075
C54   C     C_3   0.933032 0.861027 0.667120 -0.794102
C55   C     C_R   0.491905 0.501300 0.950886 -0.086208
C56   C     C_R   0.452498 0.422550 0.889226 -0.129110
C57   C     C_R   0.405859 0.344861 0.918571 0.585916
C58   C     C_R   0.405320 0.340461 0.010373 0.486295
F1    F     F_    0.808075 0.018212 0.441221 -0.699391
F2    F     F_    0.054507 0.280292 0.293405 -0.699122
F3    F     F_    0.578557 0.660907 0.796878 -0.711874
F4    F     F_    0.361332 0.272313 0.858419 -0.624164
F5    F     F_    0.353301 0.266874 0.034094 -0.646092
H1    H     H_    0.711336 0.863723 0.391136 0.200556
H2    H     H_    0.592545 0.723003 0.119268 0.154126
H3    H     H_    0.601865 0.725871 0.959010 0.201142
H4    H     H_    0.429364 0.363115 0.750676 0.222038
H5    H     H_    0.759252 0.206621 0.497272 0.183333
H6    H     H_    0.625692 0.311304 0.313862 0.257357
H7    H     H_    0.508683 0.279063 0.346766 0.263001
H8    H     H_    0.591213 0.182149 0.297796 0.268742
H9    H     H_    0.402714 0.267246 0.200756 0.252913
H10   H     H_    0.520161 0.237727 0.154831 0.251074
H11   H     H_    0.124862 0.410555 0.193728 0.267843
H12   H     H_    0.448814 0.166702 0.539263 0.174400
H13   H     H_    0.224951 0.493524 0.245280 0.258094
H14   H     H_    0.257467 0.386086 0.171675 0.264453
H15   H     H_    0.337333 0.336749 0.339227 0.235874
H16   H     H_    0.238330 0.263037 0.285737 0.233811
H17   H     H_    0.927766 0.179002 0.328441 0.308824
H18   H     H_    0.796120 0.205501 0.353673 0.240474
H19   H     H_    0.806229 0.182198 0.236692 0.242868
H20   H     H_    0.755880 0.369137 0.267680 0.179290
H21   H     H_    0.878846 0.347186 0.235813 0.259575
H22   H     H_    0.732689 0.851747 0.706449 0.254019
H23   H     H_    0.237818 0.789739 0.486553 0.168458
H24   H     H_    0.709891 0.825549 0.584006 0.266829
H25   H     H_    0.602601 0.825345 0.641988 0.262453
H26   H     H_    0.651356 0.659151 0.650536 0.305337
H27   H     H_    0.759713 0.676093 0.739758 0.203799
H28   H     H_    0.168336 0.774031 0.666338 0.259231
H29   H     H_    0.173382 0.638889 0.684831 0.256358
H30   H     H_    0.242103 0.680547 0.605575 0.262076
H31   H     H_    0.089137 0.669081 0.488518 0.198676
H32   H     H_    0.024278 0.772484 0.537723 0.224767
H33   H     H_    0.013174 0.883345 0.665815 0.253562
H34   H     H_    0.311906 0.092771 0.485979 0.140966
H35   H     H_    0.879112 0.869783 0.597271 0.273319
H36   H     H_    0.898665 0.916660 0.714755 0.247520
H37   H     H_    0.903431 0.751871 0.757219 0.196387
H38   H     H_    0.031149 0.727554 0.738233 0.214545
H39   H     H_    0.183656 0.975807 0.490692 0.165319
H40   H     H_    0.573855 0.753631 0.386984 0.175337
H41   H     H_    0.547574 0.639149 0.241699 0.146540
H42   H     H_    0.187663 0.516339 0.571292 0.197995
H43   H     H_    0.746004 0.403835 0.425090 0.206659
N1    N     N_R   0.222190 0.444670 0.452360 -0.141774
N2    N     N_R   0.776970 0.554790 0.547140 -0.151466
O1    O     O_R   0.366740 0.627160 0.477250 -0.612903
O2    O     O_R   0.544830 0.662520 0.507680 -0.624564
O3    O     O_R   0.410940 0.482340 0.616930 -0.626962
O4    O     O_R   0.589030 0.517700 0.647360 -0.616673
O5    O     O_R   0.455170 0.337480 0.492320 -0.636492
O6    O     O_R   0.633260 0.372840 0.522750 -0.626337
O7    O     O_R   0.410970 0.482300 0.352640 -0.615410
O8    O     O_R   0.589060 0.517660 0.383070 -0.644672
Zn1   Zn    Zn3+2 0.381090 0.476390 0.479680 0.927658
Zn2   Zn    Zn3+2 0.618910 0.523610 0.520320 0.929694

loop_
_geom_bond_atom_site_label_1
_geom_bond_atom_site_label_2
_ccdc_geom_bond_type
C55   C56   A    
C1    C21   S    
C27   C29   A    
C5    C56   A    
C49   H27   S    
C5    H4    S    
C16   O5    A    
O2    Zn2   S    
C46   H13   S    
O1    Zn1   S    
C39   H41   S    
C53   C54   S    
C48   H18   S    
C26   C27   A    
C37   C38   A    
C13   C18   A    
C25   C53   S    
C17   H1    S    
C22   F2    S    
C30   C31   A    
C11   C14   A    
C23   C40   A    
C29   C33   A    
C12   C37   A    
C56   C57   A    
C37   C42   S    
C41   C55   A    
C28   O8    A    
C50   H22   S    
C1    O1    A    
C6    C15   A    
C31   C32   A    
C53   H38   S    
C9    H39   S    
O7    Zn1   S    
C29   N2    A    
C24   N2    A    
C47   H20   S    
C9    C10   A    
C54   H33   S    
C2    F3    S    
C50   H25   S    
C12   C58   A    
C4    O4    A    
C43   H6    S    
C36   N1    A    
C34   H3    S    
C14   C19   A    
C44   C46   S    
C8    C21   A    
C2    C45   A    
C22   C31   A    
C51   C52   S    
N2    Zn2   S    
C57   F4    S    
C24   C25   A    
C39   C40   A    
C8    C9    A    
C25   C26   A    
C10   H34   S    
C12   C41   A    
C35   H42   S    
C28   O7    A    
C1    O2    A    
C47   C48   S    
C48   H19   S    
C28   C38   S    
C23   C34   A    
C42   H9    S    
C17   C18   A    
C13   C21   A    
C52   H30   S    
C34   C45   A    
C47   H21   S    
O6    Zn2   S    
C50   H24   S    
O5    Zn1   S    
C30   C35   A    
C7    C16   S    
C4    O3    A    
C7    C20   A    
C43   H7    S    
C7    C19   A    
C32   C47   S    
C54   H36   S    
C36   C44   S    
C42   C43   S    
C3    C4    S    
C46   H11   S    
C6    C20   A    
C53   H37   S    
C24   C49   S    
C15   C17   A    
C40   C41   A    
C42   H10   S    
C43   H8    S    
C6    F1    S    
C20   H5    S    
C44   H16   S    
C33   H43   S    
C58   F5    S    
C49   H26   S    
C3    C5    A    
C16   O6    A    
C46   H14   S    
C22   C36   A    
O3    Zn1   S    
C32   C33   A    
C48   H17   S    
C44   H15   S    
C2    C3    A    
C26   C51   S    
O4    Zn2   S    
C11   C13   A    
C23   H2    S    
C57   C58   A    
C38   C39   A    
C19   H12   S    
O8    Zn2   S    
C8    H23   S    
C18   H40   S    
C35   N1    A    
C10   C11   A    
C51   H31   S    
C45   C55   A    
C49   C50   S    
C14   C15   A    
C54   H35   S    
C52   H28   S    
N1    Zn1   S    
C52   H29   S    
C51   H32   S    
C27   C30   A    
