data_mof_unit_9366.cif
_audit_creation_date              2012-12-10T17:52:03-0500
_audit_creation_method            fapswitch 2.2
_symmetry_space_group_name_H-M    P1
_symmetry_Int_Tables_number       1
_space_group_crystal_system       triclinic
_cell_length_a                    14.874978
_cell_length_b                    14.746193
_cell_length_c                    19.276146
_cell_angle_alpha                 72.385809
_cell_angle_beta                  101.46505
_cell_angle_gamma                 115.661605
_cell_volume                      3621.18147749

loop_
_atom_site_label
_atom_site_type_symbol
_atom_type_description
_atom_site_fract_x
_atom_site_fract_y
_atom_site_fract_z
_atom_type_partial_charge
C1    C     C_R   0.880902 0.310816 0.512409 0.853068
C2    C     C_R   0.118970 0.688932 0.488863 0.854672
C3    C     C_R   0.813540 0.199033 0.521925 -0.184369
C4    C     C_R   0.185779 0.799374 0.486338 -0.183080
C5    C     C_R   0.774692 0.014129 0.550499 -0.238218
C6    C     C_R   0.223491 0.978876 0.481776 -0.238131
C7    C     C_R   0.846322 0.116143 0.543374 0.432549
C8    C     C_R   0.152294 0.879042 0.479363 0.428343
C9    C     C_R   0.710384 0.175383 0.509597 -0.258002
C10   C     C_R   0.289061 0.823879 0.494801 -0.273991
C11   C     C_R   0.638418 0.072991 0.520845 0.085587
C12   C     C_R   0.360243 0.922191 0.501354 0.082674
C13   C     C_R   0.672300 0.992218 0.539204 0.077782
C14   C     C_R   0.325904 0.000766 0.492699 0.074860
C15   C     C_R   0.533754 0.048990 0.512820 0.077667
C16   C     C_R   0.464608 0.944739 0.515347 0.091444
C17   C     C_R   0.501949 0.866177 0.534109 -0.212196
C18   C     C_R   0.495927 0.125048 0.504715 -0.191030
C19   C     C_R   0.603740 0.889731 0.546427 -0.179557
C20   C     C_R   0.393983 0.100890 0.495341 -0.177266
C21   C     C_R   0.683160 0.587671 0.348674 -0.104880
C22   C     C_R   0.316970 0.412490 0.651220 -0.105205
C23   C     C_R   0.000350 0.500636 0.632011 0.803428
C24   C     C_R   0.999829 0.499581 0.367939 0.802573
C25   C     C_R   0.779788 0.600841 0.380721 -0.028065
C26   C     C_R   0.220279 0.399108 0.619249 0.024114
C27   C     C_R   0.718662 0.522602 0.499617 0.530082
C28   C     C_R   0.281188 0.477305 0.500299 0.439168
C29   C     C_R   0.627136 0.534309 0.470547 -0.141292
C30   C     C_R   0.372797 0.465886 0.529241 -0.150656
C31   C     C_R   0.604412 0.545806 0.394666 0.033044
C32   C     C_R   0.395642 0.454488 0.605128 0.053546
C33   C     C_R   0.550685 0.517641 0.513924 0.125984
C34   C     C_R   0.449203 0.482749 0.485754 0.104016
C35   C     C_R   0.427619 0.463579 0.415853 -0.087087
C36   C     C_R   0.572336 0.536957 0.583771 -0.123810
C37   C     C_R   0.503324 0.504104 0.368591 -0.134497
C38   C     C_R   0.496742 0.496414 0.631100 -0.165516
C39   C     C_R   0.033776 0.434682 0.764550 -0.189858
C40   C     C_R   0.964232 0.563999 0.235361 -0.187945
C41   C     C_R   0.035266 0.435615 0.836748 -0.156223
C42   C     C_R   0.964006 0.564075 0.163104 -0.154089
C43   C     C_R   0.005616 0.504861 0.853021 0.046627
C44   C     C_R   0.997992 0.498212 0.146668 0.045739
C45   C     C_R   0.976312 0.574450 0.795617 -0.162441
C46   C     C_R   0.030714 0.431185 0.203953 -0.143291
C47   C     C_R   0.975264 0.573642 0.723400 -0.124314
C48   C     C_R   0.030700 0.431100 0.276209 -0.094970
C49   C     C_R   0.002347 0.502620 0.707608 -0.011528
C50   C     C_R   0.998718 0.498429 0.292219 -0.008401
C51   C     C_R   0.999846 0.499866 0.070230 0.418409
C52   C     C_R   0.004391 0.503770 0.929429 0.416551
Cu1   Cu    Cu3+1 0.081740 0.475680 0.518680 1.047330
Cu2   Cu    Cu3+1 0.918260 0.524320 0.481320 1.061641
H1    H     H_    0.055758 0.379795 0.753237 0.152207
H2    H     H_    0.938915 0.616362 0.246753 0.148275
H3    H     H_    0.482449 0.497134 0.312764 0.158837
H4    H     H_    0.517714 0.503463 0.686905 0.155086
H5    H     H_    0.159512 0.367312 0.653918 0.175422
H6    H     H_    0.840685 0.632849 0.346122 0.169938
H7    H     H_    0.351859 0.421659 0.396363 0.177776
H8    H     H_    0.648176 0.578629 0.603215 0.192200
H9    H     H_    0.058850 0.381483 0.879681 0.156650
H10   H     H_    0.937777 0.616193 0.120256 0.155599
H11   H     H_    0.954130 0.629532 0.806342 0.167726
H12   H     H_    0.056457 0.378818 0.193108 0.161617
H13   H     H_    0.953909 0.628893 0.679871 0.205891
H14   H     H_    0.054832 0.377798 0.319598 0.183127
H15   H     H_    0.628959 0.826984 0.561293 0.149566
H16   H     H_    0.368306 0.161445 0.489829 0.153238
H17   H     H_    0.313044 0.764810 0.494904 0.193866
H18   H     H_    0.687066 0.238830 0.489196 0.187259
H19   H     H_    0.798545 0.950489 0.565500 0.196830
H20   H     H_    0.199229 0.040513 0.475776 0.191579
H21   H     H_    0.454491 0.784739 0.542528 0.135945
H22   H     H_    0.542906 0.203604 0.508095 0.177586
N1    N     N_R   0.972253 0.567647 0.945640 -0.235328
N2    N     N_R   0.032061 0.436058 0.054012 -0.235216
N3    N     N_R   0.970077 0.565770 0.014688 -0.238931
N4    N     N_R   0.034206 0.437911 0.984972 -0.239898
N5    N     N_R   0.795420 0.560800 0.453240 -0.220414
N6    N     N_R   0.204580 0.439200 0.546760 -0.232150
O1    O     O_R   0.977910 0.338110 0.524620 -0.512387
O2    O     O_R   0.022090 0.661890 0.475380 -0.505221
O3    O     O_R   0.839850 0.379180 0.493080 -0.556021
O4    O     O_R   0.160150 0.620820 0.506920 -0.558555
O5    O     O_R   0.069040 0.479450 0.615630 -0.627787
O6    O     O_R   0.930960 0.520550 0.384370 -0.626541
O7    O     O_R   0.930990 0.520520 0.584090 -0.485066
O8    O     O_R   0.069010 0.479480 0.415910 -0.495768
S1    S     S_3+6 0.283759 0.566026 0.410611 0.007091
O9    O     O_2   0.238073 0.504468 0.353885 -0.304129
O10   O     O_2   0.231789 0.636713 0.399889 -0.274479
O11   O     O_3   0.402409 0.646448 0.391734 -0.526303
H23   H     H_    0.427552 0.688006 0.428669 0.332929
S2    S     S_3+6 0.715978 0.433846 0.589390 -0.006850
O12   O     O_2   0.609563 0.362871 0.605609 -0.335709
O13   O     O_2   0.768027 0.363346 0.599835 -0.273901
O14   O     O_3   0.767520 0.503096 0.652662 -0.575681
H24   H     H_    0.746306 0.452538 0.699805 0.373447
C53   C     C_R   0.667066 0.616157 0.267867 0.099859
C54   C     C_R   0.616461 0.681390 0.233223 -0.123355
C55   C     C_R   0.602808 0.709299 0.157038 -0.121382
C56   C     C_R   0.639944 0.672881 0.114882 -0.099734
C57   C     C_R   0.690790 0.608439 0.148825 -0.125697
C58   C     C_R   0.704391 0.580117 0.224971 -0.160982
H25   H     H_    0.588131 0.711017 0.265178 0.164272
H26   H     H_    0.563703 0.759460 0.130668 0.145350
H27   H     H_    0.629421 0.694697 0.055919 0.134817
H28   H     H_    0.719621 0.580331 0.116149 0.136845
H29   H     H_    0.743298 0.529486 0.250477 0.132885
C59   C     C_R   0.333197 0.384221 0.732043 0.104675
C60   C     C_R   0.295255 0.419724 0.774919 -0.162334
C61   C     C_R   0.308982 0.391595 0.851065 -0.121849
C62   C     C_R   0.360538 0.327856 0.885039 -0.098127
C63   C     C_R   0.398240 0.291926 0.842915 -0.127768
C64   C     C_R   0.384466 0.319637 0.766732 -0.117509
H30   H     H_    0.255723 0.469761 0.749410 0.132010
H31   H     H_    0.279680 0.419293 0.883719 0.137853
H32   H     H_    0.371154 0.306188 0.944002 0.134668
H33   H     H_    0.437874 0.242285 0.869312 0.142608
H34   H     H_    0.413223 0.290354 0.734814 0.160169
S3    S     S_3+6 0.024380 0.860385 0.467176 0.024220
O15   O     O_2   0.970228 0.779377 0.530998 -0.284952
O16   O     O_2   0.014643 0.959784 0.461425 -0.250333
O17   O     O_3   0.972157 0.821526 0.389797 -0.537358
H35   H     H_    0.904028 0.820534 0.383482 0.364958
S4    S     S_3+6 0.973876 0.133395 0.562074 0.028674
O18   O     O_2   0.018594 0.183356 0.625138 -0.314563
O19   O     O_2   0.983152 0.030896 0.581782 -0.239844
O20   O     O_3   0.036822 0.209480 0.487886 -0.517436
H36   H     H_    0.108252 0.225751 0.504780 0.365017

loop_
_geom_bond_atom_site_label_1
_geom_bond_atom_site_label_2
_ccdc_geom_bond_type
C15   C18   A    
Cu2   O6    S    
C57   H28   S    
O17   H35   S    
C27   C29   A    
C2    O2    A    
C9    H18   S    
C4    C8    A    
S4    O18   D    
Cu2   O2    S    
C61   C62   A    
S3    O15   D    
C39   C41   A    
Cu1   Cu2   S    
C21   C31   A    
C53   C54   A    
C22   C32   A    
C35   C37   A    
C46   H12   S    
C3    C7    A    
C59   C64   A    
N2    N4    A    
C43   C52   S    
C23   C49   S    
S1    O10   D    
C62   C63   A    
S2    O14   S    
C29   C33   A    
C33   C36   A    
C63   C64   A    
C34   C35   A    
C56   C57   A    
C38   H4    S    
C11   C15   A    
C39   H1    S    
C12   C16   A    
C16   C17   A    
C40   H2    S    
S2    O13   D    
C23   O7    A    
C55   H26   S    
C25   H6    S    
C32   C38   A    
C7    S4    S    
C26   H5    S    
C5    C13   A    
C61   H31   S    
C21   C53   S    
C10   H17   S    
C40   C42   A    
C26   N6    A    
C23   O5    A    
C25   N5    A    
C41   C43   A    
C20   H16   S    
C27   S2    S    
C54   C55   A    
C42   C44   A    
C36   H8    S    
C47   H13   S    
C59   C60   A    
C44   C46   A    
C6    H20   S    
C58   H29   S    
C45   C47   A    
C24   C50   S    
C46   C48   A    
C63   H33   S    
C30   C34   A    
C28   N6    A    
C14   C20   A    
C27   N5    A    
Cu2   O7    S    
C35   H7    S    
S1    O9    D    
C5    C7    A    
C13   C19   A    
C52   N1    A    
S3    O17   S    
C6    C8    A    
C31   C37   A    
C24   O8    A    
Cu1   N6    S    
C1    C3    S    
C2    C4    S    
C64   H34   S    
C3    C9    A    
C6    C14   A    
C24   O6    A    
O14   H24   S    
S2    O12   D    
C33   C34   A    
N1    N3    A    
C54   H25   S    
Cu1   O5    S    
C48   H14   S    
C48   C50   A    
C43   C45   A    
Cu1   O4    S    
C10   C12   A    
C44   C51   S    
C39   C49   A    
C12   C14   A    
C22   C59   S    
C9    C11   A    
C45   H11   S    
C19   H15   S    
C1    O3    A    
C41   H9    S    
C4    C10   A    
O20   H36   S    
S4    O20   S    
C42   H10   S    
C55   C56   A    
C60   C61   A    
C53   C58   A    
C21   C25   A    
C18   H22   S    
S4    O19   D    
Cu2   O3    S    
C8    S3    S    
C1    O1    A    
C57   C58   A    
Cu1   O1    S    
C36   C38   A    
C51   N2    A    
C29   C31   A    
C47   C49   A    
S1    O11   S    
C30   C32   A    
C11   C13   A    
C56   H27   S    
C40   C50   A    
C28   C30   A    
C17   C19   A    
C2    O4    A    
C28   S1    S    
C18   C20   A    
C5    H19   S    
O11   H23   S    
C51   N3    A    
S3    O16   D    
C60   H30   S    
C62   H32   S    
C22   C26   A    
Cu1   O8    S    
C17   H21   S    
C52   N4    A    
Cu2   N5    S    
C37   H3    S    
C15   C16   A    
