data_mof_unit_22812.cif
_audit_creation_date              2012-12-11T14:29:38-0500
_audit_creation_method            fapswitch 2.2
_symmetry_space_group_name_H-M    P1
_symmetry_Int_Tables_number       1
_space_group_crystal_system       triclinic
_cell_length_a                    6.939881
_cell_length_b                    14.742484
_cell_length_c                    16.239244
_cell_angle_alpha                 90.490457
_cell_angle_beta                  90.001219
_cell_angle_gamma                 90.001251
_cell_volume                      1661.39379473

loop_
_atom_site_label
_atom_site_type_symbol
_atom_type_description
_atom_site_fract_x
_atom_site_fract_y
_atom_site_fract_z
_atom_type_partial_charge
O1    O     O_R   0.494400 0.416610 0.413880 -0.541118
O2    O     O_R   0.823920 0.406790 0.585520 -0.541229
O3    O     O_R   0.994250 0.583390 0.586120 -0.537054
C1    C     C_R   0.654681 0.385140 0.613594 0.742420
O4    O     O_R   0.824110 0.405730 0.414490 -0.541091
O5    O     O_R   0.994440 0.582310 0.413870 -0.539597
C2    C     C_R   0.654868 0.383698 0.386322 0.748654
O6    O     O_R   0.494210 0.417690 0.586130 -0.546792
O7    O     O_3   0.660810 0.557940 0.500000 -0.370500
V1    V     V_3+5 0.935650 0.489250 0.500000 1.416813
O8    O     O_R   0.324160 0.593210 0.414480 -0.541330
C3    C     C_R   0.155359 0.616087 0.387425 0.720031
O9    O     O_R   0.323970 0.594270 0.585510 -0.539845
C4    C     C_R   0.155133 0.616128 0.613940 0.688847
V2    V     V_3+5 0.435660 0.510750 0.500000 1.420155
O10   O     O_3   0.160630 0.442060 0.500000 -0.374265
H1    H     H_    0.837414 0.893984 0.519214 0.112064
C5    C     C_R   0.309498 0.578252 0.775973 -0.187304
C6    C     C_R   0.383718 0.557213 0.853153 -0.222080
C7    C     C_R   0.371156 0.619856 0.918234 0.410260
C8    C     C_R   0.283790 0.703708 0.904973 -0.128571
C9    C     C_R   0.209570 0.727457 0.826844 -0.005654
C10   C     C_R   0.222463 0.663305 0.760944 0.070003
C11   C     C_R   0.119637 0.812754 0.814380 -0.164098
C12   C     C_R   0.042256 0.833573 0.735846 0.073094
C13   C     C_R   0.055018 0.769330 0.669927 0.068873
C14   C     C_R   0.145028 0.684071 0.682377 -0.167042
C15   C     C_R   0.955336 0.918771 0.720793 -0.146515
C16   C     C_R   0.881184 0.939662 0.643546 -0.123725
C17   C     C_R   0.893771 0.877103 0.579329 -0.121943
C18   C     C_R   0.980508 0.793132 0.591856 -0.135850
H2    H     H_    0.320092 0.526483 0.728627 0.129137
H3    H     H_    0.449738 0.491481 0.862243 0.116254
H4    H     H_    0.273455 0.749437 0.957214 0.120263
H5    H     H_    0.944897 0.970631 0.768066 0.109838
H6    H     H_    0.814999 0.005115 0.633325 0.118685
H7    H     H_    0.989920 0.747766 0.539331 0.104925
C19   C     C_2   0.988225 0.714696 0.286132 -0.094963
C20   C     C_2   0.150774 0.687436 0.324052 -0.267329
H8    H     H_    0.850719 0.686296 0.304740 0.135342
H9    H     H_    0.286894 0.720139 0.310407 0.180867
C21   C     C_2   0.983455 0.787797 0.223130 -0.140456
C22   C     C_2   0.126044 0.803975 0.168446 0.208116
H10   H     H_    0.852510 0.828047 0.220467 0.094596
C23   C     C_2   0.779270 0.207685 0.781084 -0.137563
C24   C     C_2   0.614168 0.179553 0.816587 -0.310939
H11   H     H_    0.915326 0.179511 0.801819 0.135117
H12   H     H_    0.476184 0.206091 0.797232 0.127789
C25   C     C_2   0.791280 0.276086 0.714055 -0.133374
C26   C     C_2   0.638198 0.317764 0.680113 -0.311454
H13   H     H_    0.934840 0.292266 0.691962 0.134786
H14   H     H_    0.493403 0.302928 0.700751 0.127264
C27   C     C_2   0.779214 0.209010 0.213942 -0.129765
C28   C     C_2   0.614086 0.181878 0.177374 -0.309144
H15   H     H_    0.915042 0.180317 0.193091 0.136801
H16   H     H_    0.476578 0.209897 0.196069 0.128880
C29   C     C_2   0.791673 0.277511 0.281873 -0.131443
C30   C     C_2   0.638293 0.315443 0.319541 -0.302846
H17   H     H_    0.935630 0.296657 0.301690 0.136061
H18   H     H_    0.493190 0.296956 0.301632 0.129440
O11   O     O_R   0.770210 0.079270 0.910680 -0.542055
O12   O     O_R   0.440150 0.091160 0.082270 -0.544725
O13   O     O_R   0.269970 0.914530 0.082860 -0.543312
C31   C     C_R   0.608821 0.113259 0.110488 0.742945
O14   O     O_R   0.440480 0.090100 0.911240 -0.545592
O15   O     O_R   0.270310 0.913460 0.910610 -0.538038
C32   C     C_R   0.609167 0.111712 0.883093 0.743204
O16   O     O_R   0.769870 0.080340 0.082930 -0.538723
O17   O     O_3   0.603660 0.938980 0.996790 -0.367334
V3    V     V_3+5 0.328750 0.007610 0.996740 1.412204
O18   O     O_R   0.940600 0.902510 0.911180 -0.536986
C33   C     C_R   0.109465 0.880713 0.882770 0.692196
O19   O     O_R   0.940270 0.903570 0.082200 -0.543366
C34   C     C_R   0.109917 0.879599 0.108435 0.624121
V4    V     V_3+5 0.828770 0.986010 0.996670 1.429753
O20   O     O_3   0.103730 0.054750 0.996710 -0.372126
O21   O     O_3   0.285048 0.747283 0.166361 -0.633644
H19   H     H_    0.366853 0.763137 0.118617 0.310779
O22   O     O_3   0.441325 0.601014 0.995707 -0.638583
H20   H     H_    0.498147 0.539280 0.995092 0.288788

loop_
_geom_bond_atom_site_label_1
_geom_bond_atom_site_label_2
_ccdc_geom_bond_type
O18   V4    S    
O19   C34   A    
C6    C7    A    
C1    O6    A    
C20   H9    S    
C27   C28   D    
O11   V4    S    
O16   V4    S    
C16   H6    S    
C13   C14   A    
C31   O16   A    
C15   C16   A    
C24   C32   S    
C19   C21   S    
O5    C3    A    
C19   C20   D    
C29   H17   S    
C30   H18   S    
O14   V3    S    
O12   V3    S    
C5    C6    A    
O12   C31   A    
O8    V2    S    
O15   C33   A    
C15   H5    S    
O14   C32   A    
C26   H14   S    
O1    V2    S    
C10   C14   A    
C4    C14   S    
O7    V1    S    
C2    C30   S    
C22   C34   S    
C23   H11   S    
C13   C18   A    
O9    C4    A    
H1    C17   S    
O19   V4    S    
C21   H10   S    
C28   H16   S    
C27   H15   S    
C24   H12   S    
C5    C10   A    
C11   C12   A    
C6    H3    S    
O4    C2    A    
C27   C29   S    
C8    H4    S    
C25   H13   S    
C12   C13   A    
O21   H19   S    
C18   H7    S    
C1    C26   S    
C12   C15   A    
O2    C1    A    
V4    O20   S    
C16   C17   A    
O11   C32   A    
O13   V3    S    
C23   C25   S    
C17   C18   A    
O3    C4    A    
O6    V2    S    
O9    V2    S    
V3    O20   S    
C9    C11   A    
C5    H2    S    
C21   C22   D    
O2    V1    S    
C11   C33   S    
C7    O22   S    
O1    C2    A    
O5    V1    S    
O8    C3    A    
O13   C34   A    
C22   O21   S    
C3    C20   S    
O7    V2    S    
O4    V1    S    
O3    V1    S    
V1    O10   S    
C19   H8    S    
C29   C30   D    
O15   V3    S    
C28   C31   S    
O17   V4    S    
O17   V3    S    
O22   H20   S    
C23   C24   D    
O18   C33   A    
C7    C8    A    
C25   C26   D    
C9    C10   A    
C8    C9    A    
V2    O10   S    
