data_mof_unit_47395.cif
_audit_creation_date              2012-12-11T15:08:49-0500
_audit_creation_method            fapswitch 2.2
_symmetry_space_group_name_H-M    P1
_symmetry_Int_Tables_number       1
_space_group_crystal_system       triclinic
_cell_length_a                    21.870025
_cell_length_b                    21.624987
_cell_length_c                    23.384083
_cell_angle_alpha                 89.655465
_cell_angle_beta                  90.04505
_cell_angle_gamma                 90.083871
_cell_volume                      11059.0298392

loop_
_atom_site_label
_atom_site_type_symbol
_atom_type_description
_atom_site_fract_x
_atom_site_fract_y
_atom_site_fract_z
_atom_type_partial_charge
C1    C     C_R   0.918613 0.153810 0.088939 -0.105753
C2    C     C_R   0.064068 0.137779 0.107662 -0.062867
C3    C     C_R   0.302759 0.706034 0.125951 -0.169766
C4    C     C_R   0.334066 0.249995 0.860295 -0.157615
C5    C     C_R   0.705967 0.783839 0.178610 -0.098488
C6    C     C_R   0.197614 0.679894 0.812185 -0.164211
C7    C     C_R   0.678373 0.268652 0.137245 -0.137592
C8    C     C_R   0.193336 0.212543 0.369501 -0.165630
C9    C     C_R   0.729918 0.826020 0.666357 -0.167511
C10   C     C_R   0.218321 0.740723 0.326929 -0.159718
C11   C     C_R   0.809232 0.212800 0.625567 -0.171805
C12   C     C_R   0.809096 0.787531 0.373638 -0.172116
C13   C     C_R   0.143413 0.928717 0.897216 -0.033631
C14   C     C_R   0.259204 0.187034 0.666219 -0.180706
C15   C     C_R   0.726672 0.177388 0.330998 -0.161763
C16   C     C_R   0.266176 0.830167 0.655224 -0.060868
C17   C     C_R   0.860996 0.137440 0.107864 0.031482
C18   C     C_R   0.119383 0.877842 0.869633 0.126148
C19   C     C_R   0.113800 0.114507 0.136674 0.015067
C20   C     C_R   0.861048 0.862758 0.891837 0.029103
C21   C     C_R   0.139132 0.858377 0.103293 0.098540
C22   C     C_R   0.890649 0.111377 0.859879 -0.002342
C23   C     C_R   0.890590 0.888485 0.139877 -0.005357
C24   C     C_R   0.846353 0.079975 0.088145 -0.079382
C25   C     C_R   0.139249 0.138580 0.893272 0.040456
C26   C     C_R   0.366380 0.635089 0.613326 0.033023
C27   C     C_R   0.623794 0.372822 0.373673 -0.000230
C28   C     C_R   0.627387 0.630285 0.622337 0.012695
C29   C     C_R   0.359790 0.359176 0.397668 0.092887
C30   C     C_R   0.637777 0.358792 0.606101 0.075189
C31   C     C_R   0.391245 0.610218 0.359358 -0.019116
C32   C     C_R   0.379060 0.374602 0.629263 -0.013809
C33   C     C_R   0.638582 0.641175 0.394888 0.078614
C34   C     C_R   0.823968 0.846405 0.795978 -0.090404
C35   C     C_R   0.082030 0.154731 0.912609 -0.141739
C36   C     C_R   0.146765 0.133973 0.234338 -0.103041
C37   C     C_R   0.865303 0.133295 0.759162 -0.096966
C38   C     C_R   0.152689 0.803413 0.192536 -0.079350
C39   C     C_R   0.167459 0.171537 0.798703 -0.080209
C40   C     C_R   0.864372 0.866780 0.240077 -0.086842
C41   C     C_R   0.155236 0.864072 0.772098 -0.156181
C42   C     C_R   0.822905 0.155777 0.203090 -0.100473
C43   C     C_R   0.345575 0.309115 0.306831 -0.091258
C44   C     C_R   0.647568 0.656894 0.721020 -0.086513
C45   C     C_R   0.358541 0.629926 0.260476 -0.103222
C46   C     C_R   0.938493 0.864088 0.109413 -0.042617
C47   C     C_R   0.646664 0.290843 0.689125 -0.086164
C48   C     C_R   0.647874 0.705743 0.309917 -0.070939
C49   C     C_R   0.361875 0.340712 0.727059 -0.083860
C50   C     C_R   0.645289 0.346221 0.274933 -0.080868
C51   C     C_R   0.314404 0.649075 0.702725 -0.096860
C52   C     C_R   0.821375 0.829958 0.853949 -0.090660
C53   C     C_R   0.147768 0.150059 0.176376 -0.097330
C54   C     C_R   0.857886 0.145662 0.817649 -0.098786
C55   C     C_R   0.174935 0.817861 0.137880 -0.113373
C56   C     C_R   0.178899 0.174021 0.857396 -0.088133
C57   C     C_R   0.863565 0.064470 0.891333 -0.030082
C58   C     C_R   0.857618 0.854012 0.181666 -0.089728
C59   C     C_R   0.150043 0.842157 0.828444 -0.011429
C60   C     C_R   0.821031 0.171064 0.144874 -0.084390
C61   C     C_R   0.323308 0.321273 0.361812 -0.109120
C62   C     C_R   0.657908 0.668566 0.662853 -0.077676
C63   C     C_R   0.357149 0.645115 0.318491 -0.091501
C64   C     C_R   0.673439 0.315722 0.639292 -0.102109
C65   C     C_R   0.674226 0.683232 0.360860 -0.104927
C66   C     C_R   0.348552 0.334705 0.668731 -0.062002
C67   C     C_R   0.654296 0.334368 0.333263 -0.072136
C68   C     C_R   0.153894 0.917909 0.087403 -0.077449
C69   C     C_R   0.329449 0.672253 0.648670 -0.090425
C70   C     C_R   0.772371 0.795977 0.877076 -0.101241
C71   C     C_R   0.183987 0.198706 0.155206 -0.100659
C72   C     C_R   0.810682 0.183683 0.837125 -0.078491
C73   C     C_R   0.229790 0.792990 0.117048 -0.104293
C74   C     C_R   0.234450 0.196230 0.879874 -0.132345
C75   C     C_R   0.811206 0.815018 0.161785 -0.078256
C76   C     C_R   0.172552 0.784184 0.845489 -0.241373
C77   C     C_R   0.772804 0.205375 0.120841 -0.099786
C78   C     C_R   0.265809 0.299530 0.379960 -0.122741
C79   C     C_R   0.422990 0.651363 0.593175 -0.031948
C80   C     C_R   0.685067 0.723507 0.642870 -0.164002
C81   C     C_R   0.316919 0.689606 0.339784 -0.062426
C82   C     C_R   0.731200 0.295854 0.620135 -0.113124
C83   C     C_R   0.731738 0.703940 0.379985 -0.117607
C84   C     C_R   0.316573 0.283677 0.646593 -0.148710
C85   C     C_R   0.681716 0.279771 0.353611 -0.165051
C86   C     C_R   0.305600 0.728070 0.627515 -0.094983
C87   C     C_2   0.880899 0.874843 0.771856 0.596653
C88   C     C_2   0.122157 0.072451 0.252297 0.617036
C89   C     C_2   0.904149 0.080243 0.741418 0.641972
C90   C     C_R   0.570315 0.354344 0.399212 -0.029314
C91   C     C_2   0.087588 0.815951 0.208003 0.563951
C92   C     C_2   0.103986 0.161235 0.776833 0.602464
C93   C     C_2   0.901845 0.920921 0.258029 0.644065
C94   C     C_2   0.114601 0.913834 0.748481 0.573606
C95   C     C_2   0.879387 0.127583 0.228289 0.624931
C96   C     C_2   0.411204 0.319251 0.291813 0.580212
C97   C     C_2   0.627792 0.593761 0.739751 0.610079
C98   C     C_2   0.387885 0.570970 0.242569 0.627253
C99   C     C_2   0.579880 0.297723 0.700057 0.565674
C100  C     C_2   0.581524 0.696015 0.297898 0.541439
C101  C     C_R   0.647900 0.575860 0.598018 -0.099911
C102  C     C_2   0.386827 0.400588 0.748592 0.626417
C103  C     C_2   0.625834 0.409406 0.256289 0.608355
C104  C     C_2   0.352886 0.600268 0.730804 0.644692
C105  C     C_2   0.655624 0.734750 0.919157 0.462966
C106  C     C_2   0.299499 0.251797 0.109955 0.557839
C107  C     C_2   0.682414 0.187532 0.875992 0.494364
C108  C     C_2   0.306535 0.695201 0.063200 0.602160
C109  C     C_2   0.360493 0.237871 0.917767 0.500675
C110  C     C_2   0.683159 0.806880 0.122342 0.498409
C111  C     C_2   0.160768 0.649507 0.857902 0.516063
C112  C     C_R   0.067233 0.857741 0.896096 -0.036844
C113  C     C_R   0.346000 0.418633 0.412913 -0.060600
C114  C     C_2   0.658847 0.269705 0.076505 0.466237
C115  C     C_2   0.186509 0.202942 0.432340 0.609386
C116  C     C_2   0.714010 0.854958 0.610471 0.525969
C117  C     C_2   0.197466 0.729338 0.386780 0.540636
C118  C     C_2   0.818544 0.209436 0.562641 0.606335
C119  C     C_2   0.817838 0.792367 0.436495 0.607243
C120  C     C_2   0.274782 0.156570 0.611074 0.576574
C121  C     C_2   0.709273 0.148537 0.386545 0.523875
C122  C     C_2   0.307087 0.864028 0.614847 0.530064
C123  C     C_2   0.771423 0.784348 0.939151 1.044540
C124  C     C_R   0.581195 0.344386 0.584786 -0.153260
C125  C     C_2   0.171257 0.228680 0.098701 1.031538
C126  C     C_2   0.814701 0.219845 0.891485 1.008541
C127  C     C_2   0.260788 0.820483 0.065975 1.039703
C128  C     C_2   0.242621 0.195790 0.942566 1.065158
C129  C     C_2   0.815889 0.779851 0.106930 1.012524
C130  C     C_2   0.183921 0.768555 0.906824 1.094686
C131  C     C_2   0.772410 0.215327 0.058548 1.042483
C132  C     C_2   0.230495 0.330336 0.426506 1.045247
C133  C     C_2   0.700759 0.729162 0.581407 1.096946
C134  C     C_2   0.327813 0.719461 0.395966 1.020751
C135  C     C_R   0.438640 0.635446 0.390359 -0.070057
C136  C     C_2   0.765363 0.331087 0.575328 1.026063
C137  C     C_2   0.766123 0.669660 0.425328 1.025583
C138  C     C_2   0.301001 0.281925 0.584838 1.074367
C139  C     C_2   0.697406 0.274488 0.415202 1.093930
C140  C     C_2   0.306628 0.743483 0.565562 1.076120
C141  C     C_2   0.100909 0.147382 0.353754 0.602598
C142  C     C_2   0.781657 0.924942 0.697018 0.605521
C143  C     C_2   0.142932 0.825519 0.317583 0.585823
C144  C     C_2   0.909362 0.160665 0.640199 0.602234
C145  C     C_2   0.909068 0.840135 0.358801 0.595363
C146  C     C_R   0.355509 0.426555 0.601974 -0.095618
C147  C     C_2   0.181255 0.104390 0.688826 0.621592
C148  C     C_2   0.778799 0.078399 0.301815 0.602810
C149  C     C_2   0.226815 0.932836 0.687012 0.475024
C150  C     C_2   0.582611 0.673738 0.833588 0.584797
C151  C     C_2   0.353807 0.342474 0.183416 0.605725
C152  C     C_2   0.618262 0.283858 0.814190 0.638514
C153  C     C_2   0.399210 0.646831 0.139480 0.593675
C154  C     C_2   0.429895 0.309034 0.835350 0.570096
C155  C     C_2   0.621620 0.708577 0.184178 0.622192
C156  C     C_2   0.224953 0.575948 0.771648 0.585042
C157  C     C_R   0.653071 0.581273 0.410654 -0.048056
C158  C     C_2   0.584645 0.331141 0.160018 0.586807
C159  C     C_R   0.417604 0.344358 0.416039 -0.153393
C160  C     C_R   0.573202 0.648061 0.597895 -0.038215
C161  C     C_R   0.646012 0.425791 0.399738 -0.099099
C162  C     C_R   0.348624 0.578783 0.591918 -0.120616
C163  C     C_R   0.581979 0.655801 0.415863 -0.148219
C164  C     C_R   0.139213 0.066248 0.106605 -0.064359
C165  C     C_R   0.431532 0.355724 0.602689 -0.031881
C166  C     C_R   0.364293 0.563440 0.390910 -0.032508
C167  C     C_R   0.652788 0.418661 0.589867 -0.043654
C168  C     C_R   0.727127 0.772089 0.840245 -0.020853
C169  C     C_R   0.228175 0.223349 0.191465 0.069310
C170  C     C_R   0.763018 0.195366 0.799554 0.077023
C171  C     C_R   0.257961 0.745979 0.149466 0.078347
C172  C     C_R   0.278502 0.221279 0.842186 -0.016723
C173  C     C_R   0.763719 0.801792 0.199140 0.073439
C174  C     C_R   0.193343 0.744659 0.803187 0.000970
C175  C     C_R   0.846362 0.920018 0.911801 -0.074945
C176  C     C_R   0.727661 0.230723 0.156918 -0.018679
C177  C     C_R   0.238245 0.253316 0.346904 0.085359
C178  C     C_R   0.704614 0.767793 0.682572 -0.013643
C179  C     C_R   0.270502 0.711005 0.304298 0.059523
C180  C     C_R   0.759222 0.246033 0.649073 0.081327
C181  C     C_R   0.759537 0.753320 0.350305 0.081765
C182  C     C_R   0.293044 0.239408 0.684630 -0.020376
C183  C     C_R   0.701961 0.235609 0.314208 -0.011901
C184  C     C_R   0.273684 0.765830 0.665322 0.027330
C185  C     C_R   0.157923 0.176869 0.331863 -0.142350
C186  C     C_R   0.081841 0.844033 0.084060 -0.150187
C187  C     C_R   0.764384 0.858921 0.707064 -0.071241
C188  C     C_R   0.183270 0.778216 0.291052 -0.127975
C189  C     C_R   0.848159 0.178822 0.662016 -0.143211
C190  C     C_R   0.847895 0.821328 0.337046 -0.130174
C191  C     C_R   0.217458 0.160093 0.704895 -0.080035
C192  C     C_R   0.761862 0.144348 0.291102 -0.072232
C193  C     C_R   0.226799 0.864113 0.690616 -0.153448
C194  C     C_R   0.642877 0.701749 0.817947 -0.071157
C195  C     C_R   0.313381 0.293159 0.207467 -0.143290
C196  C     C_R   0.667512 0.248391 0.785452 -0.165040
C197  C     C_R   0.938500 0.135877 0.890521 -0.030602
C198  C     C_R   0.341158 0.672191 0.162786 -0.133618
C199  C     C_R   0.367409 0.286186 0.820586 -0.062199
C200  C     C_R   0.669419 0.746190 0.213002 -0.157379
C201  C     C_R   0.231589 0.644746 0.773301 -0.052232
C202  C     C_R   0.643847 0.302159 0.177457 -0.068622
C203  C     C_R   0.774211 0.831149 0.761201 0.111529
C204  C     C_R   0.173601 0.175565 0.272940 0.126064
C205  C     C_R   0.831159 0.169762 0.720063 0.127019
C206  C     C_R   0.192784 0.775236 0.231111 0.119361
C207  C     C_R   0.216296 0.182532 0.761727 0.098271
C208  C     C_R   0.863584 0.935455 0.108574 -0.035853
C209  C     C_R   0.830846 0.829639 0.278960 0.125566
C210  C     C_R   0.197089 0.833640 0.736777 -0.038688
C211  C     C_R   0.772841 0.171840 0.237046 0.110046
C212  C     C_R   0.304462 0.285438 0.267022 0.122652
C213  C     C_R   0.662549 0.703244 0.760356 0.103806
C214  C     C_R   0.327371 0.669449 0.222080 0.128848
C215  C     C_R   0.683932 0.257787 0.727039 0.112378
C216  C     C_R   0.685210 0.738483 0.271763 0.111446
C217  C     C_R   0.344547 0.292477 0.764151 0.108122
C218  C     C_R   0.661729 0.300270 0.235620 0.107090
C219  C     C_R   0.153161 0.079828 0.910932 -0.011077
C220  C     C_R   0.265372 0.676504 0.730755 0.099391
C221  C     C_R   0.732059 0.786702 0.781294 0.026928
C222  C     C_R   0.218861 0.216464 0.251055 0.018314
C223  C     C_R   0.777026 0.197965 0.741027 0.006724
C224  C     C_R   0.243133 0.742016 0.208326 0.020284
C225  C     C_R   0.266924 0.215966 0.782770 0.033490
C226  C     C_R   0.777388 0.800061 0.257809 0.007659
C227  C     C_R   0.212459 0.771740 0.751048 0.120520
C228  C     C_R   0.731443 0.216523 0.216053 0.030905
C229  C     C_R   0.254034 0.251228 0.288330 0.016881
C230  C     C_R   0.918727 0.846398 0.910611 -0.099102
C231  C     C_R   0.698308 0.753618 0.741430 0.038750
C232  C     C_R   0.279803 0.706882 0.244662 0.019773
C233  C     C_R   0.739349 0.232715 0.705272 0.025431
C234  C     C_R   0.739987 0.765128 0.293690 0.026272
C235  C     C_R   0.302766 0.248122 0.743776 0.041225
C236  C     C_R   0.697017 0.249849 0.255226 0.040843
C237  C     C_R   0.249874 0.737958 0.715349 0.005006
C238  C     C_R   0.676784 0.734944 0.858923 -0.136467
C239  C     C_R   0.278500 0.257739 0.170005 -0.145221
C240  C     C_R   0.704714 0.211395 0.819810 -0.096804
H1    H     H_    0.940023 0.198736 0.091964 0.129272
H2    H     H_    0.038432 0.178941 0.117562 0.103421
H3    H     H_    0.186177 0.952079 0.888792 0.099138
H4    H     H_    0.802178 0.057558 0.089992 0.143681
H5    H     H_    0.061116 0.199958 0.910767 0.126465
H6    H     H_    0.965039 0.823618 0.120173 0.113473
H7    H     H_    0.822091 0.039894 0.880953 0.133081
H8    H     H_    0.198033 0.940185 0.090581 0.109726
H9    H     H_    0.446081 0.695232 0.597782 0.140332
H10   H     H_    0.544478 0.312539 0.391605 0.123162
H11   H     H_    0.691064 0.552736 0.604997 0.122450
H12   H     H_    0.040999 0.816614 0.887059 0.112443
H13   H     H_    0.302276 0.441552 0.409381 0.116455
H14   H     H_    0.559573 0.299390 0.583633 0.131509
H15   H     H_    0.464990 0.676147 0.379669 0.122048
H16   H     H_    0.312266 0.449078 0.609720 0.134899
H17   H     H_    0.696469 0.558025 0.405851 0.108343
H18   H     H_    0.439631 0.299644 0.414882 0.127345
H19   H     H_    0.548981 0.690975 0.604086 0.124908
H20   H     H_    0.689167 0.448843 0.392269 0.122978
H21   H     H_    0.304384 0.556728 0.595475 0.141947
H22   H     H_    0.560653 0.700898 0.416768 0.137674
H23   H     H_    0.181163 0.041893 0.115905 0.113711
H24   H     H_    0.457385 0.314000 0.610665 0.128867
H25   H     H_    0.322908 0.538701 0.380572 0.114241
H26   H     H_    0.696329 0.441772 0.594721 0.105997
H27   H     H_    0.909996 0.904006 0.797901 0.020611
H28   H     H_    0.084529 0.051356 0.229219 0.011092
H29   H     H_    0.944210 0.067529 0.766236 0.016151
H30   H     H_    0.066085 0.859438 0.196375 0.016336
H31   H     H_    0.071758 0.132438 0.800060 0.016845
H32   H     H_    0.941721 0.934745 0.233461 -0.006237
H33   H     H_    0.108082 0.917605 0.702589 0.065988
H34   H     H_    0.802235 0.942397 0.909853 0.142010
H35   H     H_    0.908773 0.098126 0.202943 -0.003354
H36   H     H_    0.435215 0.360518 0.305518 0.027300
H37   H     H_    0.597253 0.566432 0.713424 0.009713
H38   H     H_    0.427581 0.553335 0.265236 0.013463
H39   H     H_    0.558169 0.342734 0.697028 0.046152
H40   H     H_    0.561090 0.650515 0.302783 0.035018
H41   H     H_    0.417200 0.428417 0.722271 -0.000102
H42   H     H_    0.594125 0.436039 0.281901 0.008623
H43   H     H_    0.380798 0.569200 0.705692 -0.009433
H44   H     H_    0.643849 0.777982 0.939636 0.055442
H45   H     H_    0.060031 0.799108 0.084152 0.131235
H46   H     H_    0.308111 0.292522 0.083843 0.067187
H47   H     H_    0.651118 0.214094 0.902012 0.016668
H48   H     H_    0.350404 0.691074 0.042015 0.016770
H49   H     H_    0.367130 0.190572 0.932189 0.049481
H50   H     H_    0.653127 0.779059 0.096024 0.021848
H51   H     H_    0.114327 0.664916 0.865737 0.039107
H52   H     H_    0.645625 0.227028 0.055722 0.053370
H53   H     H_    0.141704 0.197278 0.451496 0.023012
H54   H     H_    0.667250 0.852677 0.595054 0.045118
H55   H     H_    0.179112 0.766509 0.412458 0.006753
H56   H     H_    0.964926 0.176485 0.879823 0.102313
H57   H     H_    0.864063 0.211018 0.544345 0.021788
H58   H     H_    0.863120 0.790293 0.455325 0.022250
H59   H     H_    0.321928 0.156708 0.596612 0.037935
H60   H     H_    0.662156 0.150927 0.400877 0.043008
H61   H     H_    0.288437 0.896469 0.583966 0.099374
H62   H     H_    0.738425 0.811591 0.014793 0.352641
H63   H     H_    0.159450 0.308437 0.054865 0.356390
H64   H     H_    0.796011 0.300439 0.931206 0.376011
H65   H     H_    0.339869 0.850010 0.030719 0.339175
H66   H     H_    0.259310 0.144025 0.013129 0.383041
H67   H     H_    0.822115 0.959926 0.118900 0.133030
H68   H     H_    0.800146 0.699040 0.066442 0.374709
H69   H     H_    0.149503 0.750173 0.985222 0.367977
H70   H     H_    0.739456 0.186468 0.983256 0.351643
H71   H     H_    0.148113 0.359505 0.454290 0.348529
H72   H     H_    0.670697 0.743595 0.500638 0.365154
H73   H     H_    0.345060 0.799046 0.437860 0.348416
H74   H     H_    0.845398 0.369813 0.551350 0.342313
H75   H     H_    0.846650 0.632871 0.450294 0.342438
H76   H     H_    0.330759 0.267588 0.504163 0.364817
H77   H     H_    0.667616 0.259671 0.495933 0.365106
H78   H     H_    0.196550 0.056327 0.907296 0.127258
H79   H     H_    0.257603 0.771531 0.496950 0.327259
H80   H     H_    0.100946 0.122107 0.393950 0.023039
H81   H     H_    0.792351 0.942225 0.654702 0.111409
H82   H     H_    0.111534 0.812897 0.351591 0.042617
H83   H     H_    0.913727 0.137132 0.599576 0.020121
H84   H     H_    0.913455 0.863346 0.399591 0.019962
H85   H     H_    0.161321 0.099984 0.646692 0.121833
H86   H     H_    0.789135 0.061530 0.344357 0.113389
H87   H     H_    0.232052 0.959555 0.725816 0.081077
H88   H     H_    0.574212 0.655618 0.876127 0.098430
H89   H     H_    0.940285 0.801677 0.907022 0.124394
H90   H     H_    0.381848 0.333780 0.146092 0.030640
H91   H     H_    0.583749 0.260101 0.839386 0.018228
H92   H     H_    0.399415 0.621067 0.099838 0.029174
H93   H     H_    0.441413 0.322728 0.878468 0.098473
H94   H     H_    0.586803 0.730666 0.158096 0.036937
H95   H     H_    0.215444 0.549252 0.809867 0.106693
H96   H     H_    0.578270 0.350110 0.117476 0.091034
N1    N     N_R   0.940200 0.105310 0.059970 -0.056985
N2    N     N_R   0.059800 0.105310 0.059970 -0.037879
N3    N     N_R   0.105310 0.940200 0.940030 -0.057012
N4    N     N_R   0.894690 0.059800 0.059970 -0.062441
N5    N     N_R   0.059800 0.105310 0.940030 -0.053002
N6    N     N_R   0.940200 0.894690 0.059970 -0.034867
N7    N     N_R   0.894690 0.059800 0.940030 -0.045041
N8    N     N_R   0.105310 0.940200 0.059970 -0.059614
N9    N     N_R   0.440200 0.605310 0.559970 -0.057711
N10   N     N_R   0.559800 0.394690 0.440030 -0.048878
N11   N     N_R   0.605310 0.559800 0.559970 -0.049074
N12   N     N_R   0.059800 0.894690 0.940030 -0.049322
N13   N     N_R   0.394690 0.440200 0.440030 -0.060135
N14   N     N_R   0.559800 0.394690 0.559970 -0.054346
N15   N     N_R   0.440200 0.605310 0.440030 -0.033068
N16   N     N_R   0.394690 0.440200 0.559970 -0.046286
N17   N     N_R   0.605310 0.559800 0.440030 -0.055720
N18   N     N_R   0.440200 0.394690 0.440030 -0.055088
N19   N     N_R   0.559800 0.605310 0.559970 -0.054119
N20   N     N_R   0.605310 0.440200 0.440030 -0.047302
N21   N     N_R   0.394690 0.559800 0.559970 -0.053251
N22   N     N_R   0.559800 0.605310 0.440030 -0.057048
N23   N     N_R   0.105310 0.059800 0.059970 -0.043061
N24   N     N_R   0.440200 0.394690 0.559970 -0.046103
N25   N     N_R   0.394690 0.559800 0.440030 -0.038893
N26   N     N_R   0.605310 0.440200 0.559970 -0.054499
N27   N     N_R   0.894690 0.940200 0.940030 -0.060231
N28   N     N_R   0.059800 0.894690 0.059970 -0.058541
N29   N     N_R   0.940200 0.105310 0.940030 -0.034520
N30   N     N_R   0.894690 0.940200 0.059970 -0.044108
N31   N     N_R   0.105310 0.059800 0.940030 -0.055277
N32   N     N_R   0.940200 0.894690 0.940030 -0.051615
Ni1   Ni    Ni4+2 1.000000 0.104370 0.000000 0.255858
Ni2   Ni    Ni4+2 0.000000 0.895630 0.000000 0.257275
Ni3   Ni    Ni4+2 0.104370 0.000000 0.000000 0.249324
Ni4   Ni    Ni4+2 0.895630 0.000000 0.000000 0.267867
Ni5   Ni    Ni4+2 0.500000 0.604370 0.500000 0.260799
Ni6   Ni    Ni4+2 0.500000 0.395630 0.500000 0.243234
Ni7   Ni    Ni4+2 0.604370 0.500000 0.500000 0.248806
Ni8   Ni    Ni4+2 0.395630 0.500000 0.500000 0.259260
O1    O     O_2   0.897109 0.863856 0.722998 -0.557157
O2    O     O_2   0.647615 0.570685 0.783797 -0.542602
O3    O     O_2   0.365993 0.540057 0.204097 -0.538641
O4    O     O_2   0.548598 0.252404 0.711191 -0.563990
O5    O     O_2   0.549125 0.739456 0.283757 -0.566553
O6    O     O_2   0.371343 0.420748 0.795047 -0.544696
O7    O     O_2   0.647251 0.433325 0.213295 -0.542214
O8    O     O_2   0.355958 0.596199 0.782844 -0.532759
O9    O     O_2   0.652677 0.686556 0.946496 -0.521940
O10   O     O_2   0.309468 0.200776 0.090167 -0.568929
O11   O     O_2   0.697903 0.136362 0.892943 -0.560531
O12   O     O_2   0.145776 0.043512 0.291484 -0.546128
O13   O     O_2   0.260020 0.689195 0.034844 -0.520481
O14   O     O_2   0.372623 0.280319 0.950062 -0.539258
O15   O     O_2   0.696698 0.858763 0.105698 -0.556633
O16   O     O_2   0.182969 0.610127 0.889202 -0.521680
O17   O     O_2   0.658707 0.317995 0.049181 -0.520569
O18   O     O_2   0.231524 0.199764 0.463115 -0.535815
O19   O     O_2   0.753117 0.878421 0.580073 -0.519220
O20   O     O_2   0.199268 0.677330 0.407356 -0.523385
O21   O     O_2   0.774853 0.202928 0.530744 -0.520361
O22   O     O_2   0.773951 0.800757 0.467638 -0.524550
O23   O     O_2   0.889928 0.048376 0.700568 -0.565866
O24   O     O_2   0.235861 0.133636 0.580388 -0.531309
O25   O     O_2   0.747520 0.125099 0.417887 -0.518437
O26   O     O_2   0.362374 0.856411 0.616727 -0.556378
O27   O     O_2   0.792347 0.736233 0.958554 -0.591807
O28   O     O_R   0.744744 0.828157 0.974817 -0.782388
O29   O     O_2   0.164352 0.197699 0.055704 -0.625570
O30   O     O_R   0.167929 0.293169 0.095170 -0.788066
O31   O     O_2   0.839784 0.198950 0.934019 -0.616915
O32   O     O_R   0.789878 0.279434 0.893027 -0.782987
O33   O     O_2   0.231778 0.833490 0.022885 -0.625202
O34   O     O_2   0.057273 0.776841 0.233078 -0.550068
O35   O     O_R   0.323783 0.831542 0.067722 -0.800552
O36   O     O_2   0.237525 0.243780 0.969473 -0.580727
O37   O     O_R   0.256719 0.140127 0.970201 -0.814161
O38   O     O_2   0.838779 0.802759 0.064187 -0.617135
O39   O     O_R   0.793966 0.719063 0.105055 -0.780716
O40   O     O_2   0.236105 0.757052 0.922335 -0.542779
O41   O     O_R   0.135595 0.763331 0.945630 -0.814731
O42   O     O_2   0.794783 0.262334 0.038175 -0.589458
O43   O     O_R   0.744826 0.171130 0.023762 -0.784424
O44   O     O_2   0.255844 0.349276 0.469491 -0.620469
O45   O     O_2   0.086609 0.186615 0.732956 -0.537813
O46   O     O_R   0.167355 0.338221 0.420253 -0.793466
O47   O     O_2   0.754397 0.727786 0.566880 -0.546349
O48   O     O_R   0.654476 0.737765 0.540848 -0.805699
O49   O     O_2   0.327573 0.688721 0.439951 -0.588215
O50   O     O_R   0.336792 0.783436 0.397857 -0.792196
O51   O     O_2   0.740548 0.346419 0.530640 -0.620186
O52   O     O_R   0.826722 0.346295 0.584674 -0.793784
O53   O     O_2   0.741089 0.653561 0.469663 -0.624019
O54   O     O_R   0.827896 0.655915 0.416733 -0.792447
O55   O     O_2   0.247554 0.286102 0.570009 -0.551372
O56   O     O_2   0.886661 0.952367 0.298810 -0.565992
O57   O     O_R   0.347054 0.272290 0.544428 -0.803969
O58   O     O_2   0.751029 0.276344 0.429836 -0.539780
O59   O     O_R   0.651235 0.265411 0.455738 -0.809054
O60   O     O_2   0.355013 0.746919 0.539718 -0.614288
O61   O     O_R   0.251652 0.758082 0.538097 -0.786002
O62   O     O_2   0.052884 0.152648 0.327492 -0.541043
O63   O     O_2   0.782766 0.961492 0.736641 -0.589800
O64   O     O_2   0.145737 0.879539 0.302248 -0.543756
O65   O     O_2   0.955615 0.173820 0.666795 -0.534697
O66   O     O_2   0.955318 0.827886 0.331937 -0.553649
O67   O     O_2   0.087608 0.950340 0.779002 -0.572547
O68   O     O_2   0.172751 0.062746 0.723390 -0.615020
O69   O     O_2   0.780107 0.041481 0.262496 -0.588488
O70   O     O_2   0.218942 0.959745 0.641567 -0.563581
O71   O     O_2   0.540667 0.672528 0.799080 -0.586129
O72   O     O_2   0.354467 0.394092 0.204316 -0.540812
O73   O     O_2   0.617302 0.340252 0.811259 -0.533918
O74   O     O_2   0.447717 0.656164 0.163895 -0.558150
O75   O     O_2   0.470016 0.311323 0.799146 -0.584562
O76   O     O_2   0.622134 0.652247 0.188198 -0.532752
O77   O     O_2   0.228413 0.548231 0.726401 -0.600351
O78   O     O_2   0.894926 0.139122 0.277259 -0.530607
O79   O     O_2   0.541338 0.332253 0.192925 -0.568551
O80   O     O_2   0.439033 0.280607 0.264306 -0.544626

loop_
_geom_bond_atom_site_label_1
_geom_bond_atom_site_label_2
_ccdc_geom_bond_type
C23   C58   S    
C132  O44   D    
C165  N24   A    
C135  N15   A    
C39   C92   S    
C215  C233  A    
C160  N19   A    
C131  O43   S    
C40   C93   S    
C57   H7    S    
H75   O54   S    
C158  O79   D    
C81   C134  S    
N3    N12   A    
C90   H10   S    
C13   C18   A    
C154  O75   D    
C151  O72   D    
C2    N2    A    
C20   C175  A    
C144  C189  S    
C111  H51   S    
C82   C180  A    
C27   C90   A    
C136  O51   D    
C96   O80   D    
C16   C122  S    
C150  C194  S    
C16   C193  A    
C223  C233  A    
C109  O14   D    
C4    C199  A    
C38   C55   A    
C222  C229  A    
N2    N23   A    
C48   C65   A    
C183  C236  A    
C163  N22   A    
C161  N20   A    
C150  O71   D    
C50   C103  S    
C23   C46   A    
C143  H82   S    
C95   O78   D    
N10   N20   A    
C14   C182  A    
C5    C200  A    
C48   C100  S    
C67   C85   A    
C40   C58   A    
C125  O30   S    
C42   C95   S    
C123  O28   S    
C201  C220  A    
C134  O50   S    
C47   C64   A    
C21   C55   S    
C119  O22   D    
C88   H28   S    
C6    C174  A    
C162  H21   S    
C51   C104  S    
C40   C209  A    
C205  C223  A    
C80   C133  S    
C49   C217  A    
C99   O4    D    
N23   Ni3   S    
C174  C227  A    
C172  C225  A    
C41   C94   S    
C42   C211  A    
C188  C206  A    
H72   O48   S    
C43   C96   S    
C148  H86   S    
C149  O70   D    
C132  O46   S    
C106  C239  S    
C133  O47   D    
C209  C226  A    
C119  H58   S    
C219  N31   A    
C53   C71   A    
N1    N4    A    
C43   C61   A    
C141  O62   D    
C29   C113  A    
C2    C19   A    
C9    C116  S    
N16   Ni8   S    
C136  O52   S    
C123  O27   D    
N5    N31   A    
C16   C184  A    
C107  C240  S    
C114  H52   S    
C116  O19   D    
C84   C182  A    
C142  O63   D    
C112  N12   A    
C167  H26   S    
C110  O15   D    
C50   C218  A    
C24   H4    S    
C34   C87   S    
C147  H85   S    
C100  O5    D    
C117  O20   D    
C94   O67   D    
C91   O34   D    
C87   O1    D    
C26   C69   S    
C51   C69   A    
C4    C109  S    
C145  C190  S    
C78   C177  A    
C6    C111  S    
C22   C197  A    
C168  C221  A    
C153  H92   S    
C217  C235  A    
C194  C213  A    
C21   C186  A    
C22   C54   S    
C68   H8    S    
C142  C187  S    
C117  H55   S    
C10   C179  A    
C130  O41   S    
C62   C80   A    
C33   C163  A    
C30   C167  A    
C104  H43   S    
N8    N28   A    
C5    C110  S    
C28   C160  A    
C121  H60   S    
C47   C99   S    
C83   C181  A    
C77   C131  S    
C148  O69   D    
C97   H37   S    
N15   N25   A    
C149  C193  S    
C76   C130  S    
C181  C234  A    
H62   O28   S    
C206  C224  A    
C10   C188  A    
C36   C53   A    
C50   C67   A    
C13   N3    A    
C93   O56   D    
C230  N32   A    
C140  O61   S    
C213  C231  A    
N29   Ni1   S    
C155  H94   S    
H68   O39   S    
C24   N4    A    
C137  O54   S    
C139  O58   D    
C102  H41   S    
C149  H87   S    
C164  N23   A    
C156  C201  S    
C8    C177  A    
C196  C215  A    
H66   O37   S    
C176  C228  A    
C29   C61   S    
C49   C66   A    
C152  C196  S    
C79   N9    A    
C208  H67   S    
C31   C63   S    
C46   H6    S    
C6    C201  A    
C159  N18   A    
C156  H95   S    
C168  C238  A    
C153  C198  S    
C160  H19   S    
C15   C183  A    
C107  H47   S    
C108  H48   S    
C12   C119  S    
C169  C222  A    
C120  O24   D    
C7    C176  A    
C191  C207  A    
C194  C238  A    
C2    H2    S    
C113  H13   S    
C152  O73   D    
C41   C210  A    
C150  H88   S    
C77   C176  A    
C211  C228  A    
N16   N24   A    
C21   C68   A    
C96   H36   S    
C14   C191  A    
C35   H5    S    
N14   N26   A    
C4    C172  A    
N9    N21   A    
C5    C173  A    
H65   O35   S    
C3    C108  S    
C1    C17   A    
C226  C234  A    
N6    Ni2   S    
N11   N19   A    
C202  C218  A    
C76   C174  A    
C195  C212  A    
C144  H83   S    
C27   C161  A    
C212  C229  A    
H69   O41   S    
C193  C210  A    
C200  C216  A    
C98   O3    D    
C61   C78   A    
C27   C67   S    
C151  H90   S    
C55   C73   A    
C18   C59   S    
C107  O11   D    
C105  O9    D    
H71   O46   S    
C11   C118  S    
N12   Ni2   S    
C59   C76   A    
C87   H27   S    
C28   C62   S    
C148  C192  S    
C97   O2    D    
H79   O61   S    
C30   C64   S    
C115  H53   S    
C216  C234  A    
C143  C188  S    
C199  C217  A    
C115  O18   D    
C91   H30   S    
C214  C232  A    
N32   Ni2   S    
C109  H49   S    
C116  H54   S    
C141  H80   S    
C125  O29   D    
C7    C114  S    
N6    N30   A    
C142  H81   S    
C18   C112  A    
C45   C98   S    
C23   C208  A    
C121  O25   D    
C32   C146  A    
C88   O12   D    
C187  C203  A    
C129  O39   S    
C3    C198  A    
C95   H35   S    
C126  O31   D    
C151  C195  S    
C28   C101  A    
C189  C205  A    
C47   C215  A    
C167  N26   A    
C71   C169  A    
N25   Ni8   S    
N13   Ni8   S    
C147  O68   D    
C15   C121  S    
C103  H42   S    
C145  O66   D    
C85   C183  A    
C32   C165  A    
C86   C184  A    
C101  H11   S    
C37   C205  A    
C94   H33   S    
C140  O60   D    
C33   C157  A    
N18   Ni6   S    
C20   C230  A    
C128  O36   D    
H70   O43   S    
C44   C213  A    
N3    Ni3   S    
C56   C74   A    
C81   C179  A    
C124  H14   S    
C98   H38   S    
H76   O57   S    
C73   C127  S    
C197  N29   A    
C38   C91   S    
C26   C162  A    
C36   C88   S    
C72   C126  S    
C46   N6    A    
C80   C178  A    
N17   Ni7   S    
C120  H59   S    
C70   C168  A    
N19   Ni5   S    
C156  O77   D    
H63   O30   S    
C158  H96   S    
C45   C214  A    
C165  H24   S    
C43   C212  A    
C182  C235  A    
C25   C35   A    
C161  H20   S    
C31   C135  A    
N9    Ni5   S    
C180  C233  A    
H77   O59   S    
C14   C120  S    
C8    C185  A    
N11   Ni7   S    
C220  C237  A    
C25   C219  A    
C162  N21   A    
N30   Ni4   S    
C184  C237  A    
C83   C137  S    
C185  C204  A    
C32   C66   S    
H73   O50   S    
C114  O17   D    
C195  C239  A    
C92   H31   S    
C155  O76   D    
C204  C222  A    
C106  H46   S    
C126  O32   S    
C153  O74   D    
N2    Ni1   S    
C186  H45   S    
C103  O7    D    
C101  N11   A    
C34   C52   A    
C26   C79   A    
C37   C89   S    
N8    Ni3   S    
C218  C236  A    
C178  C231  A    
C154  C199  S    
C139  O59   S    
C68   N8    A    
C163  H22   S    
C166  H25   S    
C128  O37   S    
C219  H78   S    
N27   Ni4   S    
C124  N14   A    
C170  C223  A    
C169  C239  A    
C133  O48   S    
C10   C117  S    
C71   C125  S    
C145  H84   S    
C11   C180  A    
C131  O42   D    
C135  H15   S    
C179  C232  A    
C89   O23   D    
C9    C178  A    
C1    N1    A    
C147  C191  S    
C15   C192  A    
C48   C216  A    
C152  H91   S    
C137  O53   D    
C12   C181  A    
N26   Ni7   S    
C75   C173  A    
C122  H61   S    
C210  C227  A    
H74   O52   S    
C104  O8    D    
C25   C56   S    
C157  N17   A    
C166  N25   A    
C3    C171  A    
C22   C57   A    
C171  C224  A    
C33   C65   S    
C29   C159  A    
N15   Ni5   S    
C63   C81   A    
C89   H29   S    
N10   Ni6   S    
C190  C209  A    
C7    C202  A    
C186  N28   A    
C173  C226  A    
C224  C232  A    
C177  C229  A    
C65   C83   A    
N28   Ni2   S    
C227  C237  A    
C164  H23   S    
C105  H44   S    
C203  C221  A    
C208  N30   A    
C106  O10   D    
C78   C132  S    
C8    C115  S    
C70   C123  S    
C207  C225  A    
C74   C128  S    
C39   C56   A    
C102  O6    D    
C39   C207  A    
C105  C238  S    
C49   C102  S    
C73   C171  A    
C146  N16   A    
C85   C139  S    
C74   C172  A    
N17   N22   A    
C86   C140  S    
C19   C164  A    
C143  O64   D    
C19   C53   S    
C110  H50   S    
C197  H56   S    
C84   C138  S    
C108  O13   D    
N4    Ni4   S    
C100  H40   S    
C35   N5    A    
C127  O33   D    
C99   H39   S    
C134  O49   D    
C58   C75   A    
C112  H12   S    
N24   Ni6   S    
C122  O26   D    
C157  H17   S    
C60   C77   A    
C17   C24   A    
C225  C235  A    
C41   C59   A    
C42   C60   A    
C138  O55   D    
C17   C60   S    
C44   C62   A    
C138  O57   S    
C45   C63   A    
N27   N32   A    
C72   C170  A    
C192  C211  A    
C44   C97   S    
C31   C166  A    
C34   C203  A    
C118  O21   D    
C221  C231  A    
C79   H9    S    
N20   Ni7   S    
C64   C82   A    
N7    Ni4   S    
N22   Ni5   S    
C1    H1    S    
C37   C54   A    
C230  H89   S    
C30   C124  A    
C159  H18   S    
H64   O32   S    
C158  C202  S    
C90   N10   A    
C154  H93   S    
C141  C185  S    
C127  O35   S    
C130  O40   D    
C196  C240  A    
C170  C240  A    
C38   C206  A    
C118  H57   S    
C146  H16   S    
N21   Ni8   S    
C92   O45   D    
C9    C187  A    
N31   Ni3   S    
N7    N29   A    
C51   C220  A    
C12   C190  A    
C11   C189  A    
N5    Ni1   S    
C175  H34   S    
C20   C52   S    
N14   Ni6   S    
C113  N13   A    
C13   H3    S    
C93   H32   S    
N13   N18   A    
C129  O38   D    
C175  N27   A    
C144  O65   D    
C82   C136  S    
C111  O16   D    
C228  C236  A    
C52   C70   A    
C69   C86   A    
C66   C84   A    
C57   N7    A    
C54   C72   A    
N1    Ni1   S    
C36   C204  A    
C155  C200  S    
C75   C129  S    
C198  C214  A    
