data_mof_unit_18267.cif
_audit_creation_date              2013-03-05T16:07:36-0500
_audit_creation_method            fapswitch 2.2
_symmetry_space_group_name_H-M    P1
_symmetry_Int_Tables_number       1
_space_group_crystal_system       triclinic
_cell_length_a                    21.644393
_cell_length_b                    7.071177
_cell_length_c                    14.81433
_cell_angle_alpha                 90.007805
_cell_angle_beta                  106.089323
_cell_angle_gamma                 89.959648
_cell_volume                      2178.54205536

loop_
_atom_site_label
_atom_site_type_symbol
_atom_site_description
_atom_site_fract_x
_atom_site_fract_y
_atom_site_fract_z
_atom_type_partial_charge
O1    O     O_R   0.585850 0.505770 0.002130 -0.606142
O2    O     O_R   0.414150 0.005770 0.997870 -0.598784
O3    O     O_R   0.467530 0.173560 0.861970 -0.574782
O4    O     O_R   0.532470 0.673560 0.138030 -0.579755
C1    C     C_R   0.456262 0.344612 0.825042 1.025202
C2    C     C_R   0.543981 0.844633 0.174900 1.023203
O5    O     O_R   0.588690 0.175900 0.993250 -0.587331
O6    O     O_R   0.411310 0.675900 0.006750 -0.600032
O7    O     O_R   0.536170 0.007950 0.130090 -0.599082
O8    O     O_R   0.463830 0.507950 0.869910 -0.599220
C3    C     C_R   0.615096 0.344583 0.997878 0.991794
C4    C     C_R   0.384864 0.844699 0.001845 1.001700
O9    O     O_3   0.482630 0.339970 0.044740 -0.284161
O10   O     O_3   0.517370 0.839970 0.955260 -0.282713
V1    V     V_3+5 0.503220 0.064200 0.991700 1.203773
V2    V     V_3+5 0.496780 0.564200 0.008300 1.194569
C5    C     C_R   0.277243 0.008363 0.958711 0.149741
C6    C     C_R   0.707507 0.509738 0.958311 0.246063
C7    C     C_R   0.315611 0.852866 0.997730 -0.211767
C8    C     C_R   0.682958 0.352617 0.994549 -0.216478
C9    C     C_R   0.284965 0.700530 0.028927 -0.109715
C10   C     C_R   0.725164 0.199582 0.025930 -0.155228
H1    H     H_    0.312243 0.576623 0.058850 0.153646
H2    H     H_    0.708522 0.075011 0.054272 0.139286
C11   C     C_R   0.219731 0.711785 0.027788 -0.159092
C12   C     C_R   0.790525 0.211414 0.027640 -0.153666
H3    H     H_    0.198853 0.595437 0.056519 0.137340
H4    H     H_    0.822053 0.094372 0.056220 0.145089
C13   C     C_R   0.183143 0.876101 0.995742 -0.221071
C14   C     C_R   0.815797 0.377226 0.998602 -0.229280
C15   C     C_R   0.212819 0.019914 0.957929 0.188209
C16   C     C_R   0.772140 0.521732 0.960240 0.179763
C17   C     C_3   0.217814 0.226104 0.979505 -0.480058
C18   C     C_3   0.774884 0.727276 0.982998 -0.504272
C19   C     C_3   0.287992 0.213640 0.979933 -0.456579
C20   C     C_3   0.704353 0.714244 0.980628 -0.477867
H5    H     H_    0.211222 0.257954 0.049755 0.191078
H6    H     H_    0.783334 0.815133 0.925330 0.200780
H7    H     H_    0.188151 0.312531 0.920626 0.199346
H8    H     H_    0.807060 0.757569 0.054185 0.198602
H9    H     H_    0.322071 0.238860 0.050304 0.213007
H10   H     H_    0.672104 0.794360 0.921508 0.221599
H11   H     H_    0.298762 0.292360 0.921114 0.178940
H12   H     H_    0.695673 0.737448 0.050365 0.179939
C21   C     C_R   0.927240 0.883078 0.723082 -0.156688
C22   C     C_R   0.072940 0.384393 0.276989 -0.152334
C23   C     C_R   0.570472 0.854479 0.277181 -0.258867
C24   C     C_R   0.429830 0.353289 0.722692 -0.259489
C25   C     C_R   0.940120 0.852263 0.566148 0.448540
C26   C     C_R   0.060345 0.374540 0.434670 0.448824
C27   C     C_R   0.966669 0.867886 0.663503 -0.227703
C28   C     C_R   0.033663 0.378491 0.337051 -0.233163
C29   C     C_R   0.860643 0.888300 0.686388 -0.220761
C30   C     C_R   0.139593 0.383332 0.313209 -0.218842
C31   C     C_R   0.831383 0.874215 0.588633 0.092453
C32   C     C_R   0.169110 0.382198 0.411207 0.091163
C33   C     C_R   0.872032 0.846512 0.528736 -0.022861
C34   C     C_R   0.128415 0.384006 0.472261 -0.018912
C35   C     C_R   0.763034 0.883010 0.549078 0.082153
C36   C     C_R   0.237655 0.381503 0.450148 0.081631
C37   C     C_R   0.735781 0.850207 0.450845 0.079171
C38   C     C_R   0.264665 0.385207 0.549812 0.078396
C39   C     C_R   0.777659 0.805812 0.395934 -0.223194
C40   C     C_R   0.222610 0.403016 0.606923 -0.225221
C41   C     C_R   0.843866 0.805449 0.433802 -0.083745
C42   C     C_R   0.156435 0.403190 0.569049 -0.079148
C43   C     C_R   0.721105 0.926829 0.604332 -0.194201
C44   C     C_R   0.280196 0.377117 0.392835 -0.194053
C45   C     C_R   0.655050 0.935013 0.565600 -0.113808
C46   C     C_R   0.346353 0.375656 0.431284 -0.105168
C47   C     C_R   0.627820 0.903918 0.470030 0.103734
C48   C     C_R   0.373195 0.372864 0.528213 0.099920
C49   C     C_R   0.667520 0.862105 0.410972 0.128450
C50   C     C_R   0.332980 0.374919 0.589027 0.126186
C51   C     C_R   0.560882 0.917745 0.433179 -0.251014
C52   C     C_R   0.440295 0.365756 0.564375 -0.247608
C53   C     C_R   0.531388 0.892718 0.337083 0.348420
C54   C     C_R   0.469498 0.355681 0.661304 0.341417
C55   C     C_R   0.637242 0.838687 0.313927 -0.281805
C56   C     C_R   0.362842 0.362775 0.686700 -0.279335
H13   H     H_    0.872590 0.766269 0.387584 0.182396
H14   H     H_    0.127631 0.423776 0.617267 0.181375
H15   H     H_    0.664143 0.813330 0.263872 0.113521
H16   H     H_    0.335430 0.356343 0.737269 0.114282
H17   H     H_    0.624969 0.969331 0.610962 0.170226
H18   H     H_    0.376883 0.373610 0.384302 0.172557
H19   H     H_    0.018405 0.869907 0.693177 0.157280
H20   H     H_    0.981940 0.373984 0.307439 0.155110
H21   H     H_    0.833212 0.897694 0.736796 0.107842
H22   H     H_    0.166652 0.386643 0.262264 0.104655
H23   H     H_    0.760977 0.769578 0.322635 0.127998
H24   H     H_    0.239283 0.421163 0.681936 0.128501
H25   H     H_    0.737665 0.959978 0.678007 0.139756
H26   H     H_    0.264333 0.374579 0.317344 0.136057
H27   H     H_    0.531372 0.948211 0.479808 0.174506
H28   H     H_    0.470146 0.364711 0.516448 0.178350
O11   O     O_R   0.036080 0.231270 0.130120 -0.588305
O12   O     O_R   0.963920 0.731270 0.869880 -0.589317
O13   O     O_R   0.911300 0.558970 0.006750 -0.596058
O14   O     O_R   0.088700 0.058970 0.993250 -0.596291
C57   C     C_R   0.884860 0.389969 0.001916 0.937978
C58   C     C_R   0.115207 0.889858 0.998397 0.935543
O15   O     O_R   0.032450 0.561140 0.138040 -0.587288
O16   O     O_R   0.967550 0.061140 0.861960 -0.584538
O17   O     O_R   0.085870 0.728910 0.002130 -0.598130
O18   O     O_R   0.914130 0.228910 0.997870 -0.597218
C59   C     C_R   0.044687 0.392470 0.175212 0.951518
C60   C     C_R   0.955286 0.892427 0.824820 0.956652
O19   O     O_3   0.017320 0.394650 0.955270 -0.278628
O20   O     O_3   0.982680 0.894650 0.044730 -0.279431
V3    V     V_3+5 0.996780 0.670490 0.008300 1.174896
V4    V     V_3+5 0.003220 0.170490 0.991700 1.177109
N1    N     N_R   0.982989 0.847664 0.507010 0.255182
O21   O     O_R   0.040802 0.779638 0.539459 -0.401270
O22   O     O_R   0.969643 0.944058 0.429149 -0.392143
N2    N     N_R   0.017626 0.356397 0.493594 0.253281
O23   O     O_R   0.959241 0.422043 0.465067 -0.401064
O24   O     O_R   0.032156 0.244682 0.566221 -0.396291
N3    N     N_R   0.462414 0.908206 0.302111 0.227044
O25   O     O_R   0.430839 0.813755 0.228402 -0.446446
O26   O     O_R   0.430062 0.002772 0.349220 -0.420818
N4    N     N_R   0.538743 0.348595 0.695079 0.220834
O27   O     O_R   0.567386 0.265577 0.773919 -0.446218
O28   O     O_R   0.573765 0.411741 0.642978 -0.413131

loop_
_geom_bond_atom_site_label_1
_geom_bond_atom_site_label_2
_geom_bond_distance
_ccdc_geom_bond_type
C25   N1    1.442235 S    
C39   C41   1.386610 A    
C31   C35   1.433594 A    
C20   H10   1.111737 S    
O1    C3    1.313330 A    
C23   C55   1.400399 A    
C56   H16   1.077830 S    
O2    C4    1.313103 A    
C2    O7    1.319332 A    
C51   H27   1.084388 S    
O18   V4    1.998477 S    
O5    C3    1.316554 A    
C17   H7    1.111635 S    
C18   H8    1.111817 S    
O15   V3    2.016225 S    
C7    C9    1.408892 A    
C52   C54   1.401215 A    
C30   H22   1.076191 S    
O19   V3    2.193461 S    
C17   C19   1.519715 S    
C21   C27   1.391484 A    
C22   C28   1.391225 A    
C25   C33   1.424100 A    
N2    O23   1.301629 A    
C14   C57   1.484782 S    
C58   O17   1.312248 A    
C36   C38   1.429668 A    
C24   C54   1.413267 A    
C45   C47   1.392053 A    
O20   V3    1.728364 S    
C38   C40   1.409564 A    
C35   C43   1.414524 A    
C34   C42   1.400076 A    
N2    O24   1.301115 A    
C25   C27   1.401125 A    
C26   C28   1.400978 A    
C15   C17   1.490161 S    
C14   C16   1.400406 A    
C19   H11   1.111926 S    
C6    C8    1.401426 A    
C21   C60   1.461978 S    
C48   C52   1.402666 A    
C29   C31   1.414184 A    
O17   V3    1.999044 S    
C21   C29   1.392938 A    
O6    V2    2.005267 S    
C50   C56   1.414363 A    
C19   H9    1.112031 S    
O20   V4    2.194208 S    
N3    O26   1.301784 A    
C11   C13   1.411750 A    
C1    C24   1.466031 S    
C30   C32   1.414840 A    
C3    C8    1.484393 S    
C47   C51   1.402893 A    
C35   C37   1.429634 A    
C2    C23   1.465614 S    
C26   C34   1.425027 A    
C28   H20   1.083793 S    
C48   C50   1.415675 A    
O19   V4    1.728892 S    
C27   H19   1.083789 S    
O16   V4    2.016443 S    
O11   V4    2.021717 S    
O3    C1    1.321950 A    
C17   H5    1.111903 S    
C32   C36   1.435105 A    
C43   C45   1.386330 A    
C40   C42   1.385975 A    
O4    V2    2.016396 S    
C42   H14   1.080188 S    
C41   H13   1.080609 S    
O6    C4    1.316677 A    
O13   V3    2.005987 S    
C22   C59   1.462689 S    
C22   C30   1.392893 A    
O14   C58   1.319004 A    
C49   C55   1.414800 A    
O1    V2    1.998069 S    
O2    V1    1.998635 S    
C51   C53   1.400662 A    
O4    C2    1.322334 A    
O13   C57   1.318693 A    
C8    C10   1.408909 A    
C12   C14   1.410832 A    
C31   C33   1.425577 A    
C29   H21   1.077139 S    
C5    C15   1.393595 A    
C10   H2    1.079960 S    
C20   H12   1.112210 S    
C6    C16   1.393941 A    
C23   C53   1.411370 A    
N4    O28   1.301776 A    
C46   H18   1.084536 S    
O16   C60   1.309866 A    
C45   H17   1.084707 S    
C47   C49   1.416867 A    
N1    O21   1.301586 A    
C57   O18   1.312248 A    
C9    C11   1.409553 A    
O12   V3    2.021623 S    
C18   H6    1.111814 S    
O12   C60   1.307633 A    
C37   C39   1.410713 A    
C33   C41   1.399571 A    
C53   N3    1.442287 S    
C46   C48   1.391912 A    
N3    O25   1.300878 A    
O14   V4    2.004965 S    
C11   H3    1.081425 S    
C12   H4    1.081228 S    
C37   C49   1.433520 A    
C24   C56   1.400869 A    
C9    H1    1.080317 S    
O7    V1    2.014789 S    
C1    O8    1.319988 A    
C13   C15   1.400371 A    
O8    V2    2.014879 S    
C52   H28   1.084368 S    
C55   H15   1.077117 S    
C4    C7    1.484277 S    
O5    V1    2.006290 S    
C5    C7    1.402000 A    
C18   C20   1.520117 S    
C32   C34   1.426757 A    
C13   C58   1.484937 S    
C26   N2    1.442547 S    
C54   N4    1.443395 S    
C44   H26   1.075218 S    
O11   C59   1.308198 A    
C36   C44   1.415240 A    
C44   C46   1.386673 A    
C10   C12   1.410432 A    
O9    V2    1.729684 S    
C39   H23   1.076044 S    
C43   H25   1.076054 S    
C40   H24   1.076742 S    
O10   V1    1.729154 S    
C38   C50   1.432804 A    
O3    V1    2.016178 S    
O15   C59   1.309509 A    
C5    C19   1.489887 S    
N4    O27   1.300543 A    
C6    C20   1.489094 S    
C16   C18   1.489482 S    
N1    O22   1.301444 A    
