data_mof_unit_38428.cif
_audit_creation_date              2012-12-10T19:08:07-0500
_audit_creation_method            fapswitch 2.2
_symmetry_space_group_name_H-M    P1
_symmetry_Int_Tables_number       1
_space_group_crystal_system       triclinic
_cell_length_a                    9.069408
_cell_length_b                    10.909538
_cell_length_c                    9.624886
_cell_angle_alpha                 89.735908
_cell_angle_beta                  91.142545
_cell_angle_gamma                 91.116102
_cell_volume                      951.937124231

loop_
_atom_site_label
_atom_site_type_symbol
_atom_type_description
_atom_site_fract_x
_atom_site_fract_y
_atom_site_fract_z
_atom_type_partial_charge
C1    C     C_R   0.501373 0.262832 0.499586 0.832191
C2    C     C_R   0.464192 0.935723 0.369899 0.387927
C3    C     C_R   0.480587 0.869589 0.496903 -0.240932
C4    C     C_R   0.490779 0.937561 0.618148 -0.047662
C5    C     C_3   0.505418 0.926740 0.772591 -0.460868
C6    C     C_3   0.509855 0.068289 0.773042 0.415684
C7    C     C_R   0.627097 0.517395 0.074377 0.204103
C8    C     C_R   0.377568 0.463011 0.069310 0.219704
C9    C     C_R   0.376620 0.470642 0.921770 -0.090542
C10   C     C_R   0.630058 0.505377 0.929321 0.169389
C11   C     C_3   0.757773 0.594534 0.919118 -0.164285
C12   C     C_R   0.220926 0.500002 0.499105 0.810711
C13   C     C_3   0.738671 0.621110 0.075178 0.515287
C14   C     C_R   0.493240 0.736908 0.499475 0.830858
C15   C     C_R   0.779069 0.500286 0.500753 0.839484
C16   C     C_1   0.065607 0.500183 0.498564 -0.200145
C17   C     C_1   0.934424 0.500289 0.500710 -0.165464
C18   C     C_R   0.496140 0.061343 0.617396 -0.066754
C19   C     C_R   0.496107 0.129810 0.495715 -0.285574
C20   C     C_R   0.485841 0.064876 0.367677 0.396927
Cu1   Cu    Cu3+1 0.499990 0.499980 0.640670 0.938074
Cu2   Cu    Cu3+1 0.500010 0.500020 0.359330 0.983533
H1    H     H_    0.734417 0.672630 0.847812 0.162317
H2    H     H_    0.404453 0.886545 0.819703 0.157394
H3    H     H_    0.609984 0.883289 0.806339 0.197707
H4    H     H_    0.410106 0.108149 0.818902 0.062332
H5    H     H_    0.276935 0.447321 0.863635 0.158454
N1    N     N_R   0.500920 0.500930 0.147930 -0.200710
N2    N     N_R   0.500930 0.500890 0.852020 -0.207737
O1    O     O_R   0.500000 0.319640 0.618810 -0.570263
O2    O     O_R   0.500020 0.319680 0.381230 -0.538291
O3    O     O_R   0.288380 0.499980 0.618770 -0.594930
O4    O     O_R   0.288400 0.500020 0.381190 -0.592215
O5    O     O_R   0.499980 0.680320 0.618770 -0.583116
O6    O     O_R   0.500000 0.680360 0.381190 -0.547637
O7    O     O_R   0.711600 0.499980 0.618810 -0.594210
O8    O     O_R   0.711620 0.500020 0.381230 -0.523821
O9    O     O_3   0.525373 0.124075 0.245231 -0.535725
C21   C     C_3   0.409379 0.121415 0.145483 -0.183263
H6    H     H_    0.424584 0.200966 0.074968 0.182164
H7    H     H_    0.298551 0.128133 0.192212 0.097203
H8    H     H_    0.415808 0.039235 0.078824 0.201109
O10   O     O_3   0.861005 0.591797 0.162959 -0.534601
C22   C     C_3   0.964163 0.689929 0.174322 -0.333306
H9    H     H_    0.926768 0.758841 0.249799 0.167520
H10   H     H_    0.987280 0.734268 0.072619 0.154297
H11   H     H_    0.068553 0.653496 0.216649 0.179838
C23   C     C_3   0.669447 0.746896 0.100046 -0.793175
H12   H     H_    0.555533 0.749872 0.055576 0.230794
H13   H     H_    0.669270 0.766081 0.212559 0.286723
H14   H     H_    0.735472 0.820674 0.049390 0.200945
O11   O     O_3   0.436396 0.875426 0.246346 -0.568300
C24   C     C_3   0.284669 0.844919 0.236902 -0.362843
H15   H     H_    0.215177 0.927625 0.239626 0.135019
H16   H     H_    0.250974 0.780797 0.321032 0.168577
H17   H     H_    0.262948 0.798771 0.135933 0.179709
O12   O     O_3   0.641854 0.120079 0.833484 -0.547265
C25   C     C_3   0.767127 0.113141 0.748871 -0.243064
H18   H     H_    0.759791 0.179562 0.661402 0.162925
H19   H     H_    0.784186 0.018967 0.709664 0.141183
H20   H     H_    0.866098 0.139243 0.812385 0.164466
C26   C     C_3   0.243674 0.402301 0.130715 -0.795337
H21   H     H_    0.186217 0.341332 0.053941 0.168476
H22   H     H_    0.274550 0.341885 0.218492 0.261835
H23   H     H_    0.163288 0.471681 0.160568 0.255722
C27   C     C_3   0.903374 0.529519 0.888384 -0.763989
H24   H     H_    0.899411 0.482693 0.787404 0.244974
H25   H     H_    0.995954 0.597390 0.886394 0.217269
H26   H     H_    0.928560 0.457877 0.967327 0.253202

loop_
_geom_bond_atom_site_label_1
_geom_bond_atom_site_label_2
_ccdc_geom_bond_type
C14   O5    A    
C13   C23   S    
C27   H25   S    
O10   C22   S    
C22   H11   S    
C26   H21   S    
C2    C20   A    
C7    C10   A    
C20   O9    S    
Cu1   O1    S    
C19   C20   A    
C10   N2    A    
C11   C27   S    
C9    N2    A    
C13   O10   S    
C4    C18   A    
C25   H20   S    
C23   H13   S    
C2    C3    A    
C6    H4    S    
C21   H7    S    
Cu1   O7    S    
Cu2   N1    S    
Cu1   Cu2   S    
C12   O3    A    
Cu2   O6    S    
C3    C14   S    
C6    O12   S    
O12   C25   S    
O9    C21   S    
C5    H2    S    
C2    O11   S    
C12   O4    A    
C23   H12   S    
C11   H1    S    
C1    O1    A    
C22   H10   S    
C27   H24   S    
C21   H8    S    
C24   H16   S    
C1    O2    A    
C5    C6    S    
C6    C18   S    
Cu1   O3    S    
C5    H3    S    
C1    C19   S    
C11   C13   S    
C16   C17   T    
C10   C11   S    
C25   H19   S    
C3    C4    A    
C27   H26   S    
C15   O7    A    
C7    C13   S    
C22   H9    S    
C9    H5    S    
C8    N1    A    
C18   C19   A    
Cu2   O2    S    
C24   H17   S    
C8    C26   S    
C21   H6    S    
C15   C17   S    
Cu2   O4    S    
C4    C5    S    
C26   H22   S    
Cu1   O5    S    
C26   H23   S    
C25   H18   S    
C24   H15   S    
Cu2   O8    S    
Cu1   N2    S    
C14   O6    A    
C23   H14   S    
C15   O8    A    
C7    N1    A    
C12   C16   S    
O11   C24   S    
C8    C9    A    
