data_mof_unit_15948.cif
_audit_creation_date              2012-12-10T18:49:18-0500
_audit_creation_method            fapswitch 2.2
_symmetry_space_group_name_H-M    P1
_symmetry_Int_Tables_number       1
_space_group_crystal_system       triclinic
_cell_length_a                    10.030857
_cell_length_b                    10.555038
_cell_length_c                    13.508672
_cell_angle_alpha                 91.647989
_cell_angle_beta                  80.084718
_cell_angle_gamma                 92.791043
_cell_volume                      1406.90922724

loop_
_atom_site_label
_atom_site_type_symbol
_atom_type_description
_atom_site_fract_x
_atom_site_fract_y
_atom_site_fract_z
_atom_type_partial_charge
C1    C     C_R   0.502905 0.739106 0.499269 0.858323
C2    C     C_R   0.919966 0.582753 0.560583 0.275684
C3    C     C_1   0.550757 0.500966 0.208311 -0.070520
C4    C     C_1   0.449437 0.501514 0.791697 -0.089999
C5    C     C_2   0.560016 0.503014 0.014937 -0.167974
C6    C     C_2   0.440516 0.502411 0.985079 -0.147130
C7    C     C_1   0.438802 0.502135 0.880707 0.034584
C8    C     C_1   0.561604 0.501972 0.119310 0.055172
C9    C     C_R   0.562489 0.936478 0.410067 0.138831
C10   C     C_R   0.437561 0.062611 0.588651 0.150152
C11   C     C_R   0.553638 0.067189 0.413079 -0.137437
C12   C     C_R   0.497031 0.260860 0.501003 0.863802
C13   C     C_R   0.446600 0.932841 0.586144 -0.127858
C14   C     C_3   0.624584 0.863523 0.315395 -0.395396
C15   C     C_3   0.680554 0.943835 0.223799 -0.766881
C16   C     C_3   0.376672 0.128122 0.686074 -0.391710
C17   C     C_3   0.485572 0.163759 0.749305 -0.841519
C18   C     C_R   0.492037 0.127912 0.500928 -0.041542
C19   C     C_R   0.507994 0.872013 0.498481 -0.052539
C20   C     C_R   0.472916 0.500461 0.686088 0.884600
C21   C     C_R   0.527112 0.500000 0.313907 0.866007
C22   C     C_R   0.942891 0.432061 0.429221 0.289130
C23   C     C_R   0.057052 0.567785 0.571026 0.335640
C24   C     C_R   0.079555 0.416926 0.439976 0.295787
H1    H     H_    0.345661 0.501400 0.038061 0.190592
H2    H     H_    0.762910 0.010930 0.240664 0.289433
H3    H     H_    0.723276 0.880693 0.160231 0.258873
H4    H     H_    0.708889 0.808293 0.332679 0.262899
H5    H     H_    0.546339 0.794990 0.293830 0.185782
H6    H     H_    0.534766 0.077439 0.767684 0.285621
H7    H     H_    0.563739 0.230070 0.708117 0.259370
H8    H     H_    0.438782 0.210760 0.820559 0.261503
H9    H     H_    0.324335 0.214286 0.671848 0.244723
H10   H     H_    0.298283 0.064301 0.730141 0.241973
H11   H     H_    0.654865 0.503807 0.961949 0.180940
H12   H     H_    0.593860 0.123539 0.348157 0.183159
H13   H     H_    0.406481 0.878684 0.652611 0.179539
H14   H     H_    0.014402 0.346237 0.160521 0.380912
H15   H     H_    0.988892 0.652787 0.840409 0.384452
H16   H     H_    0.952358 0.148049 0.416830 0.367393
H17   H     H_    0.729469 0.702034 0.732018 0.374480
H18   H     H_    0.598548 0.996688 0.200270 0.261445
N1    N     N_R   0.142790 0.500030 0.500020 -0.218399
N2    N     N_R   0.857210 0.499970 0.499980 -0.213943
O1    O     O_R   0.385380 0.683250 0.500010 -0.595992
O2    O     O_2   0.871995 0.531600 0.267431 -0.299880
O3    O     O_3   0.044606 0.358529 0.226328 -0.484662
O4    O     O_2   0.129311 0.468494 0.732350 -0.304158
O5    O     O_2   0.207831 0.690010 0.693847 -0.286742
O6    O     O_3   0.957788 0.641703 0.774842 -0.556694
O7    O     O_2   0.270446 0.267278 0.338044 -0.232698
O8    O     O_2   0.158240 0.200675 0.506278 -0.301194
O9    O     O_3   0.026964 0.167775 0.360400 -0.452586
O10   O     O_2   0.959943 0.821049 0.635500 -0.213511
O11   O     O_2   0.845165 0.798542 0.492805 -0.268763
O12   O     O_R   0.614620 0.316750 0.499990 -0.606644
O13   O     O_3   0.710680 0.735656 0.668438 -0.527100
O14   O     O_R   0.614710 0.683220 0.500000 -0.528314
O15   O     O_R   0.385290 0.316780 0.500000 -0.540586
O16   O     O_R   0.368830 0.499990 0.640350 -0.528206
O17   O     O_R   0.631170 0.500010 0.359650 -0.531062
O18   O     O_R   0.598160 0.499960 0.640350 -0.608057
O19   O     O_R   0.401840 0.500040 0.359650 -0.589074
O20   O     O_2   0.793418 0.310083 0.305333 -0.312877
S1    S     S_3+6 0.907650 0.407494 0.305646 0.079475
S2    S     S_3+6 0.093412 0.592634 0.694345 0.080411
S3    S     S_3+6 0.139174 0.261871 0.410893 0.122918
S4    S     S_3+6 0.859883 0.738059 0.589409 0.121824
Zn1   Zn    Zn3+2 0.346870 0.500020 0.500000 1.104462
Zn2   Zn    Zn3+2 0.653130 0.499980 0.500000 1.081757

loop_
_geom_bond_atom_site_label_1
_geom_bond_atom_site_label_2
_ccdc_geom_bond_type
O17   Zn2   S    
C5    C8    S    
C9    C14   S    
C22   S1    S    
N2    Zn2   S    
C6    C7    S    
C16   H9    S    
C20   O16   A    
O6    S2    S    
C13   H13   S    
C16   H10   S    
O20   S1    D    
H15   O6    S    
O11   S4    D    
H17   O13   S    
C11   C18   A    
C21   O19   A    
C10   C16   S    
C1    O14   A    
C17   H6    S    
C9    C11   A    
C1    O1    A    
H14   O3    S    
C12   O12   A    
O8    S3    D    
O16   Zn1   S    
C10   C18   A    
C4    C7    T    
O9    S3    S    
C5    H11   S    
C23   S2    S    
O3    S1    S    
C11   H12   S    
O15   Zn1   S    
C3    C8    T    
C2    S4    S    
C20   O18   A    
C5    C6    D    
C17   H7    S    
C22   C24   A    
C3    C21   S    
C6    H1    S    
O10   S4    D    
O5    S2    D    
C13   C19   A    
C14   H5    S    
O1    Zn1   S    
C4    C20   S    
O12   Zn2   S    
C23   N1    A    
O18   Zn2   S    
O2    S1    D    
N1    Zn1   S    
H16   O9    S    
C1    C19   S    
C12   C18   S    
C2    C23   A    
C17   H8    S    
C24   N1    A    
O4    S2    D    
C14   C15   S    
O14   Zn2   S    
C15   H2    S    
O7    S3    D    
O13   S4    S    
C24   S3    S    
C14   H4    S    
C12   O15   A    
C15   H3    S    
C9    C19   A    
C21   O17   A    
C22   N2    A    
O19   Zn1   S    
C15   H18   S    
C2    N2    A    
C16   C17   S    
C10   C13   A    
