data_mof_unit_13608.cif
_audit_creation_date              2012-12-10T18:33:41-0500
_audit_creation_method            fapswitch 2.2
_symmetry_space_group_name_H-M    P1
_symmetry_Int_Tables_number       1
_space_group_crystal_system       triclinic
_cell_length_a                    10.503118
_cell_length_b                    15.007613
_cell_length_c                    15.380975
_cell_angle_alpha                 82.024631
_cell_angle_beta                  89.927541
_cell_angle_gamma                 104.654834
_cell_volume                      2321.21841395

loop_
_atom_site_label
_atom_site_type_symbol
_atom_type_description
_atom_site_fract_x
_atom_site_fract_y
_atom_site_fract_z
_atom_type_partial_charge
C1    C     C_R   0.483643 0.441714 0.662465 0.870534
C2    C     C_R   0.521078 0.558504 0.337269 0.876725
C3    C     C_R   0.486492 0.463688 0.817355 -0.003076
C4    C     C_R   0.588009 0.546817 0.183439 -0.021489
C5    C     C_R   0.568462 0.470361 0.889692 0.088266
C6    C     C_R   0.596548 0.579831 0.092223 0.086824
C7    C     C_R   0.641364 0.403129 0.910036 0.111518
C8    C     C_R   0.554417 0.661247 0.062581 0.113633
C9    C     C_R   0.577392 0.540300 0.943924 0.077185
C10   C     C_R   0.627635 0.527625 0.028470 0.073296
C11   C     C_R   0.706580 0.464073 0.044881 -0.195114
C12   C     C_R   0.545205 0.624859 0.914836 -0.192014
C13   C     C_R   0.714096 0.403125 0.985880 -0.232969
C14   C     C_R   0.538819 0.686355 0.973187 -0.233937
C15   C     C_R   0.691869 0.841230 0.640219 -0.323137
C16   C     C_R   0.306945 0.158423 0.360532 -0.316896
C17   C     C_R   0.660445 0.752551 0.616860 0.007500
C18   C     C_R   0.337992 0.247010 0.384113 0.004122
C19   C     C_R   0.515803 0.794272 0.509331 -0.059633
C20   C     C_R   0.485875 0.206163 0.489629 -0.056184
C21   C     C_R   0.543225 0.885756 0.529867 -0.007301
C22   C     C_R   0.458283 0.114625 0.469217 -0.007932
C23   C     C_R   0.742696 0.501039 0.500115 0.852475
C24   C     C_R   0.257432 0.499166 0.499422 0.854845
C25   C     C_R   0.633550 0.908227 0.596920 0.184709
C26   C     C_R   0.366887 0.091863 0.402831 0.183994
C27   C     C_R   0.484415 0.954758 0.486864 0.082883
C28   C     C_R   0.517558 0.045747 0.511942 0.084166
C29   C     C_R   0.608333 0.064727 0.579000 -0.243200
C30   C     C_R   0.393469 0.935729 0.419908 -0.245030
C31   C     C_R   0.664909 0.997107 0.620459 -0.216072
C32   C     C_R   0.335949 0.003097 0.379031 -0.213995
C33   C     C_3   0.932235 0.431347 0.559778 -0.173067
C34   C     C_3   0.068344 0.569381 0.438931 -0.174945
C35   C     C_3   0.047584 0.511910 0.579257 -0.179301
C36   C     C_3   0.952818 0.488795 0.419471 -0.180516
C37   C     C_3   0.121769 0.498122 0.498731 0.029007
C38   C     C_3   0.878602 0.502510 0.500071 0.031770
C39   C     C_3   0.009007 0.417557 0.479220 -0.139191
C40   C     C_3   0.991429 0.583152 0.519509 -0.136258
C41   C     C_R   0.505363 0.408948 0.753992 -0.106704
C42   C     C_R   0.541188 0.596477 0.243140 -0.104850
C43   C     C_R   0.641646 0.337412 0.853871 -0.269263
C44   C     C_R   0.520644 0.714042 0.122365 -0.262099
C45   C     C_R   0.577704 0.341804 0.774316 0.086530
C46   C     C_R   0.512313 0.682075 0.212144 0.086237
H1    H     H_    0.090719 0.520900 0.644338 0.130464
H2    H     H_    0.909651 0.479759 0.354415 0.126319
H3    H     H_    0.554248 0.230887 0.538163 0.142043
H4    H     H_    0.448924 0.769921 0.459852 0.139481
H5    H     H_    0.292594 0.299337 0.352008 0.132703
H6    H     H_    0.704489 0.699858 0.649800 0.135640
H7    H     H_    0.760861 0.857265 0.691649 0.144073
H8    H     H_    0.236868 0.142087 0.309768 0.143055
H9    H     H_    0.638172 0.131323 0.601660 0.136446
H10   H     H_    0.363743 0.869160 0.397166 0.137458
H11   H     H_    0.873155 0.375252 0.609166 0.124483
H12   H     H_    0.128567 0.625275 0.389595 0.130669
H13   H     H_    0.020057 0.350089 0.462811 0.142821
H14   H     H_    0.980316 0.650592 0.535952 0.143574
H15   H     H_    0.774648 0.354607 0.000603 0.146924
H16   H     H_    0.511366 0.750096 0.949325 0.147238
H17   H     H_    0.697175 0.285757 0.869373 0.141114
H18   H     H_    0.492072 0.777558 0.099166 0.141015
H19   H     H_    0.767857 0.463348 0.101161 0.172590
H20   H     H_    0.528514 0.645488 0.846558 0.165306
H21   H     H_    0.733866 0.014625 0.671647 0.140519
H22   H     H_    0.266423 0.985430 0.328191 0.141436
N1    N     N_R   0.574200 0.731700 0.552740 -0.099874
N2    N     N_R   0.425800 0.268300 0.447260 -0.099710
O1    O     O_R   0.462600 0.383110 0.605620 -0.582661
O2    O     O_R   0.537400 0.616890 0.394380 -0.583284
O3    O     O_R   0.510210 0.531900 0.639510 -0.629397
O4    O     O_R   0.489790 0.468100 0.360490 -0.635317
O5    O     O_R   0.662240 0.425610 0.483080 -0.620761
O6    O     O_R   0.337760 0.574390 0.516920 -0.619768
O7    O     O_R   0.709860 0.574400 0.516970 -0.625921
O8    O     O_R   0.290140 0.425600 0.483030 -0.625796
Zn1   Zn    Zn3+2 0.468210 0.400660 0.477370 0.934995
Zn2   Zn    Zn3+2 0.531790 0.599340 0.522630 0.937552
N3    N     N_3   0.615021 0.458759 0.213815 -0.475130
H23   H     H_    0.527116 0.408152 0.231733 0.225603
H24   H     H_    0.679735 0.465091 0.265542 0.191531
N4    N     N_3   0.374636 0.503025 0.813799 -0.469145
H25   H     H_    0.289801 0.449894 0.808793 0.177159
H26   H     H_    0.382751 0.553462 0.758696 0.202404
N5    N     N_3   0.466085 0.734138 0.271125 -0.449483
H27   H     H_    0.372618 0.740259 0.252466 0.166925
H28   H     H_    0.529436 0.801010 0.264057 0.186080
N6    N     N_3   0.589894 0.280024 0.713492 -0.444411
H29   H     H_    0.551186 0.211795 0.744351 0.181163
H30   H     H_    0.689971 0.288270 0.699813 0.159829

loop_
_geom_bond_atom_site_label_1
_geom_bond_atom_site_label_2
_ccdc_geom_bond_type
C18   N2    A    
C38   C40   S    
N5    H27   S    
C17   N1    A    
C40   H14   S    
C34   C37   S    
C35   H1    S    
O1    Zn1   S    
N3    H23   S    
C43   H17   S    
C44   H18   S    
C26   C32   A    
C1    O1    A    
C4    C42   A    
C34   C40   S    
C15   H7    S    
C28   C29   A    
C35   C37   S    
N4    H26   S    
C15   C25   A    
C14   H16   S    
C42   C46   A    
C4    N3    S    
C8    C14   A    
C7    C43   A    
C9    C10   A    
C2    O4    A    
C32   H22   S    
C21   C27   A    
C22   C28   A    
C27   C30   A    
C20   N2    A    
C2    O2    A    
C17   H6    S    
N3    H24   S    
C44   C46   A    
C18   H5    S    
C16   C26   A    
O6    Zn2   S    
N4    H25   S    
C4    C6    A    
C23   O5    A    
C5    C7    A    
O8    Zn1   S    
C24   O6    A    
C6    C8    A    
C29   H9    S    
C30   H10   S    
C31   H21   S    
C5    C9    A    
C20   H3    S    
N6    H30   S    
C29   C31   A    
C39   H13   S    
C24   C37   S    
C16   C18   A    
C33   C39   S    
C23   O7    A    
C45   N6    S    
C43   C45   A    
C1    C41   S    
C12   C14   A    
O4    Zn1   S    
N5    H28   S    
C19   N1    A    
C27   C28   A    
C46   N5    S    
O7    Zn2   S    
C24   O8    A    
C15   C17   A    
C21   C25   A    
C3    C41   A    
C33   H11   S    
C19   C21   A    
N2    Zn1   S    
C25   C31   A    
C36   C39   S    
C8    C44   A    
C20   C22   A    
C3    C5    A    
C6    C10   A    
C23   C38   S    
C33   C38   S    
C1    O3    A    
C36   C38   S    
C35   C40   S    
C37   C39   S    
C30   C32   A    
C11   C13   A    
C19   H4    S    
N6    H29   S    
C12   H20   S    
C2    C42   S    
C33   C35   S    
O3    Zn2   S    
C36   H2    S    
C34   C36   S    
C9    C12   A    
C16   H8    S    
C10   C11   A    
C7    C13   A    
C13   H15   S    
O2    Zn2   S    
C22   C26   A    
C3    N4    S    
C34   H12   S    
C41   C45   A    
N1    Zn2   S    
O5    Zn1   S    
C11   H19   S    
