data_mof_unit_51505.cif
_audit_creation_date              2012-12-10T17:31:52-0500
_audit_creation_method            fapswitch 2.2
_symmetry_space_group_name_H-M    P1
_symmetry_Int_Tables_number       1
_space_group_crystal_system       triclinic
_cell_length_a                    12.109384
_cell_length_b                    11.54169
_cell_length_c                    12.825547
_cell_angle_alpha                 91.578275
_cell_angle_beta                  93.446417
_cell_angle_gamma                 84.87788
_cell_volume                      1781.70332024

loop_
_atom_site_label
_atom_site_type_symbol
_atom_type_description
_atom_site_fract_x
_atom_site_fract_y
_atom_site_fract_z
_atom_type_partial_charge
C1    C     C_R   0.477753 0.502656 0.300194 0.941625
C2    C     C_R   0.974058 0.538519 0.537820 -0.018236
C3    C     C_R   0.500970 0.281984 0.499617 0.921267
C4    C     C_R   0.499023 0.718019 0.500404 0.918613
C5    C     C_1   0.502568 0.161319 0.499609 -0.174791
C6    C     C_1   0.497390 0.838692 0.500508 -0.172288
C7    C     C_1   0.501321 0.059228 0.499881 -0.005805
C8    C     C_1   0.498611 0.940789 0.500292 -0.003653
C9    C     C_R   0.537608 0.499344 0.811011 -0.196390
C10   C     C_R   0.462462 0.500258 0.188990 -0.196915
C11   C     C_R   0.403303 0.392837 0.036877 -0.275093
C12   C     C_R   0.522261 0.497244 0.699805 0.939942
C13   C     C_R   0.597248 0.606195 0.963276 -0.276149
C14   C     C_R   0.401879 0.413680 0.142676 0.558685
C15   C     C_R   0.598688 0.585452 0.857475 0.558508
C16   C     C_R   0.516262 0.576451 0.129888 0.071404
C17   C     C_R   0.483624 0.423177 0.869999 0.071846
C18   C     C_R   0.528360 0.546795 0.023497 0.009713
C19   C     C_R   0.471790 0.452567 0.976495 0.009140
C20   C     C_3   0.447576 0.309777 0.818260 -0.404971
C21   C     C_3   0.548158 0.229231 0.787355 -0.851413
C22   C     C_3   0.551890 0.690149 0.181349 -0.407304
C23   C     C_R   0.041809 0.603395 0.606583 0.090493
C24   C     C_3   0.451099 0.770332 0.212332 -0.848909
C25   C     C_3   0.781795 0.302330 0.361417 -0.354556
C26   C     C_3   0.801028 0.197642 0.433138 -0.825751
C27   C     C_3   0.224594 0.688433 0.650560 -0.369924
C28   C     C_3   0.199611 0.809790 0.604625 -0.883978
C29   C     C_3   0.989259 0.674573 0.696886 -0.435301
C30   C     C_3   0.964194 0.595687 0.784733 -0.794971
C31   C     C_3   0.002588 0.355786 0.286709 -0.418646
C32   C     C_3   0.054458 0.230539 0.296923 -0.809134
C33   C     C_R   0.956284 0.406396 0.388182 0.078251
C34   C     C_R   0.158426 0.599286 0.591025 0.263970
C35   C     C_R   0.841792 0.403418 0.407791 0.255732
C36   C     C_R   0.142561 0.457239 0.454779 -0.094308
C37   C     C_R   0.856110 0.545783 0.543327 -0.096258
C38   C     C_R   0.024630 0.467450 0.459328 -0.033292
F1    F     F_    0.656714 0.652987 0.799403 -0.679598
F2    F     F_    0.344293 0.345849 0.200894 -0.680768
H1    H     H_    0.350366 0.328779 0.005531 0.167292
H2    H     H_    0.394925 0.790931 0.142359 0.267858
H3    H     H_    0.404154 0.729883 0.271185 0.252437
H4    H     H_    0.479093 0.852884 0.246730 0.251110
H5    H     H_    0.608639 0.671915 0.251154 0.225408
H6    H     H_    0.598048 0.742491 0.131560 0.206542
H7    H     H_    0.779442 0.222082 0.514162 0.274995
H8    H     H_    0.749448 0.127704 0.403199 0.245192
H9    H     H_    0.889482 0.162911 0.436494 0.247406
H10   H     H_    0.693009 0.325319 0.345945 0.251144
H11   H     H_    0.808804 0.274044 0.283325 0.177042
H12   H     H_    0.650567 0.669830 0.994831 0.166427
H13   H     H_    0.222406 0.808607 0.522009 0.279334
H14   H     H_    0.110479 0.840896 0.606746 0.247783
H15   H     H_    0.249018 0.872689 0.649804 0.254301
H16   H     H_    0.210827 0.689090 0.735227 0.174124
H17   H     H_    0.313273 0.669045 0.651298 0.271351
H18   H     H_    0.924220 0.648966 0.847806 0.266912
H19   H     H_    0.907445 0.529802 0.756421 0.270880
H20   H     H_    0.042645 0.550123 0.817856 0.242892
H21   H     H_    0.040207 0.741019 0.732850 0.218416
H22   H     H_    0.913323 0.728052 0.668679 0.212033
H23   H     H_    0.812967 0.601798 0.598958 0.192236
H24   H     H_    0.102705 0.217974 0.372758 0.257441
H25   H     H_    0.989510 0.168554 0.289705 0.247806
H26   H     H_    0.111249 0.209653 0.232882 0.272422
H27   H     H_    0.938405 0.361528 0.221177 0.192462
H28   H     H_    0.065621 0.410968 0.260200 0.222134
H29   H     H_    0.184052 0.398699 0.399646 0.195756
H30   H     H_    0.519882 0.146955 0.752617 0.251831
H31   H     H_    0.595519 0.269652 0.728804 0.251190
H32   H     H_    0.604031 0.208141 0.857422 0.267827
H33   H     H_    0.400915 0.257609 0.867728 0.206040
H34   H     H_    0.391058 0.328363 0.748372 0.226715
N1    N     N_R   0.792200 0.479100 0.480660 -0.130795
N2    N     N_R   0.207800 0.520900 0.519340 -0.132913
O1    O     O_R   0.578300 0.494420 0.341180 -0.664816
O2    O     O_R   0.421700 0.505580 0.658820 -0.669457
O3    O     O_R   0.390690 0.507830 0.353590 -0.574984
O4    O     O_R   0.609310 0.492170 0.646410 -0.576360
O5    O     O_R   0.593810 0.327740 0.493800 -0.634484
O6    O     O_R   0.406190 0.672260 0.506200 -0.638382
O7    O     O_R   0.406190 0.341150 0.506220 -0.601189
O8    O     O_R   0.593810 0.658850 0.493780 -0.602872
Zn1   Zn    Zn3+2 0.625270 0.491050 0.491710 0.943501
Zn2   Zn    Zn3+2 0.374730 0.508950 0.508290 0.947222

loop_
_geom_bond_atom_site_label_1
_geom_bond_atom_site_label_2
_ccdc_geom_bond_type
C1    O1    A    
C7    C8    S    
C31   H27   S    
C11   C19   A    
C29   C30   S    
C13   C18   A    
C21   H31   S    
C23   C29   S    
C11   C14   A    
C30   H18   S    
C17   C20   S    
C24   H2    S    
C18   C19   A    
C25   H10   S    
C36   N2    A    
C17   C19   A    
N1    Zn1   S    
C30   H20   S    
C3    O5    A    
C31   C33   S    
C26   H8    S    
O2    Zn2   S    
C37   N1    A    
O1    Zn1   S    
C37   H23   S    
C28   H15   S    
C27   C34   S    
C31   H28   S    
C29   H21   S    
C21   H32   S    
O8    Zn1   S    
C32   H24   S    
C4    C6    S    
C27   H17   S    
C26   H9    S    
C5    C7    T    
C28   H14   S    
C27   H16   S    
C6    C8    T    
C25   C26   S    
O6    Zn2   S    
C12   O2    A    
C25   H11   S    
O4    Zn1   S    
C13   H12   S    
C2    C38   A    
C31   C32   S    
C4    O8    A    
C23   C34   A    
C35   N1    A    
C30   H19   S    
O7    Zn2   S    
C20   H34   S    
C15   F1    S    
C26   H7    S    
C25   C35   S    
C9    C17   A    
C22   H6    S    
C13   C15   A    
C3    O7    A    
C24   H4    S    
C22   C24   S    
N2    Zn2   S    
C2    C23   A    
C36   H29   S    
C32   H26   S    
C29   H22   S    
C16   C22   S    
C1    C10   S    
C3    C5    S    
C28   H13   S    
C33   C38   A    
C21   H30   S    
C36   C38   A    
C9    C15   A    
C10   C16   A    
C2    C37   A    
C1    O3    A    
C12   O4    A    
C33   C35   A    
C20   H33   S    
C11   H1    S    
C9    C12   S    
C14   F2    S    
C22   H5    S    
C4    O6    A    
C20   C21   S    
C16   C18   A    
C34   N2    A    
C27   C28   S    
C24   H3    S    
O3    Zn2   S    
O5    Zn1   S    
C10   C14   A    
C32   H25   S    
