data_mof_unit_44222.cif
_audit_creation_date              2012-12-11T14:44:15-0500
_audit_creation_method            fapswitch 2.2
_symmetry_space_group_name_H-M    P1
_symmetry_Int_Tables_number       1
_space_group_crystal_system       monoclinic
_cell_length_a                    25.044266
_cell_length_b                    16.751431
_cell_length_c                    15.610687
_cell_angle_alpha                 90.0
_cell_angle_beta                  49.802228
_cell_angle_gamma                 90.0
_cell_volume                      5002.34802697

loop_
_atom_site_label
_atom_site_type_symbol
_atom_type_description
_atom_site_fract_x
_atom_site_fract_y
_atom_site_fract_z
_atom_type_partial_charge
Br1   Br    Br    0.564345 0.161069 0.737960 -0.579461
Br2   Br    Br    0.414335 0.918901 0.262139 -0.554587
Br3   Br    Br    0.435655 0.161069 0.262040 -0.579461
Br4   Br    Br    0.585665 0.918901 0.737861 -0.554587
Br5   Br    Br    0.064345 0.661069 0.737960 -0.579461
Br6   Br    Br    0.914335 0.418901 0.262139 -0.554586
Br7   Br    Br    0.935655 0.661069 0.262040 -0.579461
Br8   Br    Br    0.085665 0.418901 0.737861 -0.554587
C1    C     C_R   0.332931 0.109751 0.802922 -0.121054
C2    C     C_3   0.751729 0.793742 0.607871 -0.108327
C3    C     C_3   0.703751 0.295412 0.601685 -0.105596
C4    C     C_3   0.248271 0.793742 0.392129 -0.108327
C5    C     C_3   0.796249 0.795412 0.398315 -0.105596
C6    C     C_3   0.251729 0.293742 0.607871 -0.108327
C7    C     C_3   0.203750 0.795413 0.601686 -0.105596
C8    C     C_3   0.748271 0.293742 0.392129 -0.108327
C9    C     C_2   0.699773 0.142180 0.009807 -0.180059
C10   C     C_2   0.364339 0.731276 0.839778 -0.205440
C11   C     C_2   0.300227 0.142180 0.990193 -0.180059
C12   C     C_R   0.645831 0.851262 0.248068 -0.114229
C13   C     C_2   0.635661 0.731276 0.160222 -0.205440
C14   C     C_2   0.199773 0.642180 0.009807 -0.180059
C15   C     C_2   0.864339 0.231276 0.839778 -0.205440
C16   C     C_2   0.800227 0.642180 0.990193 -0.180059
C17   C     C_2   0.135661 0.231277 0.160222 -0.205441
C18   C     C_2   0.768933 0.138715 0.950906 -0.112292
C19   C     C_2   0.314260 0.689268 0.852232 -0.108676
C20   C     C_2   0.231067 0.138715 0.049094 -0.112292
C21   C     C_2   0.685740 0.689268 0.147768 -0.108676
C22   C     C_2   0.268933 0.638715 0.950906 -0.112292
C23   C     C_R   0.667069 0.109751 0.197078 -0.121054
C24   C     C_2   0.814260 0.189269 0.852232 -0.108676
C25   C     C_2   0.731067 0.638715 0.049094 -0.112292
C26   C     C_2   0.185740 0.189268 0.147768 -0.108676
C27   C     C_R   0.592294 0.145944 0.592198 0.336898
C28   C     C_R   0.384409 0.896223 0.407658 0.292787
C29   C     C_R   0.407706 0.145944 0.407802 0.336898
C30   C     C_R   0.615591 0.896223 0.592342 0.292787
C31   C     C_R   0.092294 0.645943 0.592198 0.336898
C32   C     C_R   0.884409 0.396222 0.407658 0.292787
C33   C     C_R   0.907706 0.645944 0.407802 0.336898
C34   C     C_R   0.354169 0.851262 0.751932 -0.114229
C35   C     C_R   0.115591 0.396222 0.592342 0.292787
C36   C     C_R   0.665319 0.145811 0.405060 -0.187852
C37   C     C_R   0.310492 0.894088 0.593691 -0.215982
C38   C     C_R   0.334681 0.145811 0.594940 -0.187852
C39   C     C_R   0.689508 0.894088 0.406309 -0.215982
C40   C     C_R   0.165319 0.645811 0.405060 -0.187852
C41   C     C_R   0.810492 0.394088 0.593691 -0.215982
C42   C     C_R   0.834681 0.645811 0.594940 -0.187852
C43   C     C_R   0.189508 0.394088 0.406309 -0.215982
C44   C     C_R   0.581370 0.101993 0.191518 -0.052099
C45   C     C_R   0.832931 0.609751 0.802922 -0.121054
C46   C     C_R   0.442729 0.854108 0.753470 -0.111297
C47   C     C_R   0.418630 0.101993 0.808482 -0.052098
C48   C     C_R   0.557271 0.854108 0.246530 -0.111296
C49   C     C_R   0.081370 0.601993 0.191518 -0.052099
C50   C     C_R   0.942729 0.354108 0.753470 -0.111297
C51   C     C_R   0.918630 0.601993 0.808482 -0.052099
C52   C     C_R   0.057271 0.354108 0.246530 -0.111297
C53   C     C_R   0.349316 0.122778 0.870415 0.099110
C54   C     C_R   0.612717 0.808102 0.218632 0.118522
C55   C     C_R   0.650684 0.122778 0.129585 0.099110
C56   C     C_R   0.145831 0.351262 0.248068 -0.114230
C57   C     C_R   0.387283 0.808102 0.781368 0.118522
C58   C     C_R   0.849316 0.622778 0.870415 0.099110
C59   C     C_R   0.112717 0.308102 0.218631 0.118522
C60   C     C_R   0.150684 0.622778 0.129585 0.099110
C61   C     C_R   0.887283 0.308102 0.781368 0.118522
C62   C     C_R   0.642979 0.189395 0.497518 -0.062312
C63   C     C_R   0.317522 0.878769 0.500786 -0.022341
C64   C     C_R   0.357021 0.189395 0.502482 -0.062312
C65   C     C_R   0.682478 0.878769 0.499214 -0.022341
C66   C     C_R   0.142979 0.689395 0.497518 -0.062312
C67   C     C_R   0.167069 0.609751 0.197078 -0.121054
C68   C     C_R   0.817522 0.378769 0.500786 -0.022341
C69   C     C_R   0.857021 0.689395 0.502482 -0.062312
C70   C     C_R   0.182478 0.378769 0.499214 -0.022341
C71   C     C_3   0.339366 0.324028 0.431540 -0.145982
C72   C     C_3   0.709016 0.765167 0.574263 -0.160843
C73   C     C_3   0.660634 0.324028 0.568460 -0.145981
C74   C     C_3   0.290984 0.765166 0.425738 -0.160844
C75   C     C_3   0.839366 0.824028 0.431540 -0.145982
C76   C     C_3   0.209016 0.265167 0.574263 -0.160842
C77   C     C_3   0.160634 0.824028 0.568459 -0.145982
C78   C     C_R   0.854169 0.351262 0.751932 -0.114229
C79   C     C_3   0.790984 0.265167 0.425737 -0.160843
C80   C     C_3   0.774802 0.869392 0.534114 -0.127196
C81   C     C_3   0.272308 0.220918 0.472397 -0.121360
C82   C     C_3   0.225198 0.869392 0.465886 -0.127196
C83   C     C_3   0.727692 0.220918 0.527603 -0.121360
C84   C     C_3   0.274802 0.369392 0.534114 -0.127197
C85   C     C_3   0.772308 0.720918 0.472397 -0.121360
C86   C     C_3   0.725198 0.369392 0.465886 -0.127197
C87   C     C_3   0.227691 0.720918 0.527604 -0.121359
C88   C     C_3   0.732994 0.839407 0.500244 0.169510
C89   C     C_3   0.296249 0.295412 0.398315 -0.105597
C90   C     C_3   0.314950 0.249718 0.505361 0.175640
C91   C     C_3   0.267006 0.839407 0.499756 0.169510
C92   C     C_3   0.685050 0.249718 0.494639 0.175640
C93   C     C_3   0.232994 0.339407 0.500244 0.169510
C94   C     C_3   0.814950 0.749718 0.505361 0.175640
C95   C     C_3   0.767006 0.339407 0.499756 0.169510
C96   C     C_3   0.185050 0.749718 0.494639 0.175639
H1    H     H_    0.281243 0.107651 0.828807 0.089363
H2    H     H_    0.262762 0.894595 0.680234 0.118843
H3    H     H_    0.292133 0.159702 0.681888 0.120892
H4    H     H_    0.737238 0.894595 0.319765 0.118843
H5    H     H_    0.207867 0.659702 0.318112 0.120892
H6    H     H_    0.762762 0.394595 0.680234 0.118844
H7    H     H_    0.792134 0.659702 0.681888 0.120892
H8    H     H_    0.237238 0.394595 0.319765 0.118843
H9    H     H_    0.558126 0.088657 0.154387 0.180835
H10   H     H_    0.479335 0.836885 0.764589 0.148966
H11   H     H_    0.441874 0.088657 0.845613 0.180835
H12   H     H_    0.691614 0.834988 0.237078 0.099045
H13   H     H_    0.520665 0.836885 0.235411 0.148966
H14   H     H_    0.058126 0.588657 0.154387 0.180835
H15   H     H_    0.979335 0.336885 0.764589 0.148966
H16   H     H_    0.941874 0.588657 0.845613 0.180835
H17   H     H_    0.020665 0.336885 0.235411 0.148966
H18   H     H_    0.774199 0.931692 0.558939 0.143006
H19   H     H_    0.271300 0.158980 0.448019 0.153502
H20   H     H_    0.225801 0.931692 0.441060 0.143006
H21   H     H_    0.728700 0.158980 0.551980 0.153502
H22   H     H_    0.274199 0.431692 0.558939 0.143006
H23   H     H_    0.718757 0.107651 0.171193 0.089363
H24   H     H_    0.771300 0.658980 0.448019 0.153502
H25   H     H_    0.725801 0.431692 0.441061 0.143006
H26   H     H_    0.228699 0.658981 0.551982 0.153503
H27   H     H_    0.393919 0.346568 0.373731 0.144744
H28   H     H_    0.654808 0.741489 0.632336 0.139725
H29   H     H_    0.606080 0.346568 0.626269 0.144744
H30   H     H_    0.345192 0.741488 0.367665 0.139724
H31   H     H_    0.893919 0.846568 0.373731 0.144744
H32   H     H_    0.154808 0.241489 0.632336 0.139724
H33   H     H_    0.106080 0.846568 0.626268 0.144744
H34   H     H_    0.308386 0.834988 0.762922 0.099045
H35   H     H_    0.845192 0.241489 0.367664 0.139725
H36   H     H_    0.314060 0.296299 0.312208 0.139729
H37   H     H_    0.734657 0.792041 0.693478 0.131850
H38   H     H_    0.685940 0.296299 0.687792 0.139729
H39   H     H_    0.265344 0.792041 0.306522 0.131850
H40   H     H_    0.814060 0.796299 0.312208 0.139729
H41   H     H_    0.234657 0.292042 0.693478 0.131850
H42   H     H_    0.185940 0.796300 0.687793 0.139729
H43   H     H_    0.765343 0.292042 0.306522 0.131850
H44   H     H_    0.296997 0.704987 0.806030 0.133632
H45   H     H_    0.781243 0.607651 0.828807 0.089363
H46   H     H_    0.790540 0.112538 0.986324 0.129105
H47   H     H_    0.703003 0.704987 0.193970 0.133632
H48   H     H_    0.209460 0.112538 0.013676 0.129105
H49   H     H_    0.796997 0.204987 0.806030 0.133632
H50   H     H_    0.290540 0.612538 0.986324 0.129105
H51   H     H_    0.203002 0.204987 0.193970 0.133632
H52   H     H_    0.709460 0.612538 0.013676 0.129105
H53   H     H_    0.381035 0.715450 0.886873 0.140263
H54   H     H_    0.678798 0.168717 0.973387 0.152165
H55   H     H_    0.618965 0.715450 0.113127 0.140263
H56   H     H_    0.191614 0.334988 0.237078 0.099045
H57   H     H_    0.321202 0.168717 0.026612 0.152166
H58   H     H_    0.881035 0.215450 0.886873 0.140263
H59   H     H_    0.178798 0.668717 0.973387 0.152166
H60   H     H_    0.118966 0.215450 0.113126 0.140263
H61   H     H_    0.821202 0.668717 0.026613 0.152166
H62   H     H_    0.218757 0.607651 0.171193 0.089363
H63   H     H_    0.808386 0.334988 0.762922 0.099045
H64   H     H_    0.707866 0.159702 0.318112 0.120892
N1    N     N_R   0.389620 0.081040 0.705440 -0.051387
N2    N     N_R   0.417680 0.920160 0.443370 -0.071839
N3    N     N_R   0.417680 0.079840 0.443370 -0.062215
N4    N     N_R   0.582320 0.920160 0.556630 -0.071839
N5    N     N_R   0.082320 0.579840 0.556630 -0.062215
N6    N     N_R   0.917680 0.420160 0.443370 -0.071839
N7    N     N_R   0.917680 0.579840 0.443370 -0.062215
N8    N     N_R   0.082320 0.420160 0.556630 -0.071839
N9    N     N_R   0.627920 0.078930 0.443400 -0.054787
N10   N     N_R   0.372080 0.921070 0.556600 -0.054513
N11   N     N_R   0.372080 0.078930 0.556600 -0.054787
N12   N     N_R   0.610380 0.918960 0.294560 -0.050338
N13   N     N_R   0.627920 0.921070 0.443400 -0.054513
N14   N     N_R   0.127920 0.578930 0.443400 -0.054787
N15   N     N_R   0.872080 0.421070 0.556600 -0.054513
N16   N     N_R   0.872080 0.578930 0.556600 -0.054787
N17   N     N_R   0.127920 0.421070 0.443400 -0.054513
N18   N     N_R   0.555090 0.077730 0.294590 -0.053706
N19   N     N_R   0.444910 0.922270 0.705410 -0.042738
N20   N     N_R   0.444910 0.077730 0.705410 -0.053706
N21   N     N_R   0.555090 0.922270 0.294590 -0.042738
N22   N     N_R   0.055090 0.577730 0.294590 -0.053706
N23   N     N_R   0.610380 0.081040 0.294560 -0.051387
N24   N     N_R   0.944910 0.422270 0.705410 -0.042738
N25   N     N_R   0.944910 0.577730 0.705410 -0.053706
N26   N     N_R   0.055090 0.422270 0.294590 -0.042738
N27   N     N_R   0.389620 0.918960 0.705440 -0.050339
N28   N     N_R   0.889620 0.581040 0.705440 -0.051387
N29   N     N_R   0.110380 0.418960 0.294560 -0.050338
N30   N     N_R   0.110380 0.581040 0.294560 -0.051387
N31   N     N_R   0.889620 0.418960 0.705440 -0.050339
N32   N     N_R   0.582320 0.079840 0.556630 -0.062215
Ni1   Ni    Ni4+2 0.382970 0.000000 0.629840 0.202225
Ni2   Ni    Ni4+2 0.617030 0.000000 0.370160 0.202226
Ni3   Ni    Ni4+2 0.882970 0.500000 0.629840 0.202226
Ni4   Ni    Ni4+2 0.117030 0.500000 0.370160 0.202226
Ni5   Ni    Ni4+2 0.514540 0.000000 0.629840 0.278149
Ni6   Ni    Ni4+2 0.485460 0.000000 0.370160 0.278149
Ni7   Ni    Ni4+2 0.014540 0.500000 0.629840 0.278149
Ni8   Ni    Ni4+2 0.985460 0.500000 0.370160 0.278149

loop_
_geom_bond_atom_site_label_1
_geom_bond_atom_site_label_2
_ccdc_geom_bond_type
N6    Ni8   S    
C80   C88   S    
C18   C24   S    
N32   Ni5   S    
C72   H28   S    
C75   C94   S    
C21   C25   S    
C8    C86   S    
C37   C63   A    
C74   C91   S    
C15   C61   S    
C71   C90   S    
C1    N1    A    
N13   Ni2   S    
C17   C59   S    
Br8   C35   S    
C23   H23   S    
C31   N5    A    
C25   H52   S    
C52   N26   A    
N8    N17   A    
C12   N12   A    
C46   C57   A    
C64   C90   S    
C44   H9    S    
C51   N25   A    
C10   C57   S    
C14   H59   S    
C6    H41   S    
C2    C80   S    
C43   H8    S    
N2    N10   A    
C8    H43   S    
N25   Ni7   S    
C9    C18   D    
N8    Ni7   S    
C4    C82   S    
N4    Ni5   S    
C4    C96   S    
N12   Ni2   S    
N12   N21   A    
C51   C58   A    
C7    C87   S    
C33   C69   A    
C5    H40   S    
N26   N29   A    
C34   H34   S    
N5    N14   A    
C17   H60   S    
C1    H1    S    
C23   N23   A    
C47   C53   A    
N29   Ni4   S    
C11   H57   S    
C31   C66   A    
N18   N23   A    
C81   C89   S    
C42   H7    S    
C14   C60   S    
C41   N15   A    
N4    N13   A    
N11   Ni1   S    
C52   C59   A    
C19   H44   S    
N9    N32   A    
C8    C79   S    
C36   C62   A    
N23   Ni2   S    
C6    C76   S    
C83   C92   S    
C72   C88   S    
C83   H21   S    
C89   H36   S    
C38   C64   A    
C28   C63   A    
C39   N13   A    
C17   C26   D    
C7    C77   S    
C15   H58   S    
C68   C95   S    
C75   C80   S    
C33   N7    A    
C20   C26   S    
C49   H14   S    
N16   Ni3   S    
C56   N29   A    
C19   C22   S    
N31   Ni3   S    
C76   C93   S    
C13   H55   S    
N3    N11   A    
C69   C94   S    
C52   H17   S    
C44   N18   A    
N7    Ni8   S    
C75   H31   S    
C62   C92   S    
C27   N32   A    
C6    C90   S    
C51   H16   S    
C13   C21   D    
N20   Ni5   S    
C86   H25   S    
C79   C83   S    
N18   Ni6   S    
C5    C88   S    
C35   C70   A    
C11   C20   D    
C56   C59   A    
C23   C55   A    
C2    C94   S    
C39   C65   A    
C36   N9    A    
C80   H18   S    
C67   H62   S    
C79   H35   S    
C12   H12   S    
Br1   C27   S    
C36   H64   S    
C8    C92   S    
C81   H19   S    
C26   H51   S    
C63   C91   S    
C3    C73   S    
C32   C68   A    
C5    C85   S    
C60   C67   A    
C2    H37   S    
C74   H30   S    
C87   C96   S    
C43   N17   A    
C40   C66   A    
C21   H47   S    
C35   N8    A    
C71   C89   S    
C18   H46   S    
N21   Ni6   S    
C77   C82   S    
N25   N28   A    
C71   H27   S    
C38   H3    S    
C56   H56   S    
C13   C54   S    
C41   C68   A    
C4    C74   S    
N5    Ni7   S    
C47   N20   A    
N3    Ni6   S    
C73   H29   S    
C9    H54   S    
C6    C84   S    
C71   C84   S    
C77   C96   S    
C84   C93   S    
C79   C95   S    
C37   N10   A    
N22   Ni8   S    
Br4   C30   S    
C86   C95   S    
C20   H48   S    
C46   N19   A    
C27   C62   A    
N2    Ni6   S    
C50   N24   A    
N24   Ni7   S    
C48   C54   A    
C29   C64   A    
C76   C81   S    
C78   H63   S    
C49   C60   A    
C42   C69   A    
C77   H33   S    
C82   C91   S    
N14   Ni4   S    
C37   H2    S    
N22   N30   A    
C66   C96   S    
C67   N30   A    
Br2   C28   S    
C34   C57   A    
C5    C75   S    
C48   N21   A    
C76   H32   S    
C2    C72   S    
C74   C87   S    
C14   C22   D    
N19   N27   A    
C82   H20   S    
C38   N11   A    
N24   N31   A    
C42   N16   A    
C10   C19   D    
N1    N20   A    
C7    C91   S    
C44   C55   A    
C84   H22   S    
C85   C94   S    
C29   N3    A    
C7    H42   S    
N19   Ni5   S    
C32   N6    A    
C50   C61   A    
C30   N4    A    
N27   Ni1   S    
C73   C92   S    
C16   C58   S    
N26   Ni8   S    
C78   N31   A    
C28   N2    A    
C16   C25   D    
C4    H39   S    
C81   C90   S    
N30   Ni4   S    
N28   Ni3   S    
C15   C24   D    
Br5   C31   S    
C16   H61   S    
C43   C70   A    
N15   Ni3   S    
C49   N22   A    
C10   H53   S    
C45   C58   A    
C9    C55   S    
C40   N14   A    
C73   C86   S    
C47   H11   S    
C11   C53   S    
C46   H10   S    
C50   H15   S    
C40   H5    S    
C1    C53   A    
Br6   C32   S    
Br7   C33   S    
C12   C54   A    
C34   N27   A    
C3    H38   S    
C85   H24   S    
N1    Ni1   S    
C24   H49   S    
C3    C83   S    
C22   H50   S    
Br3   C29   S    
C87   H26   S    
C39   H4    S    
N10   Ni1   S    
N17   Ni4   S    
C45   N28   A    
N9    Ni2   S    
C41   H6    S    
C3    C95   S    
C65   C88   S    
C72   C85   S    
N6    N15   A    
C45   H45   S    
C89   C93   S    
C61   C78   A    
C48   H13   S    
N7    N16   A    
C70   C93   S    
C30   C65   A    
