data_mof_unit_55468.cif
_audit_creation_date              2012-12-10T16:35:11-0500
_audit_creation_method            fapswitch 2.2
_symmetry_space_group_name_H-M    P1
_symmetry_Int_Tables_number       1
_space_group_crystal_system       triclinic
_cell_length_a                    10.861861
_cell_length_b                    10.908917
_cell_length_c                    10.845807
_cell_angle_alpha                 80.586382
_cell_angle_beta                  98.136311
_cell_angle_gamma                 90.036907
_cell_volume                      1254.73057779

loop_
_atom_site_label
_atom_site_type_symbol
_atom_type_description
_atom_site_fract_x
_atom_site_fract_y
_atom_site_fract_z
_atom_type_partial_charge
C1    C     C_R   0.834160 0.470357 0.529476 0.785430
C2    C     C_2   0.471263 0.028505 0.534201 0.009330
C3    C     C_2   0.533261 0.966429 0.461694 0.036330
C4    C     C_2   0.027817 0.534975 0.458864 -0.074246
C5    C     C_3   0.394183 0.958580 0.628417 -0.967592
C6    C     C_3   0.609839 0.024133 0.361508 -0.868837
C7    C     C_3   0.957131 0.625272 0.350437 -0.983063
C8    C     C_3   0.006717 0.259632 0.642329 0.089671
C9    C     C_3   0.086820 0.179577 0.753567 -0.291839
C10   C     C_3   0.065260 0.041392 0.753240 -0.989825
C11   C     C_3   0.285635 0.621961 0.919286 0.077377
C12   C     C_2   0.967303 0.459192 0.540789 0.302581
C13   C     C_3   0.231611 0.709527 0.799037 -0.334633
C14   C     C_3   0.091358 0.695531 0.768031 -0.920038
C15   C     C_3   0.685489 0.296467 0.013431 0.082768
C16   C     C_3   0.657095 0.186122 0.943721 -0.342103
C17   C     C_3   0.775267 0.133099 0.909467 -0.979914
C18   C     C_2   0.471838 0.538936 0.023210 0.178415
C19   C     C_2   0.532811 0.454708 0.974240 0.234158
C20   C     C_R   0.163680 0.527487 0.472485 0.897171
C21   C     C_R   0.524140 0.470720 0.838541 0.817016
C22   C     C_R   0.476183 0.527024 0.159985 0.810668
C23   C     C_R   0.523845 0.834150 0.475028 0.885410
C24   C     C_R   0.477011 0.163908 0.523645 0.875902
H1    H     H_    0.349812 0.020700 0.681539 0.269709
H2    H     H_    0.031177 0.234684 0.552889 0.141661
H3    H     H_    0.907074 0.239494 0.648527 0.122418
H4    H     H_    0.186699 0.198709 0.748424 0.247490
H5    H     H_    0.063995 0.203930 0.843459 0.219163
H6    H     H_    0.965796 0.020008 0.757408 0.275978
H7    H     H_    0.122202 0.986473 0.837105 0.272812
H8    H     H_    0.092866 0.013704 0.666719 0.269736
H9    H     H_    0.238949 0.641498 0.999158 0.168672
H10   H     H_    0.265846 0.524641 0.903844 0.140174
H11   H     H_    0.251294 0.807040 0.811324 0.237065
H12   H     H_    0.318882 0.908662 0.578109 0.238757
H13   H     H_    0.276990 0.688807 0.718820 0.215583
H14   H     H_    0.069388 0.598331 0.756421 0.296550
H15   H     H_    0.055996 0.757931 0.678451 0.265684
H16   H     H_    0.043571 0.721034 0.844580 0.263896
H17   H     H_    0.749379 0.263274 0.102082 0.174262
H18   H     H_    0.736955 0.368981 0.957442 0.118836
H19   H     H_    0.612758 0.112154 0.004732 0.238310
H20   H     H_    0.591389 0.215672 0.855710 0.227481
H21   H     H_    0.820573 0.205738 0.848188 0.261311
H22   H     H_    0.751549 0.054643 0.857484 0.272789
H23   H     H_    0.454237 0.890414 0.698658 0.264961
H24   H     H_    0.841279 0.098481 0.996142 0.271031
H25   H     H_    0.646106 0.952399 0.313088 0.209360
H26   H     H_    0.551791 0.090659 0.287613 0.274414
H27   H     H_    0.692045 0.070390 0.405069 0.256447
H28   H     H_    0.019749 0.679484 0.290756 0.275747
H29   H     H_    0.893689 0.573592 0.288698 0.249410
H30   H     H_    0.901713 0.692406 0.388107 0.248345
O1    O     O_3   0.500000 0.500000 0.500000 -0.492739
O2    O     O_R   0.597340 0.765700 0.560080 -0.640998
O3    O     O_R   0.548200 0.222430 0.451790 -0.649999
O4    O     O_R   0.441590 0.789440 0.401000 -0.643722
O5    O     O_R   0.412860 0.222430 0.587130 -0.658162
O6    O     O_3   0.030230 0.386072 0.648001 -0.651951
O7    O     O_3   0.414471 0.642899 0.945384 -0.658940
O8    O     O_3   0.574906 0.341319 0.047802 -0.647038
O9    O     O_R   0.441590 0.410520 0.779910 -0.659887
O10   O     O_R   0.548210 0.443940 0.230290 -0.602289
O11   O     O_R   0.787780 0.544200 0.591150 -0.634547
O12   O     O_R   0.222430 0.601350 0.398650 -0.656776
O13   O     O_R   0.767360 0.410530 0.454140 -0.672157
O14   O     O_R   0.222430 0.443930 0.556060 -0.608070
O15   O     O_R   0.597340 0.544190 0.781580 -0.642816
O16   O     O_R   0.412870 0.601350 0.208220 -0.640444
Zn1   Zn    Zn3+2 0.396020 0.396030 0.603970 0.954159
Zn2   Zn    Zn3+2 0.618560 0.587010 0.606350 0.969560
Zn3   Zn    Zn3+2 0.396030 0.620930 0.379070 0.961133
Zn4   Zn    Zn3+2 0.589390 0.396030 0.410610 0.957499

loop_
_geom_bond_atom_site_label_1
_geom_bond_atom_site_label_2
_ccdc_geom_bond_type
O3    Zn4   S    
O15   Zn2   S    
C1    O11   A    
C18   O7    S    
C1    O13   A    
C6    H27   S    
C4    C12   D    
O11   Zn2   S    
C11   C13   S    
C9    C10   S    
C10   H6    S    
C3    C23   S    
O1    Zn2   S    
C17   H24   S    
C9    H5    S    
O2    Zn2   S    
O12   Zn3   S    
C3    C6    S    
O1    Zn3   S    
O16   Zn3   S    
C2    C3    D    
C9    H4    S    
C14   H16   S    
C23   O2    A    
O13   Zn4   S    
C13   C14   S    
C8    O6    S    
C5    H23   S    
C16   H19   S    
O4    Zn3   S    
O9    Zn1   S    
C1    C12   S    
C24   O5    A    
C5    H1    S    
C20   O12   A    
C22   O16   A    
C19   C21   S    
C15   O8    S    
C17   H21   S    
C7    H28   S    
C13   H11   S    
C23   O4    A    
O14   Zn1   S    
C6    H25   S    
C2    C24   S    
C16   C17   S    
O1    Zn1   S    
C21   O9    A    
C2    C5    S    
C14   H14   S    
C7    H29   S    
C19   O8    S    
C22   O10   A    
C15   C16   S    
C4    C20   S    
C5    H12   S    
C10   H8    S    
C11   H9    S    
C8    H2    S    
C17   H22   S    
C15   H17   S    
C18   C19   D    
C21   O15   A    
C8    H3    S    
C16   H20   S    
C8    C9    S    
O10   Zn4   S    
C7    H30   S    
C4    C7    S    
C14   H15   S    
C18   C22   S    
O1    Zn4   S    
C13   H13   S    
C10   H7    S    
C20   O14   A    
C11   H10   S    
C6    H26   S    
C15   H18   S    
O5    Zn1   S    
C24   O3    A    
C11   O7    S    
C12   O6    S    
