data_mof_unit_20537.cif
_audit_creation_date              2012-12-11T14:17:32-0500
_audit_creation_method            fapswitch 2.2
_symmetry_space_group_name_H-M    P1
_symmetry_Int_Tables_number       1
_space_group_crystal_system       triclinic
_cell_length_a                    6.939558
_cell_length_b                    13.633546
_cell_length_c                    20.411425
_cell_angle_alpha                 101.902077
_cell_angle_beta                  90.180939
_cell_angle_gamma                 90.584138
_cell_volume                      1889.49877804

loop_
_atom_site_label
_atom_site_type_symbol
_atom_type_description
_atom_site_fract_x
_atom_site_fract_y
_atom_site_fract_z
_atom_type_partial_charge
O1    O     O_R   0.506860 0.599390 0.449240 -0.522431
O2    O     O_R   0.180220 0.594600 0.586780 -0.548281
O3    O     O_R   0.004500 0.400610 0.550760 -0.539458
C1    C     C_R   0.349486 0.617654 0.612627 0.728962
O4    O     O_R   0.177490 0.611290 0.451970 -0.541228
O5    O     O_R   0.001750 0.417420 0.414990 -0.547912
C2    C     C_R   0.346617 0.637672 0.434664 0.758991
O6    O     O_R   0.509610 0.582580 0.585010 -0.540165
O7    O     O_3   0.337420 0.436370 0.488020 -0.373885
V1    V     V_3+5 0.064680 0.511800 0.502220 1.466833
O8    O     O_R   0.671710 0.405400 0.413220 -0.532721
C3    C     C_R   0.839823 0.380665 0.388072 0.679374
O9    O     O_R   0.674440 0.388710 0.548030 -0.543501
C4    C     C_R   0.843207 0.362378 0.565195 0.694327
V2    V     V_3+5 0.564010 0.488200 0.497780 1.484854
O10   O     O_3   0.841140 0.563630 0.511980 -0.368871
C5    C     C_R   0.934777 0.116793 0.614607 -0.131481
H1    H     H_    0.925926 0.166813 0.521650 0.128033
H2    H     H_    0.966442 0.993164 0.698581 0.122500
H3    H     H_    0.968665 0.040583 0.590213 0.151405
C6    C     C_R   0.855431 0.285374 0.605375 -0.056057
C7    C     C_R   0.834462 0.316189 0.929702 0.167590
C8    C     C_R   0.838107 0.394366 0.893561 0.358913
C9    C     C_R   0.879364 0.373087 0.824998 0.332821
C10   C     C_R   0.881737 0.271803 0.788272 -0.116945
C11   C     C_R   0.885615 0.193910 0.825271 -0.045572
C12   C     C_R   0.881594 0.244631 0.716502 0.111019
C13   C     C_R   0.919876 0.143847 0.684598 0.139912
C14   C     C_R   0.939368 0.070403 0.722553 -0.185308
C15   C     C_R   0.916213 0.094239 0.791451 -0.132843
C16   C     C_R   0.835864 0.312534 0.674985 -0.232964
C17   C     C_R   0.907838 0.187929 0.575411 -0.143817
C18   C     C_R   0.861697 0.216921 0.895623 -0.154295
H4    H     H_    0.783284 0.386754 0.695307 0.165681
H5    H     H_    0.924833 0.033466 0.818068 0.098531
C19   C     C_2   0.986417 0.298154 0.281339 -0.202868
C20   C     C_2   0.844632 0.300391 0.326510 0.218324
H6    H     H_    0.102828 0.353225 0.291016 0.125609
C21   C     C_2   0.001820 0.215981 0.220675 0.366074
C22   C     C_2   0.859835 0.197733 0.173659 0.034036
C23   C     C_2   0.219391 0.794949 0.779882 -0.161565
C24   C     C_2   0.362078 0.802366 0.825824 0.050681
H7    H     H_    0.098510 0.845754 0.790071 0.117089
C25   C     C_2   0.209531 0.718273 0.716453 -0.076964
C26   C     C_2   0.362473 0.692220 0.676245 -0.283635
H8    H     H_    0.068010 0.687427 0.700604 0.156682
H9    H     H_    0.501274 0.728325 0.689265 0.155926
C27   C     C_R   0.341245 0.893722 0.389485 0.366824
H10   H     H_    0.361870 0.019464 0.301078 0.141668
C28   C     C_R   0.356317 0.717738 0.396141 -0.248491
C29   C     C_R   0.308448 0.685830 0.074772 0.137422
C30   C     C_R   0.275222 0.614520 0.113437 -0.118075
C31   C     C_R   0.291623 0.640107 0.182801 -0.138104
C32   C     C_R   0.349609 0.737332 0.215683 0.129458
C33   C     C_R   0.365957 0.812396 0.176913 0.019588
C34   C     C_R   0.369597 0.764133 0.286781 0.006068
C35   C     C_R   0.360929 0.866971 0.318808 -0.072560
C36   C     C_R   0.367820 0.940268 0.279369 -0.121323
C37   C     C_R   0.380904 0.913344 0.210052 -0.148883
C38   C     C_R   0.397038 0.692399 0.327237 0.044473
C39   C     C_R   0.323074 0.819030 0.427102 0.325430
C40   C     C_R   0.353138 0.785421 0.105978 -0.140018
H11   H     H_    0.247439 0.584313 0.210474 0.166822
H12   H     H_    0.231305 0.539077 0.089717 0.159423
H13   H     H_    0.389882 0.973120 0.182514 0.145722
O11   O     O_R   0.203230 0.917310 0.915020 -0.548708
O12   O     O_R   0.535500 0.888690 0.048040 -0.537797
O13   O     O_R   0.711080 0.082610 0.085000 -0.537175
C41   C     C_R   0.366096 0.862100 0.065036 0.736586
O14   O     O_R   0.532630 0.905370 0.913230 -0.535274
O15   O     O_R   0.708190 0.099410 0.949230 -0.540678
C42   C     C_R   0.364076 0.881541 0.887588 0.701024
O16   O     O_R   0.206120 0.900510 0.050790 -0.535118
O17   O     O_3   0.375360 0.063570 0.011990 -0.363544
V3    V     V_3+5 0.648170 0.988200 0.997780 1.543119
O18   O     O_R   0.038240 0.111390 0.951940 -0.551643
C43   C     C_R   0.869680 0.137872 0.934944 0.791038
O19   O     O_R   0.041120 0.094710 0.086750 -0.518463
C44   C     C_R   0.872651 0.117977 0.112516 0.748751
V4    V     V_3+5 0.148810 0.011930 0.002180 1.539893
O20   O     O_3   0.871750 0.936430 0.988010 -0.371780
O21   O     O_3   0.707234 0.224263 0.315948 -0.637335
H14   H     H_    0.622060 0.232541 0.355526 0.285844
O22   O     O_3   0.165410 0.157792 0.211943 -0.642812
H15   H     H_    0.251625 0.180647 0.251089 0.306061
I1    I     I_    0.613112 0.291181 0.176682 -0.299981
I2    I     I_    0.591427 0.696206 0.819094 -0.287917
O23   O     O_3   0.286953 0.849998 0.494867 -0.616894
H16   H     H_    0.286037 0.792221 0.517201 0.267701
O24   O     O_3   0.331543 0.992052 0.423653 -0.615782
H17   H     H_    0.428565 0.031690 0.404530 0.279394
I3    I     I_    0.557380 0.558067 0.291166 -0.379750
I4    I     I_    0.270144 0.639775 0.969771 -0.279516
O25   O     O_3   0.816280 0.334447 0.998591 -0.634153
H18   H     H_    0.867110 0.402422 0.017841 0.310561
O26   O     O_3   0.931225 0.453537 0.797386 -0.592128
H19   H     H_    0.038772 0.431756 0.766042 0.294965
O27   O     O_3   0.809606 0.493368 0.923940 -0.578771
H20   H     H_    0.721054 0.495750 0.962175 0.313445

loop_
_geom_bond_atom_site_label_1
_geom_bond_atom_site_label_2
_ccdc_geom_bond_type
C33   C37   A    
C7    O25   S    
C23   C24   D    
C1    O6    A    
O24   H17   S    
C27   C35   A    
C31   C32   A    
C30   C31   A    
O13   V3    S    
C6    C16   A    
C15   H5    S    
C4    C6    S    
C13   C14   A    
C21   O22   S    
C9    O26   S    
O5    C3    A    
O19   V4    S    
V2    O10   S    
C33   C40   A    
C5    H3    S    
C34   C35   A    
C22   I1    S    
C3    C20   S    
O8    V2    S    
O22   H15   S    
O11   C42   A    
C8    C9    A    
C41   O16   A    
O1    V2    S    
O7    V1    S    
O13   C44   A    
C26   H9    S    
O17   V4    S    
O9    C4    A    
C23   H7    S    
C29   C40   A    
C25   H8    S    
C1    C26   S    
C38   I3    S    
C6    C17   A    
C32   C34   A    
C22   C44   S    
O17   V3    S    
C12   C16   A    
C29   C30   A    
C9    C10   A    
C30   H12   S    
C21   C22   D    
O4    C2    A    
O19   C44   A    
V3    O20   S    
C36   C37   A    
O21   H14   S    
H10   C36   S    
C34   C38   A    
C40   C41   S    
O12   C41   A    
O2    C1    A    
C14   C15   A    
C39   O23   S    
C11   C18   A    
O26   H19   S    
C24   C42   S    
C16   H4    S    
O18   C43   A    
O3    C4    A    
C29   I4    S    
C11   C15   A    
O6    V2    S    
O9    V2    S    
C23   C25   S    
C20   O21   S    
O12   V3    S    
O2    V1    S    
O15   C43   A    
C25   C26   D    
C5    C17   A    
C7    C18   A    
C32   C33   A    
C19   C20   D    
O1    C2    A    
C5    C13   A    
C19   C21   S    
O18   V4    S    
C2    C28   S    
V4    O20   S    
O5    V1    S    
O14   C42   A    
O8    C3    A    
C10   C12   A    
O11   V4    S    
C28   C38   A    
C19   H6    S    
C10   C11   A    
O4    V1    S    
O3    V1    S    
V1    O10   S    
C37   H13   S    
O15   V3    S    
C31   H11   S    
C18   C43   S    
C35   C36   A    
O16   V4    S    
O7    V2    S    
O25   H18   S    
C8    O27   S    
H1    C17   S    
O23   H16   S    
O27   H20   S    
C27   C39   A    
O14   V3    S    
C28   C39   A    
C7    C8    A    
C27   O24   S    
C24   I2    S    
C12   C13   A    
H2    C14   S    
