data_mof_unit_29942.cif
_audit_creation_date              2013-03-05T16:48:43-0500
_audit_creation_method            fapswitch 2.2
_symmetry_space_group_name_H-M    P1
_symmetry_Int_Tables_number       1
_space_group_crystal_system       triclinic
_cell_length_a                    27.701974
_cell_length_b                    8.916292
_cell_length_c                    8.094524
_cell_angle_alpha                 90.063713
_cell_angle_beta                  89.997845
_cell_angle_gamma                 89.998532
_cell_volume                      1999.33719807

loop_
_atom_site_label
_atom_site_type_symbol
_atom_site_description
_atom_site_fract_x
_atom_site_fract_y
_atom_site_fract_z
_atom_type_partial_charge
O1    O     O_R   0.500000 0.285350 0.636850 -0.604236
O2    O     O_R   0.500000 0.714650 0.363150 -0.600798
O3    O     O_R   0.500000 0.714650 0.636850 -0.618620
O4    O     O_R   0.500000 0.285350 0.363150 -0.617471
C1    C     C_R   0.499999 0.217975 0.499942 0.963215
C2    C     C_R   0.499993 0.782025 0.500069 0.968122
O5    O     O_R   0.428760 0.500000 0.636860 -0.598590
O6    O     O_R   0.571240 0.500000 0.363140 -0.597774
O7    O     O_R   0.571240 0.500000 0.636860 -0.598696
O8    O     O_R   0.428760 0.500000 0.363140 -0.597674
C3    C     C_R   0.406008 0.500252 0.499987 1.000972
C4    C     C_R   0.593990 0.500249 0.499980 1.001248
Zn1   Zn    Zn3+2 0.500000 0.500000 0.682780 1.081247
Zn2   Zn    Zn3+2 0.500000 0.500000 0.317220 1.082966
C5    C     C_R   0.178132 0.481704 0.357913 0.606009
C6    C     C_R   0.821810 0.567741 0.637260 0.607337
C7    C     C_R   0.178198 0.569271 0.636592 0.607329
C8    C     C_R   0.821842 0.484682 0.356899 0.605953
O9    O     O_2   0.203220 0.436773 0.223658 -0.483549
O10   O     O_2   0.796672 0.606142 0.773792 -0.482500
O11   O     O_2   0.203359 0.610051 0.772266 -0.482945
O12   O     O_2   0.796737 0.442221 0.221743 -0.483016
N1    N     N_R   0.202050 0.522880 0.498177 -0.329021
N2    N     N_R   0.797940 0.523567 0.497999 -0.329099
C9    C     C_R   0.279852 0.640990 0.442169 0.293968
C10   C     C_R   0.723196 0.388197 0.556761 0.291521
C11   C     C_R   0.276846 0.388214 0.558042 0.291377
C12   C     C_R   0.720082 0.641841 0.443225 0.294413
C13   C     C_R   0.330259 0.635274 0.441544 0.179890
C14   C     C_R   0.672764 0.382120 0.557551 0.181838
C15   C     C_R   0.327279 0.382270 0.558705 0.181948
C16   C     C_R   0.669678 0.635920 0.442575 0.179698
C17   C     C_R   0.253462 0.517438 0.499895 0.039107
C18   C     C_R   0.746528 0.517944 0.499760 0.038743
C19   C     C_R   0.102041 0.531811 0.495025 -0.043201
C20   C     C_R   0.897954 0.532358 0.494918 -0.043090
C21   C     C_R   0.127696 0.485880 0.353471 -0.039977
C22   C     C_R   0.872270 0.572780 0.638427 -0.040156
C23   C     C_R   0.127740 0.574237 0.637812 -0.040814
C24   C     C_R   0.872282 0.488652 0.352571 -0.039380
C25   C     C_R   0.102693 0.444662 0.211201 -0.121196
C26   C     C_R   0.897267 0.616793 0.779695 -0.122178
C27   C     C_R   0.102757 0.620333 0.778319 -0.121393
C28   C     C_R   0.897268 0.449570 0.209543 -0.121792
C29   C     C_R   0.353737 0.505787 0.499903 -0.285095
C30   C     C_R   0.646256 0.505954 0.499868 -0.285125
H1    H     H_    0.121691 0.409245 0.100780 0.202104
H2    H     H_    0.878257 0.648794 0.891303 0.200584
H3    H     H_    0.121784 0.654192 0.889260 0.201483
H4    H     H_    0.878257 0.416359 0.098365 0.201318
C31   C     C_R   0.974392 0.492741 0.348191 0.046931
C32   C     C_R   0.025610 0.579742 0.638794 0.045863
C33   C     C_R   0.974400 0.579031 0.639079 0.046587
C34   C     C_R   0.025594 0.491661 0.348531 0.046231
C35   C     C_R   0.949152 0.534973 0.493975 0.084225
C36   C     C_R   0.050846 0.534665 0.494024 0.084090
C37   C     C_R   0.947245 0.451729 0.206868 -0.221103
C38   C     C_R   0.052770 0.623302 0.779179 -0.219772
C39   C     C_R   0.947255 0.619994 0.780442 -0.220178
C40   C     C_R   0.052723 0.447467 0.208310 -0.220641
H5    H     H_    0.963178 0.419954 0.090950 0.147083
H6    H     H_    0.036834 0.660733 0.893094 0.148288
H7    H     H_    0.963202 0.654706 0.895314 0.147141
H8    H     H_    0.036774 0.412758 0.093384 0.148298
C41   C     C_1   0.499995 0.065216 0.499926 -0.085376
C42   C     C_1   0.499992 0.934788 0.500106 -0.082235
N3    N     N_1   0.500000 0.500000 0.073640 0.000737
N4    N     N_1   0.500000 0.500000 0.926360 0.000137
Br1   Br    Br    0.359993 0.203927 0.634380 -0.329729
Br2   Br    Br    0.632880 0.807008 0.368454 -0.342733
Br3   Br    Br    0.366976 0.806075 0.366142 -0.342505
Br4   Br    Br    0.640113 0.203247 0.631985 -0.329494
Br5   Br    Br    0.239131 0.220476 0.634368 -0.286333
Br6   Br    Br    0.753619 0.818544 0.368499 -0.276857
Br7   Br    Br    0.246231 0.816939 0.365708 -0.277394
Br8   Br    Br    0.760975 0.219944 0.631293 -0.286264

loop_
_geom_bond_atom_site_label_1
_geom_bond_atom_site_label_2
_geom_bond_distance
_ccdc_geom_bond_type
C38   H6    1.075083 S    
C19   C23   1.408857 A    
O3    C2    1.260243 A    
C12   Br6   1.927027 S    
C33   C39   1.416748 A    
C34   C40   1.416776 A    
C11   C17   1.403537 A    
O5    C3    1.274680 A    
C7    N1    1.364511 A    
C2    C42   1.362080 S    
O1    C1    1.259969 A    
C19   C21   1.408747 A    
C22   C26   1.392913 A    
C9    C13   1.397308 A    
C7    C23   1.398520 A    
C8    C24   1.398178 A    
C5    C21   1.398142 A    
C20   C24   1.408667 A    
O7    Zn1   2.008172 S    
C27   C38   1.385002 A    
C10   C18   1.403631 A    
N1    C17   1.425102 S    
C10   Br8   1.926611 S    
Zn2   N3    1.971664 S    
C31   C37   1.416686 A    
O3    Zn1   1.950063 S    
C6    O10   1.350057 S    
C5    N1    1.364549 A    
C12   C18   1.402718 A    
C6    N2    1.364618 A    
O4    Zn2   1.950064 S    
O2    C2    1.260045 A    
C33   C35   1.422019 A    
C23   C27   1.392958 A    
C34   C36   1.422122 A    
C11   C15   1.398113 A    
N3    N4    1.192161 T    
C12   C16   1.397299 A    
C4    C30   1.448764 S    
O8    Zn2   2.008174 S    
C27   H3    1.083890 S    
C16   Br2   1.930845 S    
C7    O11   1.350289 S    
C13   C29   1.407246 A    
C9    Br7   1.927117 S    
C5    O9    1.350345 S    
C15   Br1   1.930599 S    
O5    Zn1   2.008202 S    
C28   C37   1.384784 A    
O6    C4    1.274420 A    
C25   H1    1.083930 S    
C26   H2    1.083651 S    
C32   C38   1.416805 A    
C1    C41   1.362039 S    
C10   C14   1.398124 A    
C8    N2    1.364601 A    
C3    C29   1.448830 S    
O1    Zn1   1.949252 S    
C32   C33   1.418634 A    
C28   H4    1.083683 S    
O6    Zn2   2.008199 S    
C19   C36   1.418456 A    
C8    O12   1.350183 S    
C16   C30   1.407161 A    
C14   C30   1.406238 A    
C25   C40   1.384714 A    
O4    C1    1.260320 A    
C26   C39   1.385060 A    
C14   Br4   1.930537 S    
C37   H5    1.074637 S    
C39   H7    1.074682 S    
C40   H8    1.075064 S    
C31   C34   1.418421 A    
C20   C22   1.408734 A    
C20   C35   1.418490 A    
C31   C35   1.422019 A    
C21   C25   1.392891 A    
O2    Zn2   1.949251 S    
O7    C4    1.274663 A    
N2    C18   1.425166 S    
O8    C3    1.274452 A    
C24   C28   1.392813 A    
C41   C42   1.162935 T    
C15   C29   1.406358 A    
C9    C17   1.402676 A    
C11   Br5   1.926694 S    
C32   C36   1.422100 A    
C6    C22   1.398577 A    
C13   Br3   1.930920 S    
Zn1   N4    1.971664 S    
