data_mof_unit_22033.cif
_audit_creation_date              2012-10-26T20:02:29-0400
_audit_creation_method            fapswitch 2.2
_symmetry_space_group_name_H-M    P1
_symmetry_Int_Tables_number       1
_space_group_crystal_system       triclinic
_cell_length_a                    18.942433
_cell_length_b                    18.339759
_cell_length_c                    12.412817
_cell_angle_alpha                 89.997173
_cell_angle_beta                  129.148585
_cell_angle_gamma                 90.006465
_cell_volume                      3344.16643743

loop_
_atom_site_label
_atom_site_type_symbol
_atom_type_description
_atom_site_fract_x
_atom_site_fract_y
_atom_site_fract_z
_atom_type_partial_charge
C1    C     C_R   0.611292 0.897096 0.651041 0.583759
C2    C     C_R   0.664257 0.727088 0.021510 0.031404
C3    C     C_R   0.164259 0.772945 0.021396 0.031385
C4    C     C_R   0.166302 0.229743 0.025434 0.019356
C5    C     C_R   0.587239 0.245702 0.899605 -0.112534
C6    C     C_R   0.585239 0.752835 0.897255 -0.098763
C7    C     C_R   0.085250 0.747282 0.897022 -0.098771
C8    C     C_R   0.087299 0.254701 0.900265 -0.112688
C9    C     C_R   0.590226 0.218361 0.798409 0.089158
C10   C     C_R   0.587536 0.780535 0.795583 0.094786
C11   C     C_R   0.087627 0.719552 0.795452 0.094651
C12   C     C_R   0.612476 0.101982 0.652749 0.581517
C13   C     C_R   0.090068 0.281882 0.798755 0.089308
C14   C     C_R   0.321839 0.809400 0.159628 -0.113270
C15   C     C_R   0.323513 0.192365 0.162826 -0.110948
C16   C     C_R   0.823613 0.307442 0.163142 -0.111009
C17   C     C_R   0.821777 0.690522 0.159497 -0.113246
C18   C     C_R   0.232871 0.844502 0.229747 -0.113208
C19   C     C_R   0.234203 0.157170 0.232310 -0.116182
C20   C     C_R   0.733972 0.343138 0.231786 -0.116151
C21   C     C_R   0.732928 0.655549 0.229891 -0.113214
C22   C     C_R   0.681587 0.157493 0.744089 0.022587
C23   C     C_R   0.112404 0.397970 0.652660 0.581425
C24   C     C_R   0.678661 0.839771 0.739267 0.022907
C25   C     C_R   0.178794 0.660146 0.739408 0.022923
C26   C     C_R   0.181292 0.342263 0.743678 0.022475
C27   C     C_R   0.666824 0.057634 0.275416 -0.134448
C28   C     C_R   0.166888 0.442475 0.275487 -0.134525
C29   C     C_R   0.346306 0.980593 0.629987 0.061930
C30   C     C_R   0.846299 0.519372 0.629982 0.062004
C31   C     C_R   0.313497 0.968369 0.702121 -0.147593
C32   C     C_R   0.813477 0.531556 0.702105 -0.147585
C33   C     C_R   0.384397 0.099073 0.343035 0.558870
C34   C     C_R   0.111318 0.602893 0.651063 0.583853
C35   C     C_R   0.384135 0.901158 0.342634 0.557115
C36   C     C_R   0.884133 0.598836 0.342628 0.557155
C37   C     C_R   0.884398 0.400921 0.343040 0.558729
C38   C     C_R   0.370427 0.976397 0.845944 -0.129212
C39   C     C_R   0.870407 0.523528 0.845929 -0.129195
C40   C     C_R   0.461187 0.998958 0.920452 -0.022688
C41   C     C_R   0.961181 0.501010 0.920450 -0.022690
C42   C     C_R   0.493609 0.010356 0.842965 0.191405
C43   C     C_R   0.993615 0.489646 0.842971 0.191432
C44   C     C_R   0.521312 0.010462 0.069442 -0.015316
C45   C     C_R   0.247580 0.772040 0.043689 0.028343
C46   C     C_R   0.021315 0.489526 0.069449 -0.015300
C47   C     C_R   0.604204 0.047229 0.131363 0.013274
C48   C     C_R   0.104247 0.452830 0.131415 0.013270
C49   C     C_R   0.627646 0.069364 0.050960 -0.135934
C50   C     C_R   0.127707 0.430716 0.051038 -0.135927
C51   C     C_R   0.584764 0.037983 0.921171 0.125988
C52   C     C_R   0.084787 0.462051 0.921204 0.126012
C53   C     C_R   0.503202 0.988949 0.160686 0.047736
C54   C     C_R   0.003182 0.511001 0.160672 0.047815
C55   C     C_R   0.647444 0.032019 0.359293 0.055320
C56   C     C_R   0.249917 0.231117 0.048652 0.021840
C57   C     C_R   0.147483 0.468062 0.359337 0.055256
C58   C     C_R   0.660161 0.304382 0.120265 -0.129125
C59   C     C_R   0.658778 0.693761 0.117788 -0.121652
C60   C     C_R   0.158713 0.806325 0.117563 -0.121676
C61   C     C_R   0.160438 0.196051 0.121002 -0.129154
C62   C     C_R   0.313048 0.848825 0.246712 0.023130
C63   C     C_R   0.314131 0.152262 0.248625 0.022423
C64   C     C_R   0.814096 0.347756 0.248595 0.022451
C65   C     C_R   0.813043 0.651158 0.246700 0.023117
C66   C     C_R   0.763494 0.154747 0.765127 -0.115754
C67   C     C_R   0.750015 0.268717 0.048884 0.021761
C68   C     C_R   0.759341 0.839965 0.756563 -0.115937
C69   C     C_R   0.259576 0.659768 0.756997 -0.115778
C70   C     C_R   0.262955 0.344526 0.763950 -0.115984
C71   C     C_R   0.335562 0.697193 0.866250 -0.126451
C72   C     C_R   0.339899 0.309468 0.876437 -0.125436
C73   C     C_R   0.840593 0.189355 0.878261 -0.125330
C74   C     C_R   0.835230 0.802342 0.865516 -0.126551
C75   C     C_R   0.333477 0.733150 0.962668 -0.110066
C76   C     C_R   0.337501 0.273678 0.972703 -0.108068
C77   C     C_R   0.838037 0.225261 0.974278 -0.108021
C78   C     C_R   0.747499 0.727869 0.043574 0.028352
C79   C     C_R   0.833185 0.766410 0.961997 -0.110135
C80   C     C_R   0.755480 0.232208 0.953186 0.022004
C81   C     C_R   0.752078 0.762960 0.945775 0.026919
C82   C     C_R   0.252240 0.736857 0.946054 0.026943
C83   C     C_R   0.255199 0.267353 0.952534 0.022035
C84   C     C_R   0.674786 0.202262 0.830401 0.039205
C85   C     C_R   0.671754 0.794900 0.825409 0.045880
C86   C     C_R   0.171885 0.705052 0.825496 0.045833
C87   C     C_R   0.174540 0.297612 0.830178 0.039223
C88   C     C_R   0.666203 0.270476 0.025044 0.019348
Cu1   Cu    Cu3+1 0.526340 0.000000 0.421010 0.943783
Cu2   Cu    Cu3+1 0.026340 0.500000 0.421010 0.943778
Cu3   Cu    Cu3+1 0.473640 0.000000 0.578990 1.007056
Cu4   Cu    Cu3+1 0.973640 0.500000 0.578990 1.007146
H1    H     H_    0.225614 0.874300 0.297602 0.123046
H2    H     H_    0.938649 0.534733 0.120168 0.115985
H3    H     H_    0.301001 0.973116 0.518638 0.121682
H4    H     H_    0.800991 0.526846 0.518632 0.121641
H5    H     H_    0.341127 0.967041 0.896239 0.108062
H6    H     H_    0.841093 0.532853 0.896209 0.108063
H7    H     H_    0.243296 0.952179 0.645959 0.116984
H8    H     H_    0.743265 0.547712 0.645936 0.116970
H9    H     H_    0.521748 0.254910 0.874391 0.126432
H10   H     H_    0.520036 0.744561 0.873434 0.122019
H11   H     H_    0.020013 0.755655 0.873032 0.121935
H12   H     H_    0.226613 0.127016 0.299495 0.131237
H13   H     H_    0.021891 0.245775 0.875499 0.126719
H14   H     H_    0.596571 0.304973 0.103312 0.105694
H15   H     H_    0.595461 0.693516 0.101662 0.105336
H16   H     H_    0.095344 0.806648 0.101282 0.105429
H17   H     H_    0.096997 0.195739 0.104501 0.105526
H18   H     H_    0.386265 0.812524 0.180879 0.120615
H19   H     H_    0.387381 0.188119 0.182481 0.125620
H20   H     H_    0.887564 0.311561 0.183008 0.125465
H21   H     H_    0.886189 0.687392 0.180709 0.120692
H22   H     H_    0.769796 0.121674 0.699287 0.124846
H23   H     H_    0.726273 0.373472 0.298685 0.131166
H24   H     H_    0.765747 0.872862 0.690640 0.139148
H25   H     H_    0.265984 0.626828 0.691128 0.139119
H26   H     H_    0.269210 0.377468 0.697920 0.124935
H27   H     H_    0.396947 0.757072 0.048689 0.102764
H28   H     H_    0.401680 0.252413 0.062064 0.105094
H29   H     H_    0.902297 0.246052 0.064278 0.105064
H30   H     H_    0.896575 0.742258 0.047701 0.102743
H31   H     H_    0.398165 0.695040 0.880660 0.115095
H32   H     H_    0.403284 0.313446 0.893367 0.113422
H33   H     H_    0.904182 0.184905 0.895899 0.113449
H34   H     H_    0.725711 0.625799 0.297837 0.123053
H35   H     H_    0.897729 0.804298 0.879620 0.115166
H36   H     H_    0.695381 0.041800 0.469884 0.124627
H37   H     H_    0.195436 0.458320 0.469944 0.124554
H38   H     H_    0.692246 0.097259 0.102092 0.147062
H39   H     H_    0.192322 0.402847 0.102203 0.147134
H40   H     H_    0.731239 0.084874 0.323415 0.117504
H41   H     H_    0.231343 0.415300 0.323521 0.117476
H42   H     H_    0.438703 0.965148 0.120206 0.116009
I1    I     I_    0.698964 0.990490 0.950631 -0.360900
I2    I     I_    0.199001 0.509427 0.950517 -0.360855
I3    I     I_    0.467511 0.232693 0.593339 -0.398496
I4    I     I_    0.463394 0.768226 0.591584 -0.385559
I5    I     I_    0.963613 0.731924 0.591333 -0.385671
I6    I     I_    0.967023 0.267656 0.593980 -0.398294
N1    N     N_R   0.566260 0.000000 0.302220 -0.235302
N2    N     N_R   0.066260 0.500000 0.302220 -0.235262
N3    N     N_R   0.434410 0.000000 0.697680 -0.221147
N4    N     N_R   0.934410 0.500000 0.697680 -0.221068
O1    O     O_R   0.608610 0.924520 0.551740 -0.503311
O2    O     O_R   0.435880 0.924530 0.314850 -0.518667
O3    O     O_R   0.935880 0.575470 0.314850 -0.518633
O4    O     O_R   0.935880 0.424530 0.314850 -0.506922
O5    O     O_R   0.391380 0.075460 0.448260 -0.489707
O6    O     O_R   0.391380 0.924540 0.448260 -0.498790
O7    O     O_R   0.891380 0.575460 0.448260 -0.498857
O8    O     O_R   0.891380 0.424540 0.448260 -0.489549
O9    O     O_R   0.608610 0.075480 0.551740 -0.517143
O10   O     O_R   0.108610 0.424520 0.551740 -0.517290
O11   O     O_R   0.108610 0.575480 0.551740 -0.503198
O12   O     O_R   0.564110 0.924510 0.685150 -0.449598
O13   O     O_R   0.564110 0.075490 0.685150 -0.461903
O14   O     O_R   0.064110 0.424510 0.685150 -0.461832
O15   O     O_R   0.064110 0.575490 0.685150 -0.449613
O16   O     O_R   0.435880 0.075470 0.314850 -0.506879

loop_
_geom_bond_atom_site_label_1
_geom_bond_atom_site_label_2
_ccdc_geom_bond_type
C83   C87   A    
C10   C85   A    
C8    C13   A    
C55   N1    A    
C1    O1    A    
C45   C82   A    
C12   O9    A    
C80   C84   A    
C61   H17   S    
C8    H13   S    
C17   H21   S    
C39   C41   A    
C28   C57   A    
Cu1   O1    S    
C67   C88   A    
C76   H28   S    
C57   N2    A    
C56   C83   A    
Cu4   O15   S    
C71   H31   S    
C26   C70   A    
C19   C61   A    
C21   C59   A    
C3    C7    A    
C27   C55   A    
C43   C52   A    
C23   C26   S    
C11   C86   A    
C68   C74   A    
C14   C62   A    
C23   O14   A    
C12   C22   S    
C30   N4    A    
Cu4   O14   S    
C32   C39   A    
C69   H25   S    
C69   C71   A    
C11   I5    S    
C22   C66   A    
C30   H4    S    
C5    C88   A    
C9    I3    S    
C44   C53   A    
C19   C63   A    
C26   C87   A    
C49   C51   A    
Cu4   O8    S    
C50   C52   A    
C41   C46   A    
C35   O6    A    
C31   H7    S    
C12   O13   A    
Cu1   Cu3   S    
C24   C85   A    
C60   H16   S    
C44   C47   A    
C4    C8    A    
C42   C51   A    
C3    C60   A    
C40   C42   A    
C7    H11   S    
C4    C56   A    
C27   H40   S    
C41   C43   A    
C13   C87   A    
C43   N4    A    
C2    C6    A    
C51   I1    S    
C38   H5    S    
C76   C83   A    
C14   C45   A    
Cu3   N3    S    
Cu1   O2    S    
C79   H30   S    
C5    H9    S    
C71   C75   A    
Cu3   O13   S    
C53   H42   S    
C28   H41   S    
C30   C32   A    
C13   I6    S    
C15   H19   S    
C75   H27   S    
C47   C49   A    
C29   H3    S    
C2    C59   A    
C18   C62   A    
C39   H6    S    
C34   O11   A    
C66   C73   A    
C4    C61   A    
C3    C45   A    
C59   H15   S    
C32   H8    S    
C58   H14   S    
C35   O2    A    
C22   C84   A    
C20   C64   A    
C1    O12   A    
C7    C11   A    
C5    C9    A    
Cu2   O3    S    
C2    C78   A    
C20   H23   S    
C19   H12   S    
C36   O3    A    
Cu1   O9    S    
C74   H35   S    
C73   H33   S    
C33   C63   S    
C46   C54   A    
Cu4   O7    S    
C72   C76   A    
C75   C82   A    
C16   C67   A    
Cu2   N2    S    
C68   H24   S    
C18   C60   A    
C54   N2    A    
C74   C79   A    
C72   H32   S    
C52   I2    S    
C25   C86   A    
Cu2   O10   S    
Cu2   O4    S    
C37   O8    A    
C20   C58   A    
C37   C64   S    
C16   H20   S    
Cu1   O16   S    
Cu3   O5    S    
C77   C80   A    
C57   H37   S    
C14   H18   S    
C28   C48   A    
C73   C77   A    
C66   H22   S    
C21   C65   A    
C36   C65   S    
C67   C80   A    
C58   C88   A    
C6    C10   A    
Cu3   O6    S    
C70   C72   A    
C33   O16   A    
C36   O7    A    
C10   I4    S    
C49   H38   S    
C25   C34   S    
C17   C65   A    
C27   C47   A    
C31   C38   A    
C15   C56   A    
C21   H34   S    
Cu3   O12   S    
C29   C31   A    
C82   C86   A    
C34   O15   A    
C38   C40   A    
C78   C81   A    
C70   H26   S    
Cu1   N1    S    
C48   C50   A    
C17   C78   A    
Cu2   Cu4   S    
C35   C62   S    
C53   N1    A    
C6    H10   S    
C37   O4    A    
C79   C81   A    
Cu4   N4    S    
C54   H2    S    
C77   H29   S    
C50   H39   S    
C24   C68   A    
C9    C84   A    
C46   C48   A    
C40   C44   A    
C25   C69   A    
C55   H36   S    
C1    C24   S    
C23   O10   A    
C42   N3    A    
C18   H1    S    
C15   C63   A    
C33   O5    A    
C16   C64   A    
Cu2   O11   S    
C81   C85   A    
C29   N3    A    
