data_mof_unit_23210.cif
_audit_creation_date              2013-03-05T16:36:37-0500
_audit_creation_method            fapswitch 2.2
_symmetry_space_group_name_H-M    P1
_symmetry_Int_Tables_number       1
_space_group_crystal_system       triclinic
_cell_length_a                    17.804998
_cell_length_b                    9.096494
_cell_length_c                    7.770466
_cell_angle_alpha                 89.998855
_cell_angle_beta                  90.141886
_cell_angle_gamma                 90.008842
_cell_volume                      1258.52455723

loop_
_atom_site_label
_atom_site_type_symbol
_atom_site_description
_atom_site_fract_x
_atom_site_fract_y
_atom_site_fract_z
_atom_type_partial_charge
O1    O     O_R   0.500000 0.288390 0.642760 -0.584149
O2    O     O_R   0.500000 0.711610 0.357240 -0.576140
O3    O     O_R   0.500000 0.711610 0.642760 -0.574008
O4    O     O_R   0.500000 0.288390 0.357240 -0.575260
C1    C     C_R   0.500022 0.219958 0.500003 0.836734
C2    C     C_R   0.500012 0.780042 0.499999 0.850143
O5    O     O_R   0.391250 0.500000 0.642840 -0.560621
O6    O     O_R   0.608750 0.500000 0.357160 -0.550624
O7    O     O_R   0.608750 0.500000 0.642840 -0.604778
O8    O     O_R   0.391250 0.500000 0.357160 -0.562740
C3    C     C_1   0.500027 0.065354 0.500005 -0.174240
C4    C     C_1   0.500023 0.934649 0.500001 -0.173491
C5    C     C_R   0.355149 0.499694 0.499748 0.870086
C6    C     C_R   0.644920 0.499638 0.500326 0.832600
Cu1   Cu    Cu3+1 0.500000 0.500000 0.669080 1.003568
Cu2   Cu    Cu3+1 0.500000 0.500000 0.330920 1.020622
C7    C     C_R   0.848179 0.430236 0.630498 0.169353
C8    C     C_R   0.153661 0.430822 0.359706 0.123263
C9    C     C_R   0.152923 0.566778 0.633251 0.127656
C10   C     C_R   0.845915 0.568229 0.358733 0.129024
C11   C     C_R   0.769192 0.429030 0.633082 0.083423
C12   C     C_R   0.232927 0.428827 0.363294 0.087962
C13   C     C_R   0.232218 0.568726 0.632976 0.086661
C14   C     C_R   0.766748 0.570645 0.364524 0.109703
C15   C     C_R   0.728109 0.500215 0.500305 -0.163068
C16   C     C_R   0.272075 0.498982 0.498811 -0.124697
C17   C     C_R   0.886005 0.499017 0.493129 0.035041
C18   C     C_R   0.114528 0.498920 0.495582 0.049661
C19   C     C_1   0.966611 0.499128 0.492714 -0.012327
C20   C     C_1   0.033855 0.499039 0.493802 -0.010707
N1    N     N_1   0.500000 0.500000 0.076820 -0.042047
N2    N     N_1   0.500000 0.500000 0.923180 -0.045884
C21   C     C_3   0.893028 0.358099 0.773881 -0.817085
H1    H     H_    0.857697 0.310269 0.876892 0.258836
H2    H     H_    0.928028 0.268285 0.719906 0.226603
H3    H     H_    0.930361 0.440763 0.835311 0.216099
C22   C     C_3   0.109666 0.360490 0.213670 -0.868162
H4    H     H_    0.145013 0.312033 0.111490 0.228773
H5    H     H_    0.073582 0.271370 0.265476 0.238028
H6    H     H_    0.073367 0.444477 0.151503 0.231693
C23   C     C_3   0.108132 0.636921 0.777588 -0.871039
H7    H     H_    0.071591 0.552773 0.838290 0.231591
H8    H     H_    0.142914 0.685459 0.881135 0.228570
H9    H     H_    0.072255 0.725946 0.724460 0.237886
C24   C     C_3   0.885927 0.640556 0.208491 -0.872485
H10   H     H_    0.947838 0.629414 0.212960 0.236734
H11   H     H_    0.867090 0.589868 0.085856 0.234714
H12   H     H_    0.873090 0.759912 0.206001 0.231869
N3    N     N_3   0.731813 0.350829 0.768753 -0.589092
H13   H     H_    0.703723 0.425764 0.847536 0.245843
H14   H     H_    0.693766 0.275904 0.715474 0.227807
N4    N     N_3   0.274661 0.352326 0.233148 -0.566136
H15   H     H_    0.263588 0.400291 0.113548 0.228401
H16   H     H_    0.258186 0.242013 0.231736 0.223146
N5    N     N_3   0.273265 0.644767 0.765101 -0.566498
H17   H     H_    0.261418 0.596567 0.884056 0.228238
H18   H     H_    0.256892 0.755129 0.766173 0.223165
N6    N     N_3   0.724761 0.647380 0.234258 -0.560664
H19   H     H_    0.741212 0.757719 0.232884 0.221966
H20   H     H_    0.736098 0.600240 0.114386 0.230478

loop_
_geom_bond_atom_site_label_1
_geom_bond_atom_site_label_2
_geom_bond_distance
_ccdc_geom_bond_type
O4    Cu2   1.935740 S    
C9    C13   1.411959 A    
O7    C6    1.282434 A    
C13   N5    1.436245 S    
C19   C20   1.197287 T    
O1    Cu1   1.935749 S    
C10   C17   1.411709 A    
C17   C19   1.435201 S    
O2    Cu2   1.935748 S    
C23   H7    1.110431 S    
N1    N2    1.193855 T    
N5    H17   1.045014 S    
O3    C2    1.272029 A    
O5    Cu1   1.946497 S    
C21   H1    1.108211 S    
O7    Cu1   1.947501 S    
O3    Cu1   1.935740 S    
Cu1   N2    1.974475 S    
O6    Cu2   1.946497 S    
O8    Cu2   1.947501 S    
C24   H10   1.107444 S    
C14   C15   1.414347 A    
Cu2   N1    1.974475 S    
C9    C18   1.410324 A    
C23   H8    1.106050 S    
O2    C2    1.272041 A    
C7    C21   1.518324 S    
O1    C1    1.272024 A    
C11   N3    1.436540 S    
C21   H2    1.110487 S    
C22   H4    1.106055 S    
N4    H16   1.045465 S    
C1    C3    1.406356 S    
C22   H6    1.110554 S    
N5    H18   1.045462 S    
C6    C15   1.481187 S    
C2    C4    1.406376 S    
C10   C14   1.410569 A    
C23   H9    1.110447 S    
C5    C16   1.479153 S    
C13   C16   1.413071 A    
N6    H20   1.045570 S    
Cu1   Cu2   2.627662 S    
C7    C17   1.409911 A    
C14   N6    1.437735 S    
C9    C23   1.518444 S    
O5    C5    1.282940 A    
C21   H3    1.110594 S    
C8    C18   1.409883 A    
N4    H15   1.045002 S    
C22   H5    1.110466 S    
N3    H13   1.044591 S    
C12   C16   1.413580 A    
C24   H11   1.109756 S    
C11   C15   1.419588 A    
O4    C1    1.272037 A    
O6    C6    1.284054 A    
C24   H12   1.109710 S    
C12   N4    1.436335 S    
N6    H19   1.045585 S    
C8    C12   1.411660 A    
C8    C22   1.518580 S    
C7    C11   1.406599 A    
C10   C24   1.518977 S    
C3    C4    1.188960 T    
C18   C20   1.436408 S    
N3    H14   1.045614 S    
O8    C5    1.282306 A    
