data_mof_unit_34727.cif
_audit_creation_date              2012-10-26T19:18:47-0400
_audit_creation_method            fapswitch 2.2
_symmetry_space_group_name_H-M    P1
_symmetry_Int_Tables_number       1
_space_group_crystal_system       triclinic
_cell_length_a                    9.684413
_cell_length_b                    10.920792
_cell_length_c                    15.630733
_cell_angle_alpha                 90.18029
_cell_angle_beta                  73.555421
_cell_angle_gamma                 90.54774
_cell_volume                      1585.43363908

loop_
_atom_site_label
_atom_site_type_symbol
_atom_type_description
_atom_site_fract_x
_atom_site_fract_y
_atom_site_fract_z
_atom_type_partial_charge
C1    C     C_R   0.998503 0.265223 0.501416 0.560694
C2    C     C_R   0.221962 0.502770 0.041734 0.020922
C3    C     C_R   0.325617 0.516429 0.089162 0.058080
C4    C     C_R   0.916508 0.502095 0.671753 0.537866
C5    C     C_R   0.075586 0.493255 0.087980 -0.154334
C6    C     C_R   0.031442 0.496295 0.180815 -0.167469
C7    C     C_R   0.282342 0.496301 0.182156 0.117408
C8    C     C_2   0.879416 0.931384 0.521149 -0.154520
C9    C     C_2   0.999397 0.866587 0.511843 -0.145581
C10   C     C_2   0.876432 0.065095 0.532922 0.112381
C11   C     C_2   0.997383 0.132654 0.500029 -0.075299
C12   C     C_R   0.666870 0.534723 0.902870 0.033724
C13   C     C_2   0.396898 0.432251 0.553400 -0.021730
C14   C     C_2   0.552260 0.433662 0.554334 -0.013631
C15   C     C_R   0.999664 0.734743 0.502485 0.562565
C16   C     C_R   0.084334 0.497517 0.327783 0.548836
C17   C     C_R   0.869108 0.518540 0.768587 -0.003418
C18   C     C_R   0.133377 0.496621 0.229213 0.007043
C19   C     C_R   0.910099 0.596309 0.904254 -0.145066
C20   C     C_R   0.962720 0.565509 0.814513 -0.141714
C21   C     C_R   0.723496 0.500097 0.813402 -0.132962
C22   C     C_3   0.726640 0.152388 0.669355 -0.288275
C23   C     C_R   0.763499 0.580697 0.948877 0.048617
C24   C     C_3   0.390581 0.324560 0.237396 -0.275710
C25   C     C_R   0.517360 0.524755 0.947930 0.022290
C26   C     C_R   0.470986 0.542823 0.041493 0.048915
C27   C     C_R   0.568410 0.594886 0.083950 -0.112542
C28   C     C_R   0.712247 0.613325 0.038348 -0.145857
C29   C     C_R   0.411971 0.502738 0.902636 -0.144087
C30   C     C_R   0.266330 0.496436 0.948806 -0.141106
Cu1   Cu    Cu3+1 0.138640 0.500020 0.499980 0.916917
Cu2   Cu    Cu3+1 0.861360 0.499980 0.500020 0.940988
H1    H     H_    0.783755 0.652900 0.073456 0.104602
H2    H     H_    0.917205 0.493541 0.214698 0.136581
H3    H     H_    0.188466 0.483335 0.911590 0.110241
H4    H     H_    0.983483 0.634877 0.938337 0.106250
H5    H     H_    0.075355 0.581963 0.780510 0.128247
H6    H     H_    0.656253 0.457840 0.777030 0.109707
H7    H     H_    0.533320 0.627624 0.151845 0.123491
H8    H     H_    0.437952 0.496897 0.830967 0.102807
H9    H     H_    0.653848 0.073643 0.569589 0.239461
H10   H     H_    0.622278 0.199036 0.697761 0.119282
H11   H     H_    0.814236 0.215588 0.674882 0.157132
H12   H     H_    0.994966 0.484477 0.052429 0.119634
H13   H     H_    0.728544 0.068273 0.708823 0.137744
H14   H     H_    0.408278 0.509813 0.272164 0.264370
H15   H     H_    0.484116 0.301989 0.262060 0.139471
H16   H     H_    0.401933 0.274929 0.173639 0.150229
H17   H     H_    0.290453 0.293619 0.287488 0.159455
H18   H     H_    0.778544 0.885094 0.523644 0.145342
H19   H     H_    0.098877 0.909080 0.516043 0.097573
H20   H     H_    0.099615 0.090904 0.466857 0.056639
H21   H     H_    0.323350 0.371859 0.600204 0.134537
H22   H     H_    0.414048 0.557564 0.457257 0.198929
H23   H     H_    0.580836 0.376043 0.602928 0.143461
H24   H     H_    0.627762 0.552186 0.453745 0.199412
N1    N     N_2   0.346430 0.498660 0.500980 -0.348973
N2    N     N_2   0.652550 0.498630 0.501000 -0.346362
N3    N     N_2   0.742387 0.120962 0.577072 -0.484467
N4    N     N_2   0.387827 0.455203 0.223223 -0.525122
O1    O     O_R   0.117050 0.321960 0.499980 -0.509527
O2    O     O_R   0.882890 0.321920 0.500020 -0.449637
O3    O     O_R   0.052910 0.500040 0.629810 -0.500068
O4    O     O_R   0.818750 0.499990 0.629840 -0.503479
O5    O     O_R   0.117110 0.678080 0.499980 -0.494858
O6    O     O_R   0.882950 0.678040 0.500020 -0.492824
O7    O     O_R   0.181250 0.500010 0.370160 -0.499225
O8    O     O_R   0.947090 0.499960 0.370190 -0.504003

loop_
_geom_bond_atom_site_label_1
_geom_bond_atom_site_label_2
_ccdc_geom_bond_type
C19   C23   A    
C8    C10   S    
C29   C30   A    
C16   O8    A    
Cu1   O3    S    
C4    O4    A    
C24   H16   S    
C13   H21   S    
Cu1   Cu2   S    
C1    C11   S    
Cu2   N2    S    
C12   C25   A    
Cu2   O8    S    
C7    C18   A    
C1    O2    A    
Cu1   N1    S    
C19   C20   A    
C10   N3    S    
C9    C15   S    
Cu2   O2    S    
C16   O7    A    
C23   C28   A    
Cu1   O7    S    
C20   H5    S    
C15   O6    A    
C12   C23   A    
H9    N3    S    
C26   C27   A    
C22   H10   S    
C30   H3    S    
C14   N2    D    
C4    C17   S    
C29   H8    S    
C4    O3    A    
C5    H12   S    
H24   N2    S    
C28   H1    S    
C14   H23   S    
C3    C7    A    
C19   H4    S    
C3    C26   A    
C25   C29   A    
C5    C6    A    
C6    C18   A    
C2    C5    A    
C13   N1    D    
C2    C30   A    
C11   H20   S    
C15   O5    A    
C8    H18   S    
C7    N4    S    
C22   N3    S    
C17   C20   A    
Cu2   O4    S    
Cu2   O6    S    
C22   H13   S    
C10   C11   D    
C27   H7    S    
C24   H17   S    
Cu1   O5    S    
Cu1   O1    S    
C2    C3    A    
C24   N4    S    
H14   N4    S    
C25   C26   A    
C13   C14   S    
C24   H15   S    
C12   C21   A    
H22   N1    S    
C16   C18   S    
C17   C21   A    
C21   H6    S    
C6    H2    S    
C1    O1    A    
C8    C9    D    
C27   C28   A    
C22   H11   S    
C9    H19   S    
