data_mof_unit_20705.cif
_audit_creation_date              2012-12-10T18:58:39-0500
_audit_creation_method            fapswitch 2.2
_symmetry_space_group_name_H-M    P1
_symmetry_Int_Tables_number       1
_space_group_crystal_system       triclinic
_cell_length_a                    10.74507
_cell_length_b                    9.910089
_cell_length_c                    17.50307
_cell_angle_alpha                 89.383628
_cell_angle_beta                  88.404935
_cell_angle_gamma                 91.783098
_cell_volume                      1862.05705248

loop_
_atom_site_label
_atom_site_type_symbol
_atom_type_description
_atom_site_fract_x
_atom_site_fract_y
_atom_site_fract_z
_atom_type_partial_charge
C1    C     C_R   0.260226 0.497615 0.496706 0.988174
C2    C     C_R   0.739886 0.501989 0.502534 1.001019
C3    C     C_1   0.463165 0.477684 0.966361 0.156749
C4    C     C_1   0.463196 0.480821 0.034075 0.164687
C5    C     C_R   0.057723 0.377850 0.517869 0.350077
C6    C     C_R   0.942039 0.615993 0.473255 0.352474
C7    C     C_R   0.930662 0.389621 0.531545 0.365281
C8    C     C_R   0.069115 0.607586 0.463275 0.380371
C9    C     C_R   0.497766 0.500104 0.353910 1.004382
C10   C     C_R   0.498924 0.499177 0.645930 1.021269
C11   C     C_R   0.872979 0.504740 0.504076 -0.423443
C12   C     C_R   0.127591 0.492183 0.490257 -0.430275
C13   C     C_R   0.373813 0.536937 0.845100 0.390619
C14   C     C_R   0.389144 0.404550 0.160094 0.394168
C15   C     C_R   0.558050 0.574741 0.146236 0.386477
C16   C     C_R   0.574563 0.427521 0.848360 0.398762
C17   C     C_R   0.381503 0.539378 0.765310 0.357454
C18   C     C_R   0.392327 0.415937 0.240026 0.358754
C19   C     C_R   0.572336 0.573095 0.225107 0.354392
C20   C     C_R   0.588012 0.442342 0.769175 0.343751
C21   C     C_R   0.490331 0.495806 0.728044 -0.383494
C22   C     C_R   0.486741 0.497881 0.271779 -0.395548
C23   C     C_R   0.428383 0.068317 0.552003 0.295503
C24   C     C_R   0.571303 0.932009 0.447950 0.292367
C25   C     C_R   0.571264 0.075288 0.447773 0.275767
C26   C     C_R   0.426552 0.924938 0.551041 0.311725
C27   C     C_R   0.469056 0.478092 0.885713 -0.272686
C28   C     C_R   0.468883 0.487799 0.114413 -0.271907
N1    N     N_R   0.500000 0.857200 0.500000 -0.196376
N2    N     N_R   0.500000 0.142800 0.500000 -0.187624
O1    O     O_R   0.316770 0.614620 0.500000 -0.538142
O2    O     O_R   0.683230 0.385380 0.500000 -0.573718
O3    O     O_R   0.683230 0.614620 0.500000 -0.577823
O4    O     O_R   0.316770 0.385380 0.500000 -0.575295
O5    O     O_R   0.500010 0.614710 0.389120 -0.569796
O6    O     O_R   0.499990 0.385290 0.610880 -0.561215
O7    O     O_R   0.499990 0.614710 0.610880 -0.588132
O8    O     O_R   0.500010 0.385290 0.389120 -0.551638
Zn1   Zn    Zn3+2 0.500000 0.653120 0.500000 1.068763
Zn2   Zn    Zn3+2 0.500000 0.346880 0.500000 1.066367
O9    O     O_3   0.269879 0.584730 0.883168 -0.574679
C29   C     C_3   0.287519 0.725017 0.892935 -0.217480
H1    H     H_    0.294739 0.779519 0.836977 0.211451
H2    H     H_    0.371125 0.748518 0.927167 0.123057
H3    H     H_    0.205404 0.763160 0.924797 0.185818
O10   O     O_3   0.306017 0.315601 0.126404 -0.587563
C30   C     C_3   0.359604 0.187572 0.123550 -0.270748
H4    H     H_    0.448235 0.190810 0.088947 0.146588
H5    H     H_    0.293991 0.116458 0.095514 0.180970
H6    H     H_    0.375505 0.147039 0.181908 0.198562
O11   O     O_3   0.639543 0.651568 0.099769 -0.562878
C31   C     C_3   0.591695 0.781797 0.092408 -0.237477
H7    H     H_    0.586090 0.833266 0.148570 0.201118
H8    H     H_    0.498755 0.778276 0.065750 0.120701
H9    H     H_    0.655799 0.843347 0.054321 0.182689
O12   O     O_3   0.669707 0.374340 0.889699 -0.567601
C32   C     C_3   0.648873 0.233429 0.895669 -0.218264
H10   H     H_    0.650995 0.185526 0.838419 0.190206
H11   H     H_    0.559221 0.207575 0.926645 0.129779
H12   H     H_    0.724650 0.190299 0.929077 0.184656
O13   O     O_3   0.286050 0.592233 0.724124 -0.548582
C33   C     C_3   0.196985 0.488348 0.710789 -0.146133
H13   H     H_    0.155127 0.446659 0.765271 0.180270
H14   H     H_    0.237854 0.406440 0.676239 0.194501
H15   H     H_    0.120785 0.531008 0.677518 0.167206
O14   O     O_3   0.311823 0.340177 0.288447 -0.591552
C34   C     C_3   0.185871 0.363221 0.272491 -0.262098
H16   H     H_    0.147770 0.279701 0.237539 0.226687
H17   H     H_    0.170790 0.461943 0.243580 0.136117
H18   H     H_    0.131328 0.362782 0.327229 0.142245
O15   O     O_3   0.668780 0.647575 0.256193 -0.519290
C35   C     C_3   0.771660 0.563850 0.263531 -0.141817
H19   H     H_    0.804708 0.526730 0.206931 0.158368
H20   H     H_    0.749716 0.477363 0.303240 0.140120
H21   H     H_    0.849217 0.623998 0.288132 0.196939
O16   O     O_3   0.694884 0.399892 0.731974 -0.551703
C36   C     C_3   0.781809 0.509592 0.727670 -0.180597
H22   H     H_    0.749105 0.591144 0.689661 0.113189
H23   H     H_    0.870817 0.474100 0.702826 0.204132
H24   H     H_    0.802085 0.550243 0.785237 0.173109
Cl1   Cl    Cl    0.338305 0.150193 0.621654 -0.515738
Cl2   Cl    Cl    0.661890 0.850990 0.378812 -0.433474
Cl3   Cl    Cl    0.664577 0.166116 0.379397 -0.581122
Cl4   Cl    Cl    0.324940 0.834483 0.614596 -0.472763
O17   O     O_3   0.113861 0.260414 0.539697 -0.535755
C37   C     C_3   0.123891 0.175345 0.475355 -0.193872
H25   H     H_    0.147507 0.072921 0.495349 0.206392
H26   H     H_    0.199351 0.211292 0.434918 0.202375
H27   H     H_    0.035943 0.165178 0.443638 0.112521
O18   O     O_3   0.885747 0.732742 0.450798 -0.518057
C38   C     C_3   0.894118 0.826500 0.510771 -0.129764
H28   H     H_    0.850512 0.785347 0.564974 0.119298
H29   H     H_    0.842641 0.916970 0.494642 0.163898
H30   H     H_    0.992251 0.859734 0.520141 0.177476
O19   O     O_3   0.867034 0.307034 0.585321 -0.558716
C39   C     C_3   0.848775 0.174680 0.558400 -0.127671
H31   H     H_    0.838946 0.170133 0.495478 0.159890
H32   H     H_    0.760893 0.131763 0.584690 0.164336
H33   H     H_    0.924933 0.110267 0.577286 0.176080
O20   O     O_3   0.135677 0.718552 0.432905 -0.552567
C40   C     C_3   0.163238 0.695132 0.355107 -0.225733
H34   H     H_    0.232230 0.614660 0.348556 0.140725
H35   H     H_    0.205943 0.788879 0.329325 0.188890
H36   H     H_    0.077758 0.669656 0.323018 0.141102

loop_
_geom_bond_atom_site_label_1
_geom_bond_atom_site_label_2
_ccdc_geom_bond_type
C40   H34   S    
O9    C29   S    
C14   C18   A    
C19   O15   S    
O19   C39   S    
C13   O9    S    
C32   H10   S    
C30   H5    S    
C36   H22   S    
C15   C19   A    
O3    Zn1   S    
C10   O7    A    
O4    Zn2   S    
C37   H26   S    
C9    C22   S    
C32   H11   S    
C39   H33   S    
C1    O1    A    
O12   C32   S    
C20   O16   S    
C2    O2    A    
C23   C26   A    
C24   Cl2   S    
C24   N1    A    
O20   C40   S    
C33   H14   S    
C17   O13   S    
C39   H32   S    
C15   O11   S    
C31   H9    S    
C16   C20   A    
C5    O17   S    
C16   C27   A    
O14   C34   S    
C40   H35   S    
C1    C12   S    
C29   H2    S    
C35   H21   S    
C2    C11   S    
C4    C28   S    
C31   H8    S    
C1    O4    A    
C7    C11   A    
C30   H6    S    
C36   H23   S    
C10   C21   S    
C34   H16   S    
C23   N2    A    
O6    Zn2   S    
C19   C22   A    
C24   C25   A    
C5    C12   A    
C14   O10   S    
C38   H28   S    
C5    C7    A    
C37   H25   S    
C32   H12   S    
C6    C8    A    
O17   C37   S    
C17   C21   A    
O11   C31   S    
C34   H17   S    
C29   H3    S    
O5    Zn1   S    
C16   O12   S    
C33   H13   S    
C38   H29   S    
C30   H4    S    
C8    C12   A    
C39   H31   S    
N1    Zn1   S    
N2    Zn2   S    
O16   C36   S    
C2    O3    A    
C35   H20   S    
C40   H36   S    
C29   H1    S    
O18   C38   S    
C3    C4    T    
C6    C11   A    
C31   H7    S    
C25   Cl3   S    
C36   H24   S    
C25   N2    A    
O10   C30   S    
C26   Cl4   S    
C23   Cl1   S    
C33   H15   S    
C18   C22   A    
C35   H19   S    
C37   H27   S    
C18   O14   S    
C7    O19   S    
C13   C17   A    
C34   H18   S    
C3    C27   S    
C8    O20   S    
O15   C35   S    
O7    Zn1   S    
C6    O18   S    
C38   H30   S    
O8    Zn2   S    
C15   C28   A    
C9    O8    A    
O1    Zn1   S    
O2    Zn2   S    
O13   C33   S    
C20   C21   A    
C26   N1    A    
C9    O5    A    
C13   C27   A    
C10   O6    A    
C14   C28   A    
