data_mof_unit_48985.cif
_audit_creation_date              2012-12-10T20:49:08-0500
_audit_creation_method            fapswitch 2.2
_symmetry_space_group_name_H-M    P1
_symmetry_Int_Tables_number       1
_space_group_crystal_system       triclinic
_cell_length_a                    8.925019
_cell_length_b                    8.12385
_cell_length_c                    10.542632
_cell_angle_alpha                 89.704619
_cell_angle_beta                  90.087031
_cell_angle_gamma                 90.090786
_cell_volume                      764.386978987

loop_
_atom_site_label
_atom_site_type_symbol
_atom_type_description
_atom_site_fract_x
_atom_site_fract_y
_atom_site_fract_z
_atom_type_partial_charge
C1    C     C_R   0.218074 0.499918 0.499898 0.938665
C2    C     C_3   0.632822 0.447858 0.041506 0.267265
C3    C     C_3   0.502979 0.498043 0.877364 -0.071494
C4    C     C_3   0.501173 0.501282 0.122655 -0.067426
C5    C     C_1   0.065218 0.499875 0.499673 -0.193300
C6    C     C_1   0.934770 0.500102 0.499587 -0.195241
C7    C     C_3   0.115197 0.638710 0.999806 -0.786375
C8    C     C_3   0.792075 0.229825 0.131410 -0.772426
C9    C     C_R   0.781922 0.500078 0.499693 0.933653
C10   C     C_R   0.500675 0.500434 0.256905 0.878848
C11   C     C_R   0.501140 0.499466 0.743091 0.889330
C12   C     C_3   0.477229 0.655790 0.039985 -0.227881
C13   C     C_3   0.527266 0.343362 0.959511 -0.183297
C14   C     C_3   0.611993 0.600969 0.957429 -0.259872
C15   C     C_3   0.392256 0.397748 0.042364 -0.211646
C16   C     C_3   0.371544 0.551075 0.958691 0.263107
H1    H     H_    0.242054 0.700609 0.841471 0.233063
H2    H     H_    0.548468 0.217745 0.922740 0.154556
H3    H     H_    0.702740 0.680472 0.919129 0.151611
H4    H     H_    0.302208 0.317346 0.080732 0.147925
H5    H     H_    0.009085 0.671524 0.950792 0.241634
H6    H     H_    0.149229 0.742609 0.061711 0.233273
H7    H     H_    0.094528 0.527376 0.058808 0.250812
H8    H     H_    0.822958 0.482799 0.153002 0.211489
H9    H     H_    0.908839 0.206746 0.163284 0.234411
H10   H     H_    0.767314 0.145180 0.051739 0.240452
H11   H     H_    0.715200 0.203633 0.211559 0.260373
H12   H     H_    0.454414 0.781786 0.075338 0.160916
N1    N     N_1   0.500000 0.073640 0.500000 -0.040597
N2    N     N_1   0.500000 0.926360 0.500000 -0.038945
N3    N     N_2   0.230071 0.606592 0.906733 -0.306060
N4    N     N_2   0.778054 0.399099 0.090294 -0.312126
O1    O     O_R   0.285350 0.636850 0.500000 -0.618577
O2    O     O_R   0.714650 0.363150 0.500000 -0.616652
O3    O     O_R   0.714650 0.636850 0.500000 -0.617076
O4    O     O_R   0.285350 0.363150 0.500000 -0.613992
O5    O     O_R   0.499970 0.636850 0.313950 -0.627733
O6    O     O_R   0.500030 0.363150 0.686050 -0.621293
O7    O     O_R   0.500030 0.636850 0.686050 -0.629988
O8    O     O_R   0.499970 0.363150 0.313950 -0.631269
Zn1   Zn    Zn3+2 0.500000 0.682780 0.500000 0.975092
Zn2   Zn    Zn3+2 0.500000 0.317220 0.500000 0.976792

loop_
_geom_bond_atom_site_label_1
_geom_bond_atom_site_label_2
_ccdc_geom_bond_type
C11   O6    A    
C2    C4    S    
H8    N4    S    
N2    Zn1   S    
O3    Zn1   S    
N1    N2    T    
N1    Zn2   S    
C4    C12   S    
C7    H6    S    
C8    H10   S    
O4    Zn2   S    
C3    C13   S    
O1    Zn1   S    
C6    C9    S    
O8    Zn2   S    
C1    O1    A    
O7    Zn1   S    
C16   N3    S    
C11   O7    A    
C8    H9    S    
C9    O2    A    
C3    C14   S    
C13   H2    S    
C12   H12   S    
C10   O5    A    
C1    C5    S    
C10   O8    A    
H1    N3    S    
C12   C14   S    
O6    Zn2   S    
C13   C15   S    
C4    C15   S    
O5    Zn1   S    
C5    C6    T    
C2    C14   S    
C7    H7    S    
C3    C11   S    
C4    C10   S    
C15   C16   S    
C8    N4    S    
C7    N3    S    
C2    N4    S    
C9    O3    A    
C2    C13   S    
C8    H11   S    
C7    H5    S    
C14   H3    S    
C3    C16   S    
C12   C16   S    
C1    O4    A    
C15   H4    S    
O2    Zn2   S    
