data_mof_unit_15834.cif
_audit_creation_date              2012-12-11T15:25:46-0500
_audit_creation_method            fapswitch 2.2
_symmetry_space_group_name_H-M    P1
_symmetry_Int_Tables_number       1
_space_group_crystal_system       triclinic
_cell_length_a                    24.34692
_cell_length_b                    17.067022
_cell_length_c                    15.680952
_cell_angle_alpha                 90.000151
_cell_angle_beta                  51.396612
_cell_angle_gamma                 89.999982
_cell_volume                      5092.06641897

loop_
_atom_site_label
_atom_site_type_symbol
_atom_type_description
_atom_site_fract_x
_atom_site_fract_y
_atom_site_fract_z
_atom_type_partial_charge
C1    C     C_R   0.345737 0.134869 0.771962 0.497749
C2    C     C_2   0.335453 0.774391 0.906258 0.461592
C3    C     C_3   0.342270 0.659919 0.659257 -0.262617
C4    C     C_3   0.646818 0.534112 0.702356 -0.149785
C5    C     C_3   0.157733 0.159926 0.340745 -0.262699
C6    C     C_3   0.353228 0.534167 0.297564 -0.149673
C7    C     C_3   0.842263 0.159935 0.659264 -0.262653
C8    C     C_3   0.522329 0.678117 0.698102 -0.144292
C9    C     C_3   0.301941 0.029908 0.309246 -0.165834
C10   C     C_3   0.477680 0.678128 0.301931 -0.144334
C11   C     C_3   0.698067 0.029896 0.690728 -0.165791
C12   C     C_3   0.022331 0.178114 0.698107 -0.144275
C13   C     C_2   0.327064 0.201801 0.930789 0.506952
C14   C     C_3   0.801929 0.529899 0.309268 -0.165789
C15   C     C_3   0.977670 0.178112 0.301901 -0.144267
C16   C     C_3   0.198072 0.529889 0.690697 -0.165762
C17   C     C_2   0.664540 0.774380 0.093757 0.461611
C18   C     C_2   0.172938 0.701800 0.069209 0.506953
C19   C     C_2   0.835452 0.274392 0.906259 0.461593
C20   C     C_2   0.827059 0.701790 0.930804 0.506946
C21   C     C_2   0.164547 0.274390 0.093743 0.461597
C22   C     C_2   0.740658 0.180768 0.998910 -0.198274
C23   C     C_2   0.289421 0.730353 0.907694 -0.233220
C24   C     C_2   0.259343 0.180768 0.001089 -0.198278
C25   C     C_R   0.661308 0.877520 0.211404 0.494661
C26   C     C_2   0.710575 0.730345 0.092317 -0.233244
C27   C     C_2   0.240658 0.680767 0.998908 -0.198267
C28   C     C_2   0.789421 0.230353 0.907695 -0.233220
C29   C     C_2   0.759338 0.680758 0.001103 -0.198288
C30   C     C_2   0.210580 0.230353 0.092304 -0.233221
C31   C     C_R   0.616386 0.101964 0.590498 -0.115104
C32   C     C_R   0.408760 0.857240 0.408188 -0.136563
C33   C     C_R   0.383615 0.101963 0.409500 -0.115080
C34   C     C_R   0.591242 0.857241 0.591812 -0.136528
C35   C     C_R   0.116386 0.601969 0.590496 -0.115141
C36   C     C_R   0.654263 0.134868 0.228037 0.497747
C37   C     C_R   0.908758 0.357241 0.408188 -0.136518
C38   C     C_R   0.883614 0.601965 0.409502 -0.115091
C39   C     C_R   0.091242 0.357241 0.591812 -0.136522
C40   C     C_R   0.689412 0.099209 0.410013 -0.118760
C41   C     C_R   0.337684 0.854746 0.589445 -0.179144
C42   C     C_R   0.310589 0.099210 0.589986 -0.118779
C43   C     C_R   0.662321 0.854749 0.410555 -0.179164
C44   C     C_R   0.189412 0.599209 0.410011 -0.118711
C45   C     C_R   0.837679 0.354749 0.589445 -0.179162
C46   C     C_R   0.810589 0.599211 0.589987 -0.118775
C47   C     C_R   0.338691 0.877524 0.788600 0.494669
C48   C     C_R   0.162321 0.354750 0.410555 -0.179138
C49   C     C_R   0.565976 0.128108 0.220264 -0.149150
C50   C     C_R   0.431261 0.874214 0.784283 -0.192909
C51   C     C_R   0.434025 0.128109 0.779735 -0.149146
C52   C     C_R   0.568737 0.874211 0.215720 -0.192906
C53   C     C_R   0.065976 0.628108 0.220264 -0.149145
C54   C     C_R   0.931261 0.374214 0.784283 -0.192909
C55   C     C_R   0.934022 0.628104 0.779742 -0.149137
C56   C     C_R   0.068739 0.374214 0.215717 -0.192902
C57   C     C_R   0.370461 0.164281 0.825035 -0.170960
C58   C     C_R   0.845733 0.634863 0.771971 0.497746
C59   C     C_R   0.633202 0.840252 0.168547 -0.112044
C60   C     C_R   0.629540 0.164281 0.174963 -0.170961
C61   C     C_R   0.366795 0.840258 0.831460 -0.112044
C62   C     C_R   0.870455 0.664273 0.825048 -0.170960
C63   C     C_R   0.133205 0.340257 0.168541 -0.112052
C64   C     C_R   0.129541 0.664280 0.174962 -0.170959
C65   C     C_R   0.866795 0.340257 0.831459 -0.112059
C66   C     C_R   0.686383 0.113314 0.499755 0.179336
C67   C     C_R   0.361417 0.810423 0.497729 0.196349
C68   C     C_R   0.313618 0.113314 0.500243 0.179343
C69   C     C_R   0.161309 0.377522 0.211402 0.494683
C70   C     C_R   0.638589 0.810427 0.502271 0.196383
C71   C     C_R   0.186383 0.613321 0.499750 0.179361
C72   C     C_R   0.861411 0.310426 0.497729 0.196385
C73   C     C_R   0.813618 0.613316 0.500246 0.179351
C74   C     C_R   0.138590 0.310427 0.502271 0.196380
C75   C     C_R   0.185006 0.145740 0.602215 0.436449
C76   C     C_R   0.715391 0.692178 0.406889 0.481476
C77   C     C_R   0.814995 0.145744 0.397781 0.436443
C78   C     C_R   0.284615 0.692174 0.593106 0.481472
C79   C     C_R   0.685005 0.645747 0.602221 0.436439
C80   C     C_R   0.154264 0.634868 0.228036 0.497738
C81   C     C_R   0.215394 0.192180 0.406886 0.481471
C82   C     C_R   0.314995 0.645766 0.397771 0.436405
C83   C     C_R   0.784606 0.192180 0.593113 0.481469
C84   C     C_R   0.639670 0.696216 0.603030 0.448817
C85   C     C_R   0.262349 0.143601 0.404827 0.449510
C86   C     C_R   0.360338 0.696217 0.396967 0.448849
C87   C     C_R   0.737653 0.143600 0.595169 0.449513
C88   C     C_R   0.139672 0.196214 0.603026 0.448819
C89   C     C_R   0.762346 0.643600 0.404833 0.449501
C90   C     C_R   0.860329 0.196215 0.396973 0.448821
C91   C     C_R   0.838691 0.377523 0.788599 0.494677
C92   C     C_R   0.237659 0.643602 0.595159 0.449496
C93   C     C_R   0.662897 0.731545 0.504350 -0.423263
C94   C     C_R   0.253116 0.131786 0.502386 -0.420089
C95   C     C_R   0.337113 0.731541 0.495648 -0.423269
C96   C     C_R   0.746885 0.131787 0.497610 -0.420092
C97   C     C_R   0.162900 0.231546 0.504347 -0.423268
C98   C     C_R   0.753114 0.631790 0.502392 -0.420086
C99   C     C_R   0.837101 0.231546 0.495652 -0.423270
C100  C     C_R   0.246887 0.631802 0.497601 -0.420067
C101  C     C_3   0.287990 0.230862 0.757971 -0.087747
C102  C     C_2   0.672937 0.201801 0.069210 0.506955
C103  C     C_3   0.753812 0.958059 0.157122 -0.028902
C104  C     C_3   0.712008 0.230861 0.242033 -0.087738
C105  C     C_3   0.246187 0.958062 0.842875 -0.028895
C106  C     C_3   0.787979 0.730855 0.757994 -0.087756
C107  C     C_3   0.253813 0.458062 0.157120 -0.028916
C108  C     C_3   0.212010 0.730860 0.242029 -0.087710
C109  C     C_3   0.746186 0.458060 0.842879 -0.028898
C110  C     C_3   0.146832 0.034092 0.702324 -0.149810
C111  C     C_3   0.657730 0.659934 0.340744 -0.262696
C112  C     C_3   0.853180 0.034106 0.297653 -0.149776
Cl1   Cl    Cl    0.359235 0.755128 0.989966 -0.639939
Cl2   Cl    Cl    0.635705 0.276255 0.041366 -0.587284
Cl3   Cl    Cl    0.640748 0.755105 0.010065 -0.639930
Cl4   Cl    Cl    0.364297 0.276255 0.958633 -0.587285
Cl5   Cl    Cl    0.859233 0.255131 0.989970 -0.639939
Cl6   Cl    Cl    0.135705 0.776254 0.041365 -0.587281
Cl7   Cl    Cl    0.140763 0.255125 0.010037 -0.639933
Cl8   Cl    Cl    0.864292 0.776240 0.958651 -0.587278
H1    H     H_    0.594623 0.099918 0.674940 0.170674
H2    H     H_    0.297334 0.837990 0.672453 0.214722
H3    H     H_    0.982789 0.211594 0.357434 0.106980
H4    H     H_    0.028958 0.181050 0.219009 0.207249
H5    H     H_    0.248131 0.521595 0.677866 0.126717
H6    H     H_    0.199985 0.497826 0.627078 0.112954
H7    H     H_    0.155321 0.503545 0.770720 0.180038
H8    H     H_    0.264453 0.092034 0.672955 0.211086
H9    H     H_    0.702673 0.837995 0.327546 0.214730
H10   H     H_    0.235545 0.592022 0.327043 0.211074
H11   H     H_    0.797326 0.337997 0.672454 0.214732
H12   H     H_    0.764454 0.592032 0.672957 0.211084
H13   H     H_    0.202674 0.337996 0.327546 0.214730
H14   H     H_    0.535034 0.131554 0.192500 0.168306
H15   H     H_    0.462295 0.867324 0.811215 0.185686
H16   H     H_    0.464966 0.131554 0.807499 0.168306
H17   H     H_    0.431818 0.845837 0.324876 0.168433
H18   H     H_    0.537704 0.867320 0.188789 0.185698
H19   H     H_    0.035034 0.631553 0.192500 0.168306
H20   H     H_    0.962295 0.367324 0.811215 0.185684
H21   H     H_    0.964963 0.631547 0.807507 0.168306
H22   H     H_    0.037705 0.367323 0.188785 0.185686
H23   H     H_    0.277655 0.741833 0.852757 0.230777
H24   H     H_    0.762129 0.133770 0.016837 0.177730
H25   H     H_    0.722346 0.741830 0.147248 0.230798
H26   H     H_    0.237872 0.133771 0.983162 0.177734
H27   H     H_    0.777655 0.241832 0.852758 0.230778
H28   H     H_    0.405378 0.099916 0.325059 0.170674
H29   H     H_    0.262130 0.633770 0.016834 0.177729
H30   H     H_    0.222348 0.241834 0.147240 0.230785
H31   H     H_    0.737866 0.633763 0.983175 0.177743
H32   H     H_    0.334648 0.239416 0.670833 0.091753
H33   H     H_    0.289328 0.273527 0.810240 0.160011
H34   H     H_    0.240736 0.243669 0.764726 0.211728
H35   H     H_    0.733031 0.978411 0.239362 0.098637
H36   H     H_    0.738415 0.998274 0.119425 0.114062
H37   H     H_    0.811974 0.959376 0.105241 0.184592
H38   H     H_    0.665350 0.239413 0.329172 0.091750
H39   H     H_    0.568182 0.845840 0.675125 0.168438
H40   H     H_    0.710669 0.273527 0.189766 0.160009
H41   H     H_    0.759261 0.243669 0.235280 0.211729
H42   H     H_    0.266970 0.978411 0.760633 0.098635
H43   H     H_    0.261583 0.998279 0.880572 0.114068
H44   H     H_    0.188026 0.959379 0.894753 0.184595
H45   H     H_    0.834635 0.739413 0.670855 0.091755
H46   H     H_    0.789315 0.773518 0.810266 0.160005
H47   H     H_    0.740724 0.743659 0.764751 0.211738
H48   H     H_    0.233031 0.478415 0.239361 0.098631
H49   H     H_    0.238416 0.498276 0.119422 0.114069
H50   H     H_    0.094625 0.599929 0.674937 0.170680
H51   H     H_    0.311974 0.459379 0.105241 0.184582
H52   H     H_    0.165352 0.739412 0.329168 0.091745
H53   H     H_    0.210672 0.773526 0.189762 0.160001
H54   H     H_    0.259263 0.743667 0.235276 0.211743
H55   H     H_    0.766970 0.478414 0.760638 0.098637
H56   H     H_    0.761581 0.498275 0.880580 0.114072
H57   H     H_    0.688025 0.459377 0.894756 0.184589
H58   H     H_    0.194460 0.000425 0.637298 0.103399
H59   H     H_    0.104629 0.026333 0.694821 0.127032
H60   H     H_    0.127575 0.008989 0.781904 0.181632
H61   H     H_    0.931818 0.345839 0.324875 0.168437
H62   H     H_    0.615616 0.704351 0.373060 0.138387
H63   H     H_    0.637614 0.610072 0.399367 0.101480
H64   H     H_    0.670436 0.634739 0.265214 0.170732
H65   H     H_    0.805561 0.000431 0.362683 0.103381
H66   H     H_    0.895393 0.026356 0.305136 0.127057
H67   H     H_    0.872431 0.009006 0.218075 0.181626
H68   H     H_    0.384397 0.704325 0.626905 0.138368
H69   H     H_    0.362366 0.610040 0.600665 0.101492
H70   H     H_    0.329569 0.634746 0.734794 0.170719
H71   H     H_    0.694433 0.500436 0.637312 0.103375
H72   H     H_    0.905377 0.599919 0.325060 0.170676
H73   H     H_    0.604593 0.526363 0.694900 0.127082
H74   H     H_    0.627582 0.509011 0.781928 0.181614
H75   H     H_    0.115602 0.204329 0.373112 0.138387
H76   H     H_    0.137645 0.110041 0.399328 0.101487
H77   H     H_    0.170431 0.134759 0.265207 0.170724
H78   H     H_    0.305649 0.500459 0.362641 0.103305
H79   H     H_    0.395503 0.526455 0.304916 0.127206
H80   H     H_    0.372423 0.509074 0.218009 0.181579
H81   H     H_    0.884379 0.204350 0.626948 0.138381
H82   H     H_    0.862379 0.110071 0.600643 0.101473
H83   H     H_    0.068182 0.345840 0.675125 0.168439
H84   H     H_    0.829555 0.134741 0.734797 0.170724
H85   H     H_    0.532932 0.615236 0.673863 0.095036
H86   H     H_    0.517211 0.711599 0.642568 0.106986
H87   H     H_    0.471039 0.681058 0.780996 0.207250
H88   H     H_    0.251927 0.021636 0.321951 0.126846
H89   H     H_    0.299950 0.997833 0.372923 0.112911
H90   H     H_    0.344728 0.003557 0.229260 0.180022
H91   H     H_    0.467028 0.615285 0.326369 0.094820
H92   H     H_    0.482861 0.711716 0.357326 0.107112
H93   H     H_    0.528954 0.680945 0.219008 0.207279
H94   H     H_    0.735547 0.092030 0.327044 0.211082
H95   H     H_    0.748107 0.021614 0.677954 0.126770
H96   H     H_    0.700017 0.997826 0.627080 0.112936
H97   H     H_    0.655300 0.003548 0.770735 0.180025
H98   H     H_    0.032919 0.115223 0.673918 0.095090
H99   H     H_    0.017230 0.211571 0.642537 0.106945
H100  H     H_    0.971039 0.181090 0.780992 0.207248
H101  H     H_    0.751905 0.521627 0.321990 0.126821
H102  H     H_    0.799943 0.497828 0.372948 0.112912
H103  H     H_    0.844713 0.503544 0.229276 0.180020
H104  H     H_    0.967065 0.115232 0.326145 0.095025
N1    N     N_R   0.388930 0.078160 0.705470 -0.095523
N2    N     N_R   0.419500 0.922160 0.443350 -0.050595
N3    N     N_R   0.419500 0.077840 0.443350 -0.054962
N4    N     N_R   0.580500 0.922160 0.556650 -0.050603
N5    N     N_R   0.080500 0.577840 0.556650 -0.054958
N6    N     N_R   0.919500 0.422160 0.443350 -0.050603
N7    N     N_R   0.919500 0.577840 0.443350 -0.054962
N8    N     N_R   0.080500 0.422160 0.556650 -0.050605
N9    N     N_R   0.626210 0.077590 0.443410 -0.059153
N10   N     N_R   0.373790 0.922410 0.556590 -0.061922
N11   N     N_R   0.373790 0.077590 0.556590 -0.059152
N12   N     N_R   0.611070 0.921840 0.294530 -0.106785
N13   N     N_R   0.626210 0.922410 0.443410 -0.061924
N14   N     N_R   0.126210 0.577590 0.443410 -0.059163
N15   N     N_R   0.873790 0.422410 0.556590 -0.061924
N16   N     N_R   0.873790 0.577590 0.556590 -0.059154
N17   N     N_R   0.126210 0.422410 0.443410 -0.061926
N18   N     N_R   0.554800 0.077270 0.294580 -0.071606
N19   N     N_R   0.445200 0.922730 0.705420 -0.069797
N20   N     N_R   0.445200 0.077270 0.705420 -0.071606
N21   N     N_R   0.554800 0.922730 0.294580 -0.069803
N22   N     N_R   0.054800 0.577270 0.294580 -0.071606
N23   N     N_R   0.611070 0.078160 0.294530 -0.095523
N24   N     N_R   0.945200 0.422730 0.705420 -0.069796
N25   N     N_R   0.945200 0.577270 0.705420 -0.071606
N26   N     N_R   0.054800 0.422730 0.294580 -0.069799
N27   N     N_R   0.388930 0.921840 0.705470 -0.106787
N28   N     N_R   0.888930 0.578160 0.705470 -0.095522
N29   N     N_R   0.111070 0.421840 0.294530 -0.106786
N30   N     N_R   0.111070 0.578160 0.294530 -0.095524
N31   N     N_R   0.888930 0.421840 0.705470 -0.106786
N32   N     N_R   0.580500 0.077840 0.556650 -0.054960
Ni1   Ni    Ni4+2 0.382710 0.000000 0.629850 0.210233
Ni2   Ni    Ni4+2 0.617290 1.000000 0.370150 0.210231
Ni3   Ni    Ni4+2 0.882710 0.500000 0.629850 0.210234
Ni4   Ni    Ni4+2 0.117290 0.500000 0.370150 0.210231
Ni5   Ni    Ni4+2 0.513020 0.000000 0.629850 0.201010
Ni6   Ni    Ni4+2 0.486980 1.000000 0.370150 0.201009
Ni7   Ni    Ni4+2 0.013020 0.500000 0.629850 0.201012
Ni8   Ni    Ni4+2 0.986980 0.500000 0.370150 0.201013
O1    O     O_3   0.283357 0.153033 0.792425 -0.643877
O2    O     O_3   0.718806 0.695684 0.315621 -0.560052
O3    O     O_3   0.837820 0.114120 0.299506 -0.564462
O4    O     O_3   0.281198 0.695676 0.684377 -0.560052
O5    O     O_3   0.662181 0.614126 0.700497 -0.564464
O6    O     O_3   0.218806 0.195686 0.315619 -0.560055
O7    O     O_3   0.337809 0.614169 0.299489 -0.564487
O8    O     O_3   0.781190 0.195688 0.684383 -0.560051
O9    O     O_3   0.574239 0.711005 0.701338 -0.557380
O10   O     O_3   0.316949 0.110106 0.306760 -0.571179
O11   O     O_3   0.425776 0.710990 0.298660 -0.557364
O12   O     O_3   0.732648 0.880633 0.160572 -0.620913
O13   O     O_3   0.683057 0.110097 0.693234 -0.571175
O14   O     O_3   0.074243 0.211006 0.701336 -0.557380
O15   O     O_3   0.816942 0.610097 0.306769 -0.571180
O16   O     O_3   0.925761 0.211003 0.298664 -0.557377
O17   O     O_3   0.183066 0.610093 0.693220 -0.571175
O18   O     O_3   0.716643 0.153033 0.207575 -0.643874
O19   O     O_3   0.267351 0.880637 0.839430 -0.620915
O20   O     O_3   0.783351 0.653024 0.792439 -0.643885
O21   O     O_3   0.232649 0.380636 0.160571 -0.620912
O22   O     O_3   0.216644 0.653032 0.207572 -0.643877
O23   O     O_3   0.767351 0.380635 0.839428 -0.620914
O24   O     O_3   0.162179 0.114109 0.700488 -0.564455

loop_
_geom_bond_atom_site_label_1
_geom_bond_atom_site_label_2
_ccdc_geom_bond_type
C14   O15   S    
C58   C62   A    
C31   C66   A    
C83   C87   A    
C49   H14   S    
C55   H21   S    
N8    Ni7   S    
C76   O2    S    
N12   Ni2   S    
N10   Ni1   S    
C79   C98   A    
C58   N28   A    
C51   N20   A    
C20   Cl8   S    
C10   O11   S    
N7    Ni8   S    
C3    H68   S    
C112  H67   S    
C49   N18   A    
C109  H56   S    
C69   N29   A    
C41   C67   A    
C54   C65   A    
C107  H51   S    
N1    N20   A    
C4    H74   S    
C17   Cl3   S    
C5    O6    S    
C79   O5    S    
C49   C60   A    
C15   H3    S    
C31   N32   A    
C17   C26   D    
C106  H46   S    
N15   Ni3   S    
C7    O8    S    
N17   Ni4   S    
C103  O12   S    
C75   C94   A    
C7    H82   S    
C39   H83   S    
C50   H15   S    
C3    H69   S    
C46   H12   S    
C6    H79   S    
C83   O8    S    
C53   C64   A    
C30   H30   S    
C13   C57   S    
C41   N10   A    
C110  H58   S    
C71   C100  S    
C44   H10   S    
C72   C99   S    
C55   C62   A    
C88   O14   S    
C89   O15   S    
C85   O10   S    
C44   C71   A    
C90   O16   S    
N19   Ni5   S    
C87   O13   S    
C39   C74   A    
C16   O17   S    
N13   Ni2   S    
C53   N22   A    
C81   O6    S    
N20   Ni5   S    
C101  O1    S    
C43   N13   A    
N9    N32   A    
C104  O18   S    
C91   O23   S    
C54   H20   S    
C63   C69   A    
C25   N12   A    
C9    H89   S    
N25   N28   A    
C56   N26   A    
C75   O24   S    
C52   H18   S    
C55   N25   A    
N14   Ni4   S    
C51   C57   A    
C23   C27   S    
C16   H5    S    
C18   Cl6   S    
C12   H99   S    
C47   N27   A    
C88   C97   A    
C2    C61   S    
C42   H8    S    
C11   H96   S    
C5    H75   S    
N24   Ni7   S    
C56   H22   S    
C34   H39   S    
N26   N29   A    
N30   Ni4   S    
C35   C71   A    
C27   H29   S    
C22   C28   S    
N32   Ni5   S    
C52   N21   A    
C45   C72   A    
C67   C95   S    
C64   C80   A    
C4    H71   S    
C23   H23   S    
N6    N15   A    
C37   N6    A    
C104  H40   S    
C60   C102  S    
N21   Ni6   S    
C12   H98   S    
C42   N11   A    
C81   C85   A    
C74   C97   S    
N31   Ni3   S    
C20   C29   D    
N5    Ni7   S    
C73   C98   S    
C109  O23   S    
N6    Ni8   S    
C77   C90   A    
N24   N31   A    
N19   N27   A    
C15   H4    S    
N8    N17   A    
C106  H45   S    
C48   C74   A    
C48   H13   S    
C43   H9    S    
C70   C93   S    
C31   H1    S    
C50   N19   A    
C3    H70   S    
C112  H65   S    
C6    H78   S    
C39   N8    A    
C38   C73   A    
C103  H37   S    
C5    H77   S    
N22   N30   A    
C78   C92   A    
C101  H33   S    
C82   C86   A    
C91   N31   A    
C35   H50   S    
C111  H62   S    
C68   C94   S    
C77   O3    S    
C13   C24   D    
C108  H54   S    
C82   O7    S    
C35   N5    A    
C78   C95   A    
C78   O4    S    
C41   H2    S    
N28   Ni3   S    
C8    H87   S    
C34   N4    A    
C45   N15   A    
C20   C62   S    
C7    H84   S    
C102  Cl2   S    
C52   C59   A    
C1    C57   A    
C76   C93   A    
C29   H31   S    
C51   H16   S    
C14   H103  S    
C83   C99   A    
C9    O10   S    
C110  H60   S    
C9    H90   S    
N11   Ni1   S    
C37   H61   S    
C87   C96   A    
C1    N1    A    
C111  H63   S    
N18   Ni6   S    
C56   C63   A    
C1    O1    S    
C103  H36   S    
N25   Ni7   S    
C8    H86   S    
C19   C28   D    
C112  O3    S    
N26   Ni8   S    
C38   N7    A    
C80   N30   A    
C17   C59   S    
C5    H76   S    
N2    Ni6   S    
C10   H92   S    
C36   C60   A    
C32   N2    A    
C45   H11   S    
C43   C70   A    
C54   N24   A    
C32   C67   A    
C110  H59   S    
C6    H80   S    
C15   H104  S    
C22   H24   S    
C108  H53   S    
C12   O14   S    
C90   C99   A    
C104  H41   S    
N23   Ni2   S    
N22   Ni8   S    
N4    Ni5   S    
C92   C100  A    
C66   C96   S    
C107  H49   S    
C103  H35   S    
C4    O5    S    
C65   C91   A    
C34   C70   A    
C107  H48   S    
C15   O16   S    
C28   H27   S    
C3    O4    S    
C101  H32   S    
C107  O21   S    
C6    O7    S    
C53   H19   S    
C82   C100  A    
N12   N21   A    
C14   H102  S    
C18   C27   D    
C8    O9    S    
C26   H25   S    
C104  H38   S    
C40   N9    A    
C33   N3    A    
C9    H88   S    
C44   N14   A    
C47   C61   A    
C10   H91   S    
C109  H55   S    
C10   H93   S    
N9    Ni2   S    
C48   N17   A    
C105  H44   S    
C80   O22   S    
C25   O12   S    
N3    N11   A    
C21   C30   D    
C76   C89   A    
C77   C96   A    
C38   H72   S    
N18   N23   A    
N2    N10   A    
C105  H43   S    
C89   C98   A    
C33   H28   S    
C2    Cl1   S    
C106  H47   S    
C108  H52   S    
C36   O18   S    
N4    N13   A    
C7    H81   S    
C24   H26   S    
C11   H97   S    
C86   O11   S    
C112  H66   S    
N29   Ni4   S    
C18   C64   S    
C79   C84   A    
C22   C102  D    
C58   O20   S    
C101  H34   S    
C50   C61   A    
C111  H64   S    
C105  O19   S    
C11   O13   S    
C69   O21   S    
C46   N16   A    
C106  O20   S    
C84   C93   A    
C42   C68   A    
N16   Ni3   S    
C47   O19   S    
C8    H85   S    
C16   H7    S    
C24   C30   S    
C21   C63   S    
C13   Cl4   S    
C108  O22   S    
C86   C95   A    
C19   C65   S    
N1    Ni1   S    
C111  O2    S    
C109  H57   S    
C75   C88   A    
C32   H17   S    
C110  O24   S    
C4    H73   S    
C33   C68   A    
C26   C29   S    
C21   Cl7   S    
C14   H101  S    
C37   C72   A    
C40   H94   S    
C2    C23   D    
C36   N23   A    
C81   C97   A    
C105  H42   S    
N7    N16   A    
C40   C66   A    
C85   C94   A    
C25   C59   A    
N5    N14   A    
C84   O9    S    
C92   O17   S    
C16   H6    S    
C12   H100  S    
C46   C73   A    
N27   Ni1   S    
N3    Ni6   S    
C11   H95   S    
C19   Cl5   S    
