data_mof_unit_50197.cif
_audit_creation_date              2012-12-11T17:45:24-0500
_audit_creation_method            fapswitch 2.2
_symmetry_space_group_name_H-M    P1
_symmetry_Int_Tables_number       1
_space_group_crystal_system       triclinic
_cell_length_a                    14.95849
_cell_length_b                    14.888735
_cell_length_c                    15.08121
_cell_angle_alpha                 110.382982
_cell_angle_beta                  108.5245
_cell_angle_gamma                 109.04218
_cell_volume                      2599.74256007

loop_
_atom_site_label
_atom_site_type_symbol
_atom_type_description
_atom_site_fract_x
_atom_site_fract_y
_atom_site_fract_z
_atom_type_partial_charge
C1    C     C_R   0.912658 0.195863 0.997556 -0.040773
C2    C     C_R   0.685976 0.243513 0.773074 0.553866
C3    C     C_R   0.797312 0.591618 0.106359 -0.177383
C4    C     C_R   0.298542 0.801992 0.207199 -0.155845
C5    C     C_R   0.012330 0.408032 0.706423 -0.131918
C6    C     C_R   0.711368 0.501767 0.087973 -0.146630
C7    C     C_R   0.072696 0.497648 0.702865 0.106979
C8    C     C_R   0.680967 0.221584 0.673206 -0.014808
C9    C     C_R   0.946928 0.774525 0.949549 0.092588
C10   C     C_R   0.662667 0.276874 0.296322 -0.002414
C11   C     C_R   0.773458 0.353956 0.352085 -0.148582
C12   C     C_R   0.302738 0.862927 0.301865 0.112063
C13   C     C_R   0.848763 0.320427 0.341504 0.079440
C14   C     C_R   0.812443 0.209498 0.272108 -0.171930
C15   C     C_R   0.701747 0.133566 0.212278 -0.060376
C16   C     C_R   0.223891 0.407625 0.971433 -0.120898
C17   C     C_R   0.627316 0.166562 0.225634 -0.188059
C18   C     C_R   0.006070 0.392950 0.511518 -0.226221
C19   C     C_R   0.086724 0.489952 0.609702 0.125860
C20   C     C_R   0.152025 0.582693 0.608581 0.089022
C21   C     C_R   0.123899 0.577946 0.509325 -0.144028
C22   C     C_R   0.025356 0.491957 0.418263 0.084193
C23   C     C_R   0.325837 0.500218 0.044366 0.006233
C24   C     C_R   0.965210 0.398266 0.419340 -0.007011
C25   C     C_R   0.239322 0.786809 0.721168 -0.231785
C26   C     C_R   0.319926 0.887744 0.813493 -0.013951
C27   C     C_R   0.401743 0.892362 0.894743 -0.071585
C28   C     C_R   0.021509 0.589879 0.310376 -0.079464
C29   C     C_R   0.404307 0.796144 0.882498 -0.224708
C30   C     C_R   0.326182 0.694609 0.788271 0.493450
C31   C     C_R   0.241009 0.688810 0.707272 -0.053137
C32   C     C_R   0.150435 0.087471 0.332236 -0.095530
C33   C     C_R   0.246724 0.084004 0.353709 -0.053898
C34   C     C_R   0.992897 0.496191 0.320057 0.047228
C35   C     C_R   0.289821 0.057327 0.431717 0.094389
C36   C     C_R   0.234602 0.032380 0.488094 -0.024180
C37   C     C_R   0.136882 0.034964 0.464327 -0.097740
C38   C     C_R   0.095860 0.063330 0.387665 -0.125676
C39   C     C_R   0.490696 0.148781 0.541730 0.471181
C40   C     C_R   0.313745 0.592244 0.062841 -0.093912
C41   C     C_R   0.587012 0.142958 0.567511 -0.042579
C42   C     C_R   0.589222 0.053257 0.495775 -0.017760
C43   C     C_R   0.494310 0.966552 0.407417 -0.233608
C44   C     C_R   0.396794 0.965091 0.388983 0.014242
C45   C     C_R   0.713954 0.410606 0.025383 0.014477
C46   C     C_R   0.393373 0.056971 0.453746 -0.186913
C47   C     C_R   0.744509 0.070254 0.461175 -0.200480
C48   C     C_R   0.828341 0.046648 0.466017 -0.120737
C49   C     C_R   0.849979 0.987476 0.516228 -0.106293
C50   C     C_R   0.790209 0.955124 0.565109 -0.123216
C51   C     C_R   0.708825 0.981963 0.563802 -0.111092
C52   C     C_R   0.944918 0.405642 0.219183 -0.144630
C53   C     C_R   0.685416 0.039426 0.511533 0.144379
C54   C     C_3   0.550587 0.422676 0.115892 -0.380049
C55   C     C_3   0.446178 0.426182 0.108602 -0.321126
C56   C     C_R   0.096514 0.590015 0.792005 -0.131583
C57   C     C_3   0.632524 0.616978 0.155868 -0.365444
C58   C     C_3   0.528244 0.455207 0.959654 -0.226900
C59   C     C_3   0.608909 0.500052 0.080828 0.246753
C60   C     C_3   0.429151 0.500695 0.062619 0.286078
C61   C     C_3   0.527532 0.618086 0.142936 -0.412589
C62   C     C_3   0.424956 0.459143 0.951089 -0.378363
C63   C     C_R   0.168202 0.091149 0.769992 -0.086672
C64   C     C_R   0.211373 0.801841 0.302338 -0.138531
C65   C     C_R   0.070412 0.035941 0.766338 -0.179514
C66   C     C_R   0.069901 0.029469 0.856716 0.080752
C67   C     C_R   0.784089 0.258653 0.688943 -0.204588
C68   C     C_R   0.168583 0.067835 0.946011 -0.236120
C69   C     C_R   0.265910 0.114719 0.945716 0.472665
C70   C     C_R   0.266147 0.129829 0.859323 -0.226660
C71   C     C_R   0.947024 0.865440 0.841588 -0.204147
C72   C     C_R   0.901489 0.830565 0.899642 0.015602
C73   C     C_R   0.831501 0.869030 0.921911 -0.103760
C74   C     C_R   0.821889 0.948278 0.896068 0.412586
C75   C     C_R   0.906826 0.014023 0.887496 -0.084519
C76   C     C_R   0.998271 0.197021 0.901574 -0.137686
C77   C     C_R   0.967513 0.967756 0.853409 0.003014
C78   C     C_R   0.931200 0.747319 0.025277 -0.136488
C79   C     C_R   0.681455 0.769802 0.947978 -0.018715
C80   C     C_R   0.633095 0.768917 0.013285 -0.173719
C81   C     C_R   0.689172 0.851516 0.122092 -0.150156
C82   C     C_R   0.795311 0.932936 0.166835 -0.100259
C83   C     C_R   0.844368 0.933952 0.102329 -0.143535
C84   C     C_R   0.787498 0.852326 0.992425 0.123899
C85   C     C_R   0.941469 0.132005 0.931276 0.073136
C86   C     C_2   0.584242 0.309397 0.315632 0.540924
C87   C     C_2   0.276101 0.999520 0.567962 0.495641
C88   C     C_2   0.028744 0.693626 0.379081 0.507616
C89   C     C_R   0.025444 0.748745 0.935879 -0.113554
C90   C     C_2   0.573463 0.510371 0.904712 0.638991
C91   C     C_2   0.693019 0.317455 0.046261 0.587532
Cl1   Cl    Cl    0.573529 0.190123 0.790579 -0.643841
Cl2   Cl    Cl    0.338793 0.577503 0.772558 -0.680722
Cl3   Cl    Cl    0.492112 0.271039 0.617421 -0.561093
Cl4   Cl    Cl    0.386405 0.148208 0.050618 -0.820198
Cl5   Cl    Cl    0.708760 0.968274 0.882866 -0.632394
H1    H     H_    0.860443 0.169201 0.029169 0.175155
H2    H     H_    0.351374 0.830043 0.176255 0.098798
H3    H     H_    0.869954 0.182079 0.265435 0.112932
H4    H     H_    0.673560 0.048316 0.157770 0.141467
H5    H     H_    0.956904 0.319435 0.508984 0.124102
H6    H     H_    0.174530 0.645909 0.505159 0.149859
H7    H     H_    0.174742 0.785138 0.660986 0.221998
H8    H     H_    0.318409 0.962240 0.822219 0.181600
H9    H     H_    0.463433 0.970528 0.967129 0.174688
H10   H     H_    0.467449 0.801422 0.946791 0.150736
H11   H     H_    0.021680 0.066756 0.371417 0.100544
H12   H     H_    0.149212 0.674961 0.820868 0.102248
H13   H     H_    0.204421 0.322392 0.935561 0.105075
H14   H     H_    0.118453 0.109438 0.272900 0.106494
H15   H     H_    0.288421 0.103086 0.310218 0.118872
H16   H     H_    0.092118 0.015201 0.505062 0.132982
H17   H     H_    0.496242 0.895504 0.356185 0.139184
H18   H     H_    0.725720 0.112743 0.418685 0.129779
H19   H     H_    0.875640 0.073040 0.429795 0.101225
H20   H     H_    0.912620 0.966218 0.516487 0.109016
H21   H     H_    0.805795 0.908064 0.602915 0.132784
H22   H     H_    0.661892 0.955178 0.600405 0.153418
H23   H     H_    0.809776 0.256722 0.629565 0.146711
H24   H     H_    0.605637 0.446057 0.199496 0.198455
H25   H     H_    0.525219 0.336527 0.060223 0.189014
H26   H     H_    0.375462 0.342028 0.055981 0.176212
H27   H     H_    0.452891 0.458043 0.190352 0.187347
H28   H     H_    0.686001 0.645104 0.241802 0.179508
H29   H     H_    0.530890 0.651074 0.223178 0.171931
H30   H     H_    0.504944 0.367111 0.912206 0.170712
H31   H     H_    0.354400 0.375130 0.891173 0.169493
H32   H     H_    0.375203 0.677721 0.111869 0.085374
H33   H     H_    0.412792 0.514062 0.919914 0.221771
H34   H     H_    0.875748 0.753029 0.055121 0.113848
H35   H     H_    0.675115 0.676674 0.136275 0.157009
H36   H     H_    0.520613 0.674488 0.112323 0.146109
H37   H     H_    0.341674 0.168491 0.859969 0.178253
H38   H     H_    0.167940 0.101889 0.702656 0.162652
H39   H     H_    0.995419 0.001509 0.694972 0.124960
H40   H     H_    0.169276 0.057073 0.013654 0.155325
H41   H     H_    0.989240 0.829181 0.809266 0.144099
H42   H     H_    0.913003 0.320096 0.195906 0.129735
H43   H     H_    0.635433 0.708566 0.862580 0.170669
H44   H     H_    0.551525 0.704587 0.978973 0.146623
H45   H     H_    0.059611 0.758120 0.884731 0.098971
H46   H     H_    0.650753 0.852682 0.172019 0.115946
H47   H     H_    0.838148 0.997206 0.250438 0.093414
H48   H     H_    0.924893 0.000691 0.136522 0.098207
H49   H     H_    0.187381 0.828262 0.362081 0.083362
H50   H     H_    0.012521 0.170672 0.834178 0.120095
H51   H     H_    0.500953 0.247209 0.280518 0.076641
H52   H     H_    0.355462 0.006072 0.593701 0.089605
H53   H     H_    0.027804 0.750999 0.350631 0.002708
H54   H     H_    0.653301 0.581070 0.949010 -0.019847
H55   H     H_    0.665236 0.314267 0.103668 0.003799
H56   H     H_    0.829194 0.677175 0.163197 0.111331
H57   H     H_    0.993190 0.323859 0.660098 0.101917
H58   H     H_    0.542393 0.105528 0.182167 0.153265
H59   H     H_    0.802282 0.438910 0.408991 0.168495
N1    N     N_R   0.947080 0.293830 0.002870 -0.044677
N2    N     N_R   0.153670 0.443180 0.946090 -0.036083
N3    N     N_R   0.002360 0.556820 0.208890 -0.079136
N4    N     N_R   0.210070 0.556820 0.002870 -0.035708
N5    N     N_R   0.945960 0.443180 0.152110 -0.046158
N6    N     N_R   0.151710 0.706170 0.208890 -0.048223
N7    N     N_R   0.004320 0.293830 0.946090 -0.054607
N8    N     N_R   0.789930 0.443180 0.997130 -0.044163
N9    N     N_R   0.054040 0.556820 0.847890 -0.042236
N10   N     N_R   0.848290 0.293830 0.791110 -0.072830
N11   N     N_R   0.995680 0.706170 0.053910 -0.045719
N12   N     N_R   0.052920 0.706170 0.997130 -0.044445
N13   N     N_R   0.791050 0.293830 0.847890 -0.074249
N14   N     N_R   0.846330 0.556820 0.053910 -0.051450
N15   N     N_R   0.997640 0.443180 0.791110 -0.041652
N16   N     N_R   0.208950 0.706170 0.152110 -0.041531
Ni1   Ni    Ni4+2 0.869690 0.369690 0.000000 0.308750
Ni2   Ni    Ni4+2 0.130310 0.630310 0.000000 0.220497
Ni3   Ni    Ni4+2 0.000970 0.369690 0.869780 0.221945
Ni4   Ni    Ni4+2 0.999030 0.630310 0.130220 0.199032
O1    O     O_2   0.611706 0.405710 0.371843 -0.580078
O2    O     O_2   0.220858 0.961715 0.603943 -0.594024
O3    O     O_2   0.028176 0.712948 0.464349 -0.583954
O4    O     O_2   0.519344 0.475317 0.808311 -0.468360
O5    O     O_2   0.714486 0.246570 0.005725 -0.539715

loop_
_geom_bond_atom_site_label_1
_geom_bond_atom_site_label_2
_ccdc_geom_bond_type
C25   C31   A    
C47   H18   S    
C66   C68   A    
C63   C65   A    
C58   C62   S    
C4    N16   A    
C4    H2    S    
C64   H49   S    
C27   C29   A    
C50   H21   S    
C88   H53   S    
C40   N4    A    
C79   H43   S    
C35   C36   A    
C9    C72   S    
C15   H4    S    
C90   H54   S    
C3    C6    A    
C86   H51   S    
C81   C82   A    
C14   H3    S    
C39   C41   A    
N16   Ni2   S    
C3    H56   S    
C29   C30   A    
C57   C61   S    
C32   H14   S    
C18   C24   A    
C36   C37   A    
C6    C45   A    
C30   Cl2   S    
C54   H24   S    
C42   C53   S    
C62   H31   S    
N6    Ni4   S    
C89   H45   S    
C57   C59   S    
C27   H9    S    
C10   C17   A    
C23   C40   A    
C40   H32   S    
C51   H22   S    
C60   C62   S    
C18   C19   A    
C41   C42   A    
C38   H11   S    
C66   C77   S    
C56   H12   S    
C37   H16   S    
C61   H36   S    
C26   H8    S    
C90   O4    D    
N9    N15   A    
C75   C85   S    
C89   N12   A    
C83   C84   A    
C68   C69   A    
C28   C88   S    
C70   H37   S    
C52   H42   S    
C5    N15   A    
C33   H15   S    
C32   C38   A    
C4    C12   A    
C73   C84   S    
N1    N7    A    
C11   H59   S    
N2    Ni3   S    
C47   C53   A    
C16   C23   A    
C67   N10   A    
C55   H26   S    
C76   H50   S    
N2    N4    A    
C21   C22   A    
N3    N5    A    
C62   H33   S    
C7    C56   A    
C45   C91   S    
C17   H58   S    
C25   C26   A    
C58   H30   S    
C44   C46   A    
C16   H13   S    
C54   C59   S    
C36   C87   S    
C1    C85   A    
C23   C60   S    
C22   C34   S    
C55   H27   S    
C78   N11   A    
C74   C75   A    
C13   C14   A    
C63   H38   S    
C74   Cl5   S    
C68   H40   S    
C8    C41   S    
C71   H41   S    
C87   H52   S    
C9    C89   A    
C5    C7    A    
C72   C73   A    
N10   Ni3   S    
C80   H44   S    
N1    Ni1   S    
C13   C24   S    
C60   C61   S    
C51   C53   A    
C18   H5    S    
C1    N1    A    
C43   C44   A    
C39   Cl3   S    
N11   Ni4   S    
C37   C38   A    
C87   O2    D    
C78   H34   S    
C58   C90   S    
C47   C48   A    
C63   C70   A    
C30   C31   A    
C48   C49   A    
C91   O5    D    
C28   N3    A    
C50   C51   A    
N5    Ni1   S    
N9    Ni2   S    
C2    Cl1   S    
N8    Ni1   S    
C75   C77   A    
C65   H39   S    
C39   C46   A    
C21   H6    S    
C81   H46   S    
C54   H25   S    
C49   C50   A    
N10   N13   A    
C7    C19   S    
C48   H19   S    
C26   C27   A    
N11   N12   A    
C82   H47   S    
C22   C24   A    
C29   H10   S    
C42   C43   A    
C1    H1    S    
C73   C74   A    
C2    N13   A    
C71   C77   A    
N15   Ni3   S    
C15   C17   A    
C12   C64   A    
C54   C55   S    
C10   C86   S    
C16   N2    A    
C6    C59   S    
C57   H35   S    
C3    N14   A    
C80   C81   A    
C69   Cl4   S    
C88   O3    D    
N7    Ni3   S    
N14   Ni4   S    
C56   N9    A    
C34   C52   A    
N12   Ni2   S    
C32   C33   A    
C19   C20   A    
C58   C59   S    
C71   C72   A    
C12   C44   S    
C83   H48   S    
C43   H17   S    
C57   H28   S    
C91   H55   S    
C11   C13   A    
C64   N6    A    
C79   C84   A    
C5    H57   S    
C76   C85   A    
C33   C35   A    
C86   O1    D    
C9    C78   A    
C45   N8    A    
C69   C70   A    
N8    N14   A    
C25   H7    S    
C10   C11   A    
C28   C34   A    
C79   C80   A    
N6    N16   A    
N3    Ni4   S    
N13   Ni1   S    
C49   H20   S    
C20   C21   A    
C8    C67   A    
C65   C66   A    
N4    Ni2   S    
C2    C8    A    
C14   C15   A    
C61   H29   S    
C82   C83   A    
C76   N7    A    
C55   C60   S    
C35   C46   S    
C67   H23   S    
C52   N5    A    
C20   C31   S    
