data_mof_unit_44156.cif
_audit_creation_date              2012-10-26T18:31:59-0400
_audit_creation_method            fapswitch 2.2
_symmetry_space_group_name_H-M    P1
_symmetry_Int_Tables_number       1
_space_group_crystal_system       triclinic
_cell_length_a                    12.444171
_cell_length_b                    13.428881
_cell_length_c                    14.895663
_cell_angle_alpha                 94.674677
_cell_angle_beta                  109.758156
_cell_angle_gamma                 117.260682
_cell_volume                      1997.66387812

loop_
_atom_site_label
_atom_site_type_symbol
_atom_type_description
_atom_site_fract_x
_atom_site_fract_y
_atom_site_fract_z
_atom_type_partial_charge
C1    C     C_R   0.648464 0.712758 0.506016 0.574191
C2    C     C_R   0.078017 0.333367 0.014025 -0.001135
C3    C     C_R   0.090148 0.425483 0.079137 -0.064500
C4    C     C_R   0.615617 0.510463 0.684404 0.552686
C5    C     C_R   0.180943 0.307017 0.043655 0.286831
C6    C     C_R   0.280119 0.357794 0.140943 -0.115912
C7    C     C_R   0.201322 0.484607 0.172644 -0.136681
C8    C     C_R   0.188956 0.960606 0.434696 -0.095767
C9    C     C_R   0.265283 0.165002 0.488503 -0.007610
C10   C     C_R   0.721570 0.921626 0.556309 -0.064737
C11   C     C_R   0.822944 0.037681 0.588345 0.320977
C12   C     C_R   0.813759 0.458295 0.916485 -0.017858
C13   C     C_R   0.942549 0.068265 0.581475 -0.041305
C14   C     C_R   0.952071 0.987102 0.522837 -0.052722
C15   C     C_R   0.842341 0.870361 0.481499 -0.018892
C16   C     C_R   0.349240 0.286569 0.490594 0.526235
C17   C     C_R   0.064269 0.018869 0.500409 -0.014646
C18   C     C_R   0.074144 0.930438 0.451061 0.012501
C19   C     C_R   0.963490 0.816224 0.409459 0.251250
C20   C     C_R   0.843490 0.792586 0.412712 0.291831
C21   C     C_R   0.161587 0.136077 0.518366 -0.099807
C22   C     C_R   0.283056 0.077009 0.452462 -0.138438
C23   C     C_R   0.787623 0.509154 0.986620 -0.007053
C24   C     C_R   0.734613 0.835636 0.509936 -0.034318
C25   C     C_R   0.266808 0.713108 0.630951 -0.133059
C26   C     C_R   0.645087 0.324465 0.382458 0.006987
C27   C     C_R   0.714457 0.269463 0.378974 0.234858
C28   C     C_R   0.377393 0.479600 0.313979 0.560520
C29   C     C_R   0.852574 0.329930 0.435055 0.264668
C30   C     C_R   0.924408 0.452738 0.480309 -0.082078
C31   C     C_R   0.847646 0.500844 0.494280 0.172885
C32   C     C_R   0.067690 0.526810 0.520035 -0.016580
C33   C     C_R   0.128798 0.642688 0.577558 -0.073340
C34   C     C_R   0.892273 0.406837 0.950276 -0.046836
C35   C     C_R   0.053870 0.687874 0.588380 -0.126593
C36   C     C_R   0.918308 0.615280 0.563809 0.320650
C37   C     C_R   0.156126 0.497431 0.500992 0.425511
C38   C     C_R   0.346004 0.670323 0.625122 0.340385
C39   C     C_R   0.674920 0.505454 0.787413 -0.014912
C40   C     C_R   0.289580 0.444693 0.206864 -0.029983
C41   C     C_R   0.695160 0.544946 0.955969 -0.134489
C42   C     C_R   0.638221 0.541543 0.857359 -0.197277
C43   C     C_R   0.766501 0.465615 0.817435 0.284981
C44   C     C_3   0.708440 0.416655 0.147674 -0.003984
C45   C     C_R   0.987855 0.452557 0.050216 -0.085527
C46   C     C_3   0.612294 0.419895 0.186450 -0.305609
C47   C     C_3   0.250535 0.286759 0.924745 0.021276
C48   C     C_3   0.251492 0.200079 0.852988 -0.353445
C49   C     C_3   0.049499 0.411040 0.332371 0.013790
C50   C     C_3   0.991912 0.298353 0.253967 -0.325388
C51   C     C_3   0.942218 0.758986 0.688603 -0.055930
C52   C     C_3   0.873510 0.776966 0.750229 -0.330244
C53   C     C_3   0.946876 0.509477 0.780872 0.009466
C54   C     C_3   0.000810 0.448888 0.734448 -0.307509
C55   C     C_3   0.646938 0.169673 0.825133 0.036568
C56   C     C_R   0.966548 0.511493 0.119001 -0.096519
C57   C     C_3   0.522115 0.097377 0.728100 -0.313134
C58   C     C_R   0.853865 0.521743 0.087119 0.300121
C59   C     C_R   0.869753 0.305279 0.891452 0.295057
C60   C     C_R   0.960568 0.267145 0.924338 0.248871
Cl1   Cl    Cl    0.969080 0.703889 0.344987 -0.587539
Cl2   Cl    Cl    0.797185 0.145317 0.633653 -0.487992
Cl3   Cl    Cl    0.693333 0.686871 0.310535 -0.539817
Cl4   Cl    Cl    0.517655 0.754960 0.702709 -0.599505
Cl5   Cl    Cl    0.921927 0.242921 0.466993 -0.544463
Cl6   Cl    Cl    0.623334 0.120694 0.312277 -0.541312
Cl7   Cl    Cl    0.913890 0.127919 0.857853 -0.505859
Cu1   Cu    Cu3+1 0.416420 0.526630 0.522910 1.068856
Cu2   Cu    Cu3+1 0.583580 0.473370 0.477090 1.057931
H1    H     H_    0.365360 0.097574 0.432515 0.168324
H2    H     H_    0.346928 0.325459 0.165620 0.135361
H3    H     H_    0.669798 0.579280 0.008832 0.191385
H4    H     H_    0.568429 0.571618 0.836832 0.183451
H5    H     H_    0.024493 0.536579 0.197659 0.132324
H6    H     H_    0.762619 0.379522 0.194429 0.133272
H7    H     H_    0.646768 0.356338 0.070434 0.103726
H8    H     H_    0.539537 0.329598 0.181483 0.085090
H9    H     H_    0.668180 0.473244 0.264949 0.241886
H10   H     H_    0.558284 0.458253 0.141632 0.178070
H11   H     H_    0.355918 0.355400 0.974292 0.109901
H12   H     H_    0.202561 0.895190 0.401313 0.187875
H13   H     H_    0.199227 0.327672 0.880265 0.142929
H14   H     H_    0.147600 0.130457 0.802190 0.183743
H15   H     H_    0.302980 0.245740 0.807963 0.085768
H16   H     H_    0.304963 0.159673 0.895018 0.152747
H17   H     H_    0.122639 0.485790 0.318515 0.140543
H18   H     H_    0.967159 0.426133 0.325176 0.122469
H19   H     H_    0.919762 0.223075 0.269630 0.227180
H20   H     H_    0.938162 0.302484 0.179322 0.095695
H21   H     H_    0.072908 0.283914 0.254028 0.168201
H22   H     H_    0.961678 0.826258 0.647938 0.122834
H23   H     H_    0.152915 0.206201 0.548673 0.175437
H24   H     H_    0.038425 0.773291 0.743239 0.105499
H25   H     H_    0.870934 0.723361 0.803126 0.140352
H26   H     H_    0.930582 0.870143 0.793860 0.158531
H27   H     H_    0.770757 0.753683 0.702380 0.201859
H28   H     H_    0.008462 0.541535 0.862449 0.103327
H29   H     H_    0.964171 0.587747 0.756124 0.164761
H30   H     H_    0.933047 0.403866 0.654780 0.226718
H31   H     H_    0.101370 0.513961 0.741661 0.085049
H32   H     H_    0.009251 0.383547 0.772558 0.190260
H33   H     H_    0.627752 0.224365 0.870391 0.091663
H34   H     H_    0.634960 0.898713 0.571110 0.192790
H35   H     H_    0.665308 0.108927 0.865716 0.173613
H36   H     H_    0.536213 0.039125 0.681989 0.216148
H37   H     H_    0.435343 0.042984 0.743959 0.071523
H38   H     H_    0.501154 0.155837 0.686009 0.167574
H39   H     H_    0.023828 0.157144 0.618819 0.150624
H40   H     H_    0.218466 0.559987 0.220845 0.135364
H41   H     H_    0.107123 0.779840 0.626646 0.085572
H42   H     H_    0.312683 0.799324 0.680228 0.130274
H43   H     H_    0.537337 0.275901 0.344301 0.154342
N1    N     N_R   0.290690 0.566960 0.557640 -0.226184
N2    N     N_R   0.709100 0.433710 0.442970 -0.268441
O1    O     O_R   0.545970 0.684450 0.528810 -0.476102
O2    O     O_3   0.183395 0.227414 0.980695 -0.502975
O3    O     O_3   0.112923 0.401472 0.426631 -0.479428
O4    O     O_3   0.861847 0.644663 0.620466 -0.512630
O5    O     O_3   0.807731 0.433367 0.750264 -0.472289
O6    O     O_3   0.755751 0.239304 0.803482 -0.436867
O7    O     O_R   0.687130 0.639470 0.490120 -0.419150
O8    O     O_R   0.519670 0.535100 0.660030 -0.487180
O9    O     O_R   0.660830 0.490120 0.621340 -0.396808
O10   O     O_R   0.312870 0.360530 0.509880 -0.460887
O11   O     O_R   0.454030 0.315550 0.471190 -0.523821
O12   O     O_R   0.339170 0.509880 0.378660 -0.501268
O13   O     O_R   0.480330 0.464900 0.339970 -0.497989
O14   O     O_3   0.800190 0.531419 0.151978 -0.481616

loop_
_geom_bond_atom_site_label_1
_geom_bond_atom_site_label_2
_ccdc_geom_bond_type
C23   C58   A    
C57   H36   S    
C58   O14   S    
C59   O6    S    
C26   H43   S    
C27   C29   A    
C41   C42   A    
C49   H18   S    
C54   H32   S    
C19   C20   A    
C11   Cl2   S    
Cu1   O10   S    
C53   C54   S    
C55   H33   S    
C26   C27   A    
C5    C6    A    
C10   H34   S    
C9    C16   S    
C12   C43   A    
C3    C7    A    
C46   H10   S    
C2    C60   A    
C9    C22   A    
C37   N1    A    
C28   C40   S    
C51   O4    S    
C52   H26   S    
C18   C19   A    
C47   H13   S    
C8    H12   S    
C44   H7    S    
C51   H22   S    
C50   H21   S    
C49   O3    S    
C35   C36   A    
C60   Cl7   S    
C44   C46   S    
Cu1   Cu2   S    
C8    C22   A    
C7    C40   A    
C52   H25   S    
C36   O4    S    
C16   O11   A    
C31   N2    A    
C28   O13   A    
C50   H19   S    
Cu1   N1    S    
C57   H37   S    
Cu2   O11   S    
C59   C60   A    
C13   C14   A    
C14   C17   A    
C54   H31   S    
C47   O2    S    
C47   H11   S    
C13   H39   S    
C28   O12   A    
C39   C42   A    
C38   Cl4   S    
C55   O6    S    
C15   C20   A    
Cu2   N2    S    
C56   H5    S    
C51   C52   S    
C45   C56   A    
Cu1   O8    S    
C46   H9    S    
C38   N1    A    
C39   C43   A    
C10   C24   A    
C55   H35   S    
C3    C45   A    
C8    C18   A    
C48   H15   S    
C4    O9    A    
C44   H6    S    
C26   N2    A    
C29   C30   A    
C25   C38   A    
C50   H20   S    
C47   C48   S    
C12   C23   A    
C4    C39   S    
Cu2   O7    S    
C17   C18   A    
C4    O8    A    
C34   C45   A    
C32   C37   A    
C35   H41   S    
C51   H24   S    
C41   H3    S    
C29   Cl5   S    
C15   C24   A    
C57   H38   S    
C55   C57   S    
C5    O2    S    
C34   C59   A    
C6    C40   A    
C54   H30   S    
C2    C5    A    
C12   C34   A    
Cu1   O12   S    
C44   O14   S    
C42   H4    S    
C14   C15   A    
C49   H17   S    
C48   H16   S    
C6    H2    S    
C46   H8    S    
C53   O5    S    
C53   H29   S    
C23   C41   A    
C48   H14   S    
C53   H28   S    
C32   C33   A    
C20   Cl3   S    
C2    C3    A    
C16   O10   A    
C27   Cl6   S    
C30   C32   A    
C11   C13   A    
C9    C21   A    
C30   C31   A    
C19   Cl1   S    
C33   C35   A    
C56   C58   A    
C52   H27   S    
C1    O7    A    
C10   C11   A    
C25   H42   S    
Cu1   O1    S    
C7    H40   S    
C37   O3    S    
Cu2   O13   S    
C1    C24   S    
C49   C50   S    
C43   O5    S    
Cu2   O9    S    
C31   C36   A    
C1    O1    A    
C22   H1    S    
C25   C33   A    
C21   H23   S    
C17   C21   A    
