data_mof_unit_41295.cif
_audit_creation_date              2012-12-10T17:25:14-0500
_audit_creation_method            fapswitch 2.2
_symmetry_space_group_name_H-M    P1
_symmetry_Int_Tables_number       1
_space_group_crystal_system       triclinic
_cell_length_a                    27.821284
_cell_length_b                    10.858259
_cell_length_c                    9.569303
_cell_angle_alpha                 89.070405
_cell_angle_beta                  90.000185
_cell_angle_gamma                 92.525973
_cell_volume                      2887.60782299

loop_
_atom_site_label
_atom_site_type_symbol
_atom_type_description
_atom_site_fract_x
_atom_site_fract_y
_atom_site_fract_z
_atom_type_partial_charge
Br1   Br    Br    0.431834 0.833590 0.031246 -0.539084
C1    C     C_R   0.501569 0.261964 0.502489 0.812196
C2    C     C_R   0.972469 0.395963 0.464185 0.042618
C3    C     C_R   0.976442 0.613930 0.535591 0.043213
C4    C     C_R   0.407500 0.499977 0.499988 0.808967
C5    C     C_R   0.949216 0.505124 0.499867 0.068031
C6    C     C_R   0.943506 0.288871 0.435298 -0.205240
C7    C     C_R   0.893630 0.290157 0.436739 -0.144497
C8    C     C_R   0.870484 0.397814 0.467723 -0.021366
C9    C     C_R   0.898081 0.505470 0.499837 -0.043824
C10   C     C_R   0.874393 0.613454 0.531939 -0.019779
C11   C     C_R   0.823890 0.611829 0.531189 0.533270
C12   C     C_R   0.278868 0.499551 0.373472 -0.093243
C13   C     C_R   0.820067 0.400063 0.468406 0.534866
C14   C     C_R   0.721264 0.513029 0.625987 -0.102395
C15   C     C_R   0.671117 0.511296 0.626272 -0.223211
C16   C     C_R   0.496024 0.736664 0.499511 0.785879
C17   C     C_R   0.670903 0.497177 0.373410 -0.219992
C18   C     C_R   0.721037 0.498500 0.373511 -0.103459
C19   C     C_R   0.746358 0.506236 0.499724 0.358619
C20   C     C_R   0.023577 0.396987 0.459384 0.042589
C21   C     C_R   0.050783 0.504401 0.499921 0.068593
C22   C     C_R   0.027508 0.612185 0.540420 0.041786
C23   C     C_R   0.253701 0.502776 0.500008 0.347718
C24   C     C_R   0.048711 0.294146 0.414398 -0.205759
C25   C     C_R   0.106272 0.712646 0.586230 -0.140609
C26   C     C_R   0.951379 0.721370 0.564521 -0.205554
C27   C     C_R   0.901458 0.720762 0.563007 -0.146925
C28   C     C_R   0.592502 0.500881 0.500001 0.780135
C29   C     C_R   0.056402 0.714641 0.585385 -0.204768
C30   C     C_R   0.496375 0.107099 0.772897 -0.227468
C31   C     C_R   0.479011 0.040281 0.889325 -0.193073
C32   C     C_R   0.457895 0.923244 0.873122 0.316573
C33   C     C_R   0.457968 0.869143 0.742276 -0.172926
C34   C     C_R   0.101919 0.504017 0.499957 -0.043378
C35   C     C_R   0.480147 0.930991 0.625909 0.045716
C36   C     C_R   0.493012 0.057550 0.636303 0.104321
C37   C     C_R   0.502123 0.126881 0.509740 -0.107932
C38   C     C_R   0.506929 0.065176 0.383345 -0.199512
C39   C     C_R   0.503405 0.938097 0.379986 -0.169219
C40   C     C_R   0.176131 0.400640 0.457848 0.536296
C41   C     C_R   0.490957 0.869899 0.500627 -0.090409
C42   C     C_R   0.563130 0.665783 0.141731 -0.148130
C43   C     C_R   0.593811 0.747470 0.068129 -0.208992
C44   C     C_R   0.594098 0.747116 0.924193 -0.196806
C45   C     C_R   0.125640 0.399166 0.456950 -0.020842
C46   C     C_R   0.563651 0.665221 0.853044 -0.145186
C47   C     C_R   0.531191 0.581398 0.923751 0.222147
C48   C     C_R   0.531068 0.581522 0.073522 0.236273
C49   C     C_R   0.470348 0.422615 0.075393 -0.044734
C50   C     C_R   0.470321 0.422757 0.927305 -0.073006
C51   C     C_R   0.179909 0.606207 0.542187 0.539721
C52   C     C_R   0.278991 0.505189 0.626536 -0.093422
C53   C     C_R   0.329094 0.504211 0.626693 -0.206645
C54   C     C_R   0.328970 0.498658 0.373302 -0.190223
C55   C     C_R   0.098632 0.295385 0.413649 -0.143818
C56   C     C_R   0.129479 0.608474 0.543004 -0.023151
C57   C     C_R   0.354565 0.500867 0.499996 -0.048210
C58   C     C_R   0.645460 0.503015 0.499922 -0.036546
Cu1   Cu    Cu3+1 0.500000 0.499990 0.640660 0.933106
Cu2   Cu    Cu3+1 0.500000 0.500010 0.359340 0.956694
H1    H     H_    0.347589 0.496182 0.274068 0.170679
H2    H     H_    0.514711 0.193692 0.795594 0.185489
H3    H     H_    0.481639 0.080349 0.992110 0.156032
H4    H     H_    0.259537 0.498019 0.275256 0.146851
H5    H     H_    0.440261 0.779013 0.733136 0.185216
H6    H     H_    0.510952 0.893234 0.282584 0.190069
H7    H     H_    0.446082 0.359186 0.131967 0.140805
H8    H     H_    0.566337 0.672821 0.251722 0.195337
H9    H     H_    0.617775 0.811019 0.123524 0.159343
H10   H     H_    0.618314 0.810346 0.866891 0.161252
H11   H     H_    0.567462 0.671894 0.742916 0.199331
H12   H     H_    0.259743 0.507349 0.724759 0.146863
H13   H     H_    0.446036 0.359462 0.872932 0.145257
H14   H     H_    0.116012 0.214060 0.378498 0.189270
H15   H     H_    0.652516 0.516437 0.725288 0.161067
H16   H     H_    0.740675 0.518881 0.723906 0.140990
H17   H     H_    0.873223 0.205668 0.413517 0.189058
H18   H     H_    0.958079 0.201139 0.413120 0.138727
H19   H     H_    0.031021 0.211103 0.376626 0.139912
H20   H     H_    0.347811 0.506069 0.725920 0.168421
H21   H     H_    0.126627 0.793694 0.621381 0.190897
H22   H     H_    0.969149 0.808857 0.586812 0.138358
H23   H     H_    0.652135 0.491158 0.274430 0.162347
H24   H     H_    0.884126 0.805488 0.586251 0.187075
H25   H     H_    0.740281 0.493560 0.275542 0.140761
H26   H     H_    0.041750 0.797950 0.623046 0.140506
H27   H     H_    0.514713 0.115154 0.286468 0.164897
N1    N     N_R   0.202136 0.503236 0.500016 -0.468796
N2    N     N_R   0.797893 0.506096 0.499742 -0.468790
N3    N     N_R   0.500460 0.501210 0.147910 -0.195274
N4    N     N_R   0.500480 0.501290 0.852040 -0.202336
O1    O     O_R   0.500000 0.319640 0.618810 -0.594176
O2    O     O_R   0.569730 0.499970 0.618800 -0.603534
O3    O     O_R   0.569740 0.499990 0.381230 -0.604501
O4    O     O_2   0.199079 0.300003 0.418042 -0.530295
O5    O     O_2   0.793372 0.296942 0.438917 -0.534773
O6    O     O_2   0.206550 0.706430 0.582070 -0.525346
O7    O     O_2   0.800921 0.715201 0.560741 -0.537473
O8    O     O_R   0.500000 0.319660 0.381240 -0.582424
O9    O     O_R   0.430260 0.500010 0.618770 -0.583902
O10   O     O_R   0.430270 0.500030 0.381200 -0.568130
O11   O     O_R   0.500000 0.680340 0.618760 -0.609616
O12   O     O_R   0.500000 0.680360 0.381190 -0.581432

loop_
_geom_bond_atom_site_label_1
_geom_bond_atom_site_label_2
_ccdc_geom_bond_type
C40   N1    A    
C44   H10   S    
C24   H19   S    
C35   C41   A    
C18   C19   A    
C50   H13   S    
C42   C43   A    
C18   H25   S    
C23   N1    S    
C33   H5    S    
Br1   C32   S    
C6    C7    A    
C12   H4    S    
C52   C53   A    
C21   C34   A    
C4    C57   S    
C11   N2    A    
C35   C36   A    
C16   O12   A    
C2    C6    A    
C28   O2    A    
C40   O4    S    
C14   C15   A    
C54   H1    S    
C17   C18   A    
C16   C41   S    
C13   N2    A    
C11   O7    S    
C30   C31   A    
C7    C8    A    
C39   H6    S    
C17   H23   S    
C40   C45   A    
C24   C55   A    
C43   H9    S    
Cu1   O11   S    
C8    C9    A    
Cu1   N4    S    
Cu1   O1    S    
C2    C5    A    
C39   C41   A    
C14   H16   S    
C1    O8    A    
C42   H8    S    
C55   H14   S    
C20   C21   A    
C7    H17   S    
C51   N1    A    
C38   H27   S    
C48   N3    A    
C49   C50   A    
C44   C46   A    
C14   C19   A    
C4    O9    A    
C22   C29   A    
C30   H2    S    
Cu2   O12   S    
C31   H3    S    
C3    C5    A    
C51   C56   A    
C38   C39   A    
C28   O3    A    
C3    C22   A    
C42   C48   A    
C23   C52   A    
C19   N2    S    
C30   C36   A    
C12   C23   A    
Cu1   Cu2   S    
C15   C58   A    
C8    C13   A    
C36   C37   A    
C50   N4    A    
C1    C37   S    
C46   C47   A    
C32   C33   A    
C17   C58   A    
C47   C48   A    
C25   C29   A    
C2    C20   A    
Cu2   O8    S    
Cu1   O9    S    
C26   C27   A    
C3    C26   A    
C43   C44   A    
C13   O5    S    
C6    H18   S    
C53   C57   A    
C20   C24   A    
C4    O10   A    
C15   H15   S    
C1    O1    A    
C52   H12   S    
C5    C9    A    
C10   C11   A    
Cu2   O3    S    
C34   C56   A    
C31   C32   A    
C26   H22   S    
Cu2   O10   S    
C16   O11   A    
C37   C38   A    
C10   C27   A    
C51   O6    S    
C33   C35   A    
C25   C56   A    
C46   H11   S    
C9    C10   A    
C49   N3    A    
C25   H21   S    
C47   N4    A    
C54   C57   A    
C45   C55   A    
C27   H24   S    
C28   C58   S    
C21   C22   A    
C29   H26   S    
C34   C45   A    
C49   H7    S    
C53   H20   S    
Cu2   N3    S    
C12   C54   A    
Cu1   O2    S    
