data_mof_unit_45439.cif
_audit_creation_date              2012-12-11T15:55:41-0500
_audit_creation_method            fapswitch 2.2
_symmetry_space_group_name_H-M    P1
_symmetry_Int_Tables_number       1
_space_group_crystal_system       triclinic
_cell_length_a                    11.011885
_cell_length_b                    11.099288
_cell_length_c                    18.712438
_cell_angle_alpha                 90.817818
_cell_angle_beta                  91.285292
_cell_angle_gamma                 59.295177
_cell_volume                      1965.97358353

loop_
_atom_site_label
_atom_site_type_symbol
_atom_type_description
_atom_site_fract_x
_atom_site_fract_y
_atom_site_fract_z
_atom_type_partial_charge
C1    C     C_R   0.384025 0.713647 0.389422 0.545616
C2    C     C_R   0.635242 0.114405 0.172291 0.030262
C3    C     C_R   0.368535 0.326899 0.161152 0.011728
C4    C     C_R   0.478305 0.233831 0.275062 -0.152921
C5    C     C_R   0.490067 0.225494 0.200966 -0.025559
C6    C     C_R   0.058886 0.634881 0.352732 -0.081309
C7    C     C_R   0.925668 0.706359 0.382655 -0.117135
C8    C     C_R   0.662083 0.999933 0.126426 -0.074894
C9    C     C_R   0.798734 0.895336 0.108880 -0.130338
C10   C     C_R   0.254377 0.438447 0.196448 -0.164674
C11   C     C_R   0.239512 0.440303 0.270294 -0.050216
C12   C     C_R   0.382940 0.353614 0.387799 0.536269
C13   C     C_R   0.817437 0.693966 0.351696 -0.081976
C14   C     C_R   0.839579 0.622388 0.287321 -0.096921
C15   C     C_R   0.976417 0.539785 0.261736 -0.104519
C16   C     C_R   0.092070 0.535932 0.297729 0.004095
C17   C     C_R   0.358459 0.339139 0.311062 0.001490
C18   C     C_R   0.865666 0.330216 0.183483 0.019864
C19   C     C_R   0.960341 0.236059 0.233996 0.010271
C20   C     C_R   0.929656 0.249438 0.304825 -0.007566
C21   C     C_R   0.694789 0.433806 0.276988 -0.161858
C22   C     C_R   0.726543 0.422792 0.204019 -0.180610
C23   C     C_R   0.772485 0.380822 0.402270 0.543316
C24   C     C_3   0.113290 0.175719 0.248974 -0.279012
C25   C     C_3   0.077751 0.194883 0.328301 -0.290875
C26   C     C_R   0.803015 0.358028 0.328018 0.038872
C27   C     C_R   0.375206 0.808239 0.168288 0.008392
C28   C     C_R   0.460908 0.829575 0.217518 -0.015642
C29   C     C_R   0.457469 0.805245 0.289923 0.016921
C30   C     C_R   0.316526 0.702878 0.263966 -0.182935
C31   C     C_R   0.317648 0.728330 0.191349 -0.150635
C32   C     C_3   0.469377 0.956163 0.234841 -0.287786
C33   C     C_3   0.450838 0.937566 0.312403 -0.263338
C34   C     C_R   0.342385 0.772697 0.603430 0.544330
C35   C     C_R   0.378281 0.749890 0.314561 0.003755
C36   C     C_R   0.309262 0.328628 0.815444 0.043381
C37   C     C_R   0.442990 0.270302 0.785989 0.053166
C38   C     C_R   0.456361 0.271630 0.714188 -0.034805
C39   C     C_R   0.204610 0.406925 0.696466 -0.163296
C40   C     C_R   0.188909 0.404312 0.770596 -0.146902
C41   C     C_3   0.581803 0.133971 0.793152 0.247093
C42   C     C_3   0.591119 0.134189 0.712456 -0.194833
C43   C     C_R   0.340210 0.332625 0.667607 -0.004551
C44   C     C_R   0.814747 0.324867 0.835984 0.029520
C45   C     C_R   0.369831 0.349537 0.595167 0.548516
C46   C     C_R   0.728088 0.456478 0.805453 -0.012503
C47   C     C_R   0.715172 0.470723 0.732497 0.036273
C48   C     C_R   0.859756 0.221407 0.716489 -0.185323
C49   C     C_R   0.870477 0.205899 0.790855 -0.181977
C50   C     C_3   0.717136 0.595924 0.815749 -0.182700
C51   C     C_3   0.704241 0.610507 0.735105 0.262103
C52   C     C_R   0.789328 0.355853 0.686914 0.053151
C53   C     C_R   0.246365 0.932722 0.815107 0.018329
C54   C     C_R   0.188242 0.859233 0.783790 0.013210
C55   C     C_R   0.211755 0.819588 0.713561 -0.008302
C56   C     C_R   0.760937 0.378854 0.611095 0.550984
C57   C     C_R   0.344172 0.935171 0.699207 -0.161333
C58   C     C_R   0.313749 0.981807 0.770547 -0.137881
C59   C     C_3   0.192582 0.727899 0.805596 0.043563
C60   C     C_3   0.215415 0.685825 0.727357 -0.216904
C61   C     C_R   0.300952 0.844313 0.672086 0.005260
C62   C     C_R   0.911000 0.315669 0.111178 0.550257
C63   C     C_R   0.332432 0.294556 0.090915 0.552747
C64   C     C_R   0.311351 0.894900 0.104296 0.549929
C65   C     C_R   0.879785 0.309997 0.905864 0.550703
C66   C     C_R   0.295012 0.288734 0.885907 0.564948
C67   C     C_R   0.914218 0.894252 0.140457 -0.077849
C68   C     C_R   0.235640 0.959297 0.891664 0.573751
C69   C     C_R   0.892925 0.996880 0.190204 -0.079728
C70   C     C_R   0.755839 0.105763 0.205256 -0.104344
Cr1   Cr    Cr6+3 0.601740 0.606840 0.505840 1.031241
Cr2   Cr    Cr6+3 0.291500 0.601560 0.495070 0.995832
Cr3   Cr    Cr6+3 0.606780 0.291630 0.499130 1.005713
Cr4   Cr    Cr6+3 0.062440 0.063060 0.008240 1.032841
Cr5   Cr    Cr6+3 0.062950 0.375000 0.998920 1.011283
Cr6   Cr    Cr6+3 0.374550 0.061770 0.992470 1.052517
H1    H     H_    0.568152 0.154675 0.305314 0.146639
H2    H     H_    0.717164 0.741040 0.377291 0.138914
H3    H     H_    0.751135 0.629625 0.258020 0.135792
H4    H     H_    0.991513 0.480318 0.213370 0.137574
H5    H     H_    0.589051 0.504106 0.294002 0.123142
H6    H     H_    0.645708 0.487849 0.165148 0.135520
H7    H     H_    0.154346 0.241640 0.229348 0.139019
H8    H     H_    0.172396 0.064227 0.232453 0.149714
H9    H     H_    0.119141 0.094927 0.357881 0.147152
H10   H     H_    0.093905 0.275854 0.355054 0.155571
H11   H     H_    0.263304 0.651207 0.280824 0.129963
H12   H     H_    0.814850 0.809746 0.074102 0.114216
H13   H     H_    0.259957 0.699065 0.154496 0.133687
H14   H     H_    0.384814 0.053392 0.209716 0.148691
H15   H     H_    0.578592 0.932148 0.228686 0.144888
H16   H     H_    0.538315 0.927480 0.346504 0.129532
H17   H     H_    0.347453 0.016485 0.333271 0.147896
H18   H     H_    0.112345 0.464325 0.662118 0.184027
H19   H     H_    0.083448 0.453006 0.791876 0.176347
H20   H     H_    0.663953 0.145880 0.822273 0.136702
H21   H     H_    0.680050 0.143163 0.693239 0.123164
H22   H     H_    0.905829 0.773789 0.428660 0.107061
H23   H     H_    0.578276 0.051416 0.685376 0.173279
H24   H     H_    0.909455 0.129388 0.682480 0.128797
H25   H     H_    0.933795 0.101549 0.812554 0.137887
H26   H     H_    0.814759 0.590315 0.837133 0.188761
H27   H     H_    0.618512 0.672532 0.843220 0.160618
H28   H     H_    0.601092 0.696999 0.715420 0.148417
H29   H     H_    0.405285 0.964622 0.666995 0.134340
H30   H     H_    0.347907 0.050364 0.791781 0.201332
H31   H     H_    0.089610 0.747772 0.825579 0.153181
H32   H     H_    0.019605 0.809941 0.128909 0.117384
H33   H     H_    0.320212 0.592430 0.715823 0.170438
H34   H     H_    0.123432 0.686101 0.701556 0.148857
H35   H     H_    0.983182 0.989219 0.218489 0.129883
H36   H     H_    0.742969 0.179025 0.246693 0.130772
H37   H     H_    0.131083 0.663859 0.371064 0.182744
H38   H     H_    0.582678 0.975832 0.110584 0.171850
H39   H     H_    0.166144 0.517807 0.165209 0.129721
O1    O     O_R   0.748670 0.497520 0.427970 -0.522598
O2    O     O_R   0.300170 0.471020 0.567120 -0.500753
O3    O     O_R   0.491630 0.259030 0.574940 -0.517840
O4    O     O_R   0.718640 0.304340 0.577850 -0.515966
O5    O     O_3   0.500010 0.500010 0.500020 -0.274064
O6    O     O_R   0.186620 0.923750 0.087000 -0.517567
O7    O     O_R   0.957350 0.194160 0.084660 -0.485994
O8    O     O_R   0.935120 0.407280 0.085350 -0.529113
O9    O     O_R   0.203800 0.365060 0.067090 -0.504642
O10   O     O_R   0.417470 0.174910 0.067830 -0.535956
O11   O     O_R   0.375160 0.946380 0.070880 -0.514224
O12   O     O_R   0.476470 0.723930 0.429450 -0.503599
O13   O     O_R   0.160500 0.919670 0.926690 -0.481688
O14   O     O_R   0.933140 0.190380 0.936050 -0.523458
O15   O     O_R   0.909010 0.403210 0.925030 -0.526377
O16   O     O_R   0.179590 0.361290 0.918480 -0.508701
O17   O     O_R   0.391360 0.170840 0.907510 -0.458456
O18   O     O_R   0.350950 0.942600 0.922260 -0.464240
O19   O     O_3   0.166650 0.166610 0.999880 -0.292445
O20   O     O_R   0.264730 0.744140 0.416740 -0.547743
O21   O     O_R   0.309440 0.472410 0.418220 -0.531524
O22   O     O_R   0.501630 0.260530 0.414310 -0.526247
O23   O     O_R   0.727920 0.305730 0.428950 -0.506185
O24   O     O_R   0.738670 0.496020 0.588600 -0.462044
O25   O     O_R   0.467190 0.722540 0.578350 -0.499958
O26   O     O_R   0.254720 0.742640 0.577370 -0.510907
F1    F     F_    0.573204 0.020581 0.815714 -0.636741
F2    F     F_    0.820151 0.607383 0.705678 -0.641843
Br1   Br    Br    0.356258 0.605425 0.865455 -0.550140

loop_
_geom_bond_atom_site_label_1
_geom_bond_atom_site_label_2
_ccdc_geom_bond_type
C44   C49   A    
C45   O3    A    
C7    C13   A    
C57   H29   S    
C21   C26   A    
C34   O26   A    
Cr3   O4    S    
C7    H22   S    
Cr6   O11   S    
C41   C42   S    
C23   O23   A    
C19   C20   A    
C41   F1    S    
C65   O15   A    
Cr5   O19   S    
C39   H18   S    
C53   C54   A    
C20   C26   A    
Cr1   O5    S    
Cr5   O8    S    
C22   H6    S    
C21   C22   A    
C68   O18   A    
C24   H7    S    
C38   C42   S    
C9    H12   S    
C49   H25   S    
C30   C31   A    
C36   C66   S    
C67   H32   S    
Cr2   O21   S    
C32   H15   S    
C20   C25   S    
C64   O6    A    
C29   C33   S    
C18   C19   A    
C23   C26   S    
C53   C68   S    
C60   H33   S    
C23   O1    A    
C46   C47   A    
Cr4   O13   S    
Cr5   O16   S    
C8    C9    A    
C31   H13   S    
Cr2   O2    S    
C68   O13   A    
Cr5   O15   S    
C8    H38   S    
C50   H27   S    
Cr3   O5    S    
C13   C14   A    
Cr6   O10   S    
Cr1   O12   S    
C44   C65   S    
C62   O8    A    
C44   C46   A    
C63   O9    A    
C66   O17   A    
C54   C59   S    
C39   C43   A    
Cr2   O26   S    
C48   H24   S    
C32   H14   S    
C15   C16   A    
C27   C31   A    
Cr5   O9    S    
C28   C32   S    
C24   C25   S    
C10   C11   A    
C42   H21   S    
C39   C40   A    
C56   O24   A    
Cr6   O19   S    
C18   C62   S    
Cr2   O20   S    
Cr1   O24   S    
C51   H28   S    
C34   C61   S    
C59   H31   S    
C33   H17   S    
C58   H30   S    
C12   C17   S    
C47   C52   A    
C9    C67   A    
C6    H37   S    
C37   C38   A    
C11   C16   S    
C65   O14   A    
C15   H4    S    
C14   C15   A    
C36   C40   A    
C53   C58   A    
Cr2   O5    S    
C25   H9    S    
C50   C51   S    
C59   C60   S    
C14   H3    S    
C43   C45   S    
C63   O10   A    
C70   H36   S    
C4    C17   A    
C30   C35   A    
C48   C49   A    
Cr4   O7    S    
C21   H5    S    
C59   Br1   S    
C50   H26   S    
C64   O11   A    
C12   O21   A    
C56   O4    A    
C38   C43   A    
C33   H16   S    
C2    C5    S    
C55   C61   A    
C40   H19   S    
C62   O7    A    
C51   F2    S    
C1    C35   S    
C66   O16   A    
C45   O2    A    
C46   C50   S    
C54   C55   A    
C28   C29   A    
Cr1   O25   S    
Cr3   O3    S    
C18   C22   A    
C2    C8    A    
C1    O12   A    
C4    C5    A    
C3    C5    A    
C11   C17   A    
C47   C51   S    
Cr6   O18   S    
C57   C61   A    
C6    C7    A    
C3    C63   S    
C29   C35   A    
C32   C33   S    
C19   C24   S    
C24   H8    S    
C4    H1    S    
C3    C10   A    
C2    C70   A    
C42   H23   S    
Cr6   O17   S    
C57   C58   A    
Cr3   O22   S    
Cr4   O19   S    
C34   O25   A    
C25   H10   S    
Cr1   O1    S    
C37   C41   S    
C69   C70   A    
C69   H35   S    
C60   H34   S    
C27   C64   S    
C13   H2    S    
C6    C16   A    
C41   H20   S    
C48   C52   A    
Cr4   O6    S    
C36   C37   A    
Cr3   O23   S    
Cr4   O14   S    
C1    O20   A    
C27   C28   A    
C12   O22   A    
C67   C69   A    
C30   H11   S    
C55   C60   S    
C10   H39   S    
C52   C56   S    
