data_mof_unit_11101.cif
_audit_creation_date              2013-03-05T16:44:16-0500
_audit_creation_method            fapswitch 2.2
_symmetry_space_group_name_H-M    P1
_symmetry_Int_Tables_number       1
_space_group_crystal_system       triclinic
_cell_length_a                    23.345182
_cell_length_b                    10.66367
_cell_length_c                    9.864526
_cell_angle_alpha                 90.326407
_cell_angle_beta                  89.79672
_cell_angle_gamma                 90.254231
_cell_volume                      2455.64829089

loop_
_atom_site_label
_atom_site_type_symbol
_atom_site_description
_atom_site_fract_x
_atom_site_fract_y
_atom_site_fract_z
_atom_type_partial_charge
O1    O     O_R   0.500010 0.316790 0.614690 -0.596273
O2    O     O_R   0.500000 0.316760 0.385350 -0.651072
C1    C     C_R   0.505308 0.260185 0.498731 0.873957
O3    O     O_R   0.416160 0.499980 0.614700 -0.589287
O4    O     O_R   0.416150 0.499940 0.385360 -0.613724
C2    C     C_R   0.389450 0.502108 0.500368 0.910798
Zn1   Zn    Zn3+2 0.500000 0.500020 0.653130 1.026909
Zn2   Zn    Zn3+2 0.500000 0.499980 0.346870 0.971343
O5    O     O_R   0.500000 0.683240 0.614650 -0.601164
O6    O     O_R   0.499990 0.683210 0.385310 -0.622000
O7    O     O_R   0.583850 0.500060 0.614640 -0.612078
O8    O     O_R   0.583840 0.500020 0.385300 -0.643224
C3    C     C_R   0.502316 0.740168 0.500157 0.917885
C4    C     C_R   0.610581 0.498669 0.499743 0.834294
C5    C     C_R   0.880606 0.617629 0.426446 0.501031
N1    N     N_R   0.852028 0.539714 0.512924 -0.369363
C6    C     C_R   0.879854 0.468386 0.606210 0.519901
C7    C     C_R   0.939661 0.470297 0.612040 -0.062219
C8    C     C_R   0.970207 0.546538 0.521076 -0.012821
C9    C     C_R   0.940416 0.622384 0.428257 -0.016260
C10   C     C_R   0.969112 0.394317 0.703150 -0.115039
C11   C     C_R   0.029024 0.389923 0.703621 -0.035453
C12   C     C_R   0.060585 0.468820 0.613699 -0.105100
C13   C     C_R   0.030491 0.546077 0.521590 -0.005320
C14   C     C_R   0.060452 0.622428 0.428400 -0.013674
C15   C     C_R   0.030358 0.698663 0.337829 -0.139391
C16   C     C_R   0.970873 0.698783 0.337896 -0.135270
C17   C     C_R   0.120971 0.475925 0.612067 0.506497
N2    N     N_R   0.148614 0.546618 0.516801 -0.352769
C18   C     C_R   0.120077 0.619543 0.426715 0.525273
O9    O     O_2   0.851124 0.688407 0.337942 -0.527023
O10   O     O_2   0.849573 0.394553 0.691327 -0.517267
H1    H     H_    0.945261 0.333572 0.770926 0.224676
O11   O     O_2   0.152362 0.414843 0.704936 -0.536647
O12   O     O_2   0.149603 0.689244 0.336215 -0.527011
H2    H     H_    0.052670 0.757969 0.265956 0.203430
H3    H     H_    0.948892 0.757853 0.266016 0.204255
C19   C     C_R   0.242761 0.601962 0.606104 -0.039779
H4    H     H_    0.222759 0.658006 0.684812 0.167464
C20   C     C_R   0.301886 0.589513 0.602622 -0.087409
H5    H     H_    0.327530 0.638180 0.677784 0.212730
C21   C     C_R   0.327674 0.515244 0.502034 -0.053157
C22   C     C_R   0.294228 0.455807 0.403104 -0.173636
H6    H     H_    0.313674 0.397519 0.325765 0.157936
C23   C     C_R   0.235051 0.468311 0.406672 -0.073743
H7    H     H_    0.208971 0.420237 0.331961 0.160461
C24   C     C_R   0.209401 0.540594 0.508721 0.276095
C25   C     C_R   0.766524 0.438656 0.415157 -0.015625
C26   C     C_R   0.706053 0.427692 0.410937 -0.078694
C27   C     C_R   0.672868 0.502881 0.499890 -0.126609
C28   C     C_R   0.699000 0.588382 0.588278 -0.183793
H8    H     H_    0.673601 0.646714 0.655602 0.159399
C29   C     C_R   0.757786 0.602410 0.588173 -0.049342
H9    H     H_    0.777628 0.669466 0.656445 0.159072
C30   C     C_R   0.791390 0.528761 0.502629 0.198721
C31   C     C_R   0.528954 0.064897 0.614694 0.045823
C32   C     C_R   0.520640 0.129591 0.493873 -0.192362
C33   C     C_R   0.525607 0.061788 0.369449 -0.058912
C34   C     C_R   0.521570 0.931662 0.373964 -0.147809
H10   H     H_    0.521230 0.878779 0.279776 0.207565
C35   C     C_R   0.514583 0.870899 0.498393 -0.094465
C36   C     C_R   0.525189 0.937177 0.617128 -0.029559
C37   C     C_3   0.499962 0.934705 0.757029 0.067219
C38   C     C_3   0.504898 0.077772 0.754834 0.079604
H11   H     H_    0.527798 0.887030 0.832017 0.159727
H12   H     H_    0.463430 0.128142 0.758771 0.146539
C39   C     C_R   0.450115 0.484970 0.071819 0.207261
N3    N     N_R   0.499610 0.499140 0.142800 -0.120325
C40   C     C_R   0.548504 0.526222 0.071653 -0.080194
H13   H     H_    0.587913 0.545329 0.125286 0.166477
C41   C     C_R   0.548506 0.526312 0.927810 -0.023863
H14   H     H_    0.587929 0.545386 0.873815 0.155323
N4    N     N_R   0.499610 0.499180 0.857150 -0.124745
C42   C     C_R   0.449830 0.486614 0.929133 0.210457
C43   C     C_3   0.409630 0.376951 0.924836 0.095216
C44   C     C_3   0.410775 0.374960 0.078903 -0.526137
H15   H     H_    0.428144 0.292324 0.876506 0.149609
H16   H     H_    0.369370 0.398987 0.127820 0.229137
H17   H     H_    0.432018 0.290482 0.120600 0.222813
C45   C     C_2   0.677000 0.338887 0.316684 0.543228
H18   H     H_    0.639484 0.287177 0.350302 0.010465
O13   O     O_2   0.693135 0.326858 0.199481 -0.501542
C46   C     C_2   0.532429 0.120394 0.234154 0.497859
H19   H     H_    0.555516 0.208046 0.222195 0.110220
O14   O     O_2   0.512991 0.069181 0.133208 -0.531260
N5    N     N_R   0.440456 0.890447 0.759681 0.223149
O15   O     O_R   0.424943 0.806295 0.847555 -0.355511
O16   O     O_R   0.402846 0.933075 0.674530 -0.381017
N6    N     N_R   0.548008 0.127499 0.848442 0.248110
O17   O     O_R   0.598340 0.076088 0.857462 -0.349955
O18   O     O_R   0.538132 0.231326 0.913821 -0.392915
C47   C     C_2   0.055827 0.294819 0.792363 0.505672
H20   H     H_    0.093317 0.243398 0.759281 0.128518
O19   O     O_2   0.034842 0.269552 0.902534 -0.544416
N7    N     N_R   0.353333 0.409741 0.871233 0.236213
O20   O     O_R   0.328643 0.335878 0.783612 -0.345484
O21   O     O_R   0.326387 0.508968 0.914455 -0.364848
C48   C     C_2   0.805005 0.354074 0.336503 0.531396
H21   H     H_    0.846903 0.386818 0.304133 0.055327
O22   O     O_2   0.791753 0.245271 0.312932 -0.498501

loop_
_geom_bond_atom_site_label_1
_geom_bond_atom_site_label_2
_geom_bond_distance
_ccdc_geom_bond_type
C25   C30   1.412056 A    
C37   H11   1.112911 S    
C7    C10   1.398051 A    
N4    C42   1.366220 A    
C8    C9    1.412145 A    
C44   H17   1.111878 S    
C43   C44   1.520397 S    
C43   N7    1.462962 S    
Zn1   N4    2.012620 S    
C4    C27   1.454585 S    
C29   H9    1.083159 S    
Zn1   O7    1.992652 S    
C15   C16   1.388699 A    
N2    C18   1.361960 A    
C18   O12   1.350265 S    
N2    C24   1.422737 S    
C17   N2    1.366518 A    
C44   H16   1.109201 S    
O4    C2    1.292664 A    
O7    C4    1.291946 A    
N5    O16   1.302390 A    
C10   H1    1.084307 S    
C5    N1    1.364649 A    
C31   C32   1.395091 A    
C7    C8    1.404741 A    
C23   C24   1.398950 A    
C40   C41   1.418954 A    
O5    C3    1.286125 A    
N7    O20   1.300573 A    
N1    C6    1.365260 A    
C12   C13   1.419892 A    
C31   C38   1.496109 S    
N6    O18   1.299233 A    
C20   C21   1.401872 A    
C17   O11   1.347722 S    
C34   H10   1.084153 S    
C10   C11   1.399669 A    
C40   H13   1.080937 S    
C38   N6    1.463899 S    
O3    Zn1   1.994952 S    
C6    C7    1.397649 A    
C29   C30   1.391954 A    
C5    C9    1.397154 A    
C34   C35   1.399912 A    
C42   C43   1.496662 S    
C39   N3    1.360582 A    
C13   C14   1.412828 A    
C45   O13   1.220935 D    
C41   N4    1.368564 A    
N5    O15   1.300613 A    
N3    C40   1.368404 A    
C14   C15   1.403728 A    
C23   H7    1.082943 S    
C28   H8    1.084126 S    
C28   C29   1.379829 A    
C38   H12   1.109631 S    
C22   H6    1.081258 S    
C36   C37   1.498861 S    
C22   C23   1.388791 A    
C46   H19   1.083695 S    
Zn2   O8    1.994950 S    
C47   O19   1.221499 D    
C27   C28   1.397670 A    
C39   C42   1.407777 A    
C12   C17   1.411442 A    
C43   H15   1.107061 S    
C19   C24   1.396859 A    
C1    C32   1.439903 S    
O3    C2    1.291023 A    
C25   C26   1.416760 A    
C46   O14   1.220895 D    
O8    C4    1.292163 A    
Zn2   N3    2.013075 S    
C48   O22   1.220724 D    
C37   N5    1.465380 S    
C26   C27   1.416231 A    
C31   C36   1.364752 A    
C21   C22   1.399184 A    
C15   H2    1.083272 S    
C14   C18   1.392483 A    
Zn1   O5    1.992452 S    
C20   H5    1.083273 S    
O1    Zn1   1.988238 S    
O2    Zn2   1.992450 S    
C45   H18   1.084819 S    
O6    C3    1.283606 A    
O4    Zn2   1.992652 S    
N7    O21   1.302311 A    
C5    O9    1.349792 S    
C9    C16   1.400872 A    
C25   C48   1.488895 S    
C26   C45   1.486620 S    
O2    C1    1.280468 A    
C33   C34   1.391350 A    
N1    C30   1.423841 S    
C41   H14   1.080825 S    
C33   C46   1.484665 S    
C19   C20   1.387541 A    
C32   C33   1.425591 A    
C19   H4    1.082888 S    
C16   H3    1.083250 S    
C47   H20   1.083215 S    
C8    C13   1.407399 A    
C35   C36   1.386998 A    
C37   C38   1.529727 S    
C3    C35   1.422133 S    
Zn2   O6    1.988239 S    
C48   H21   1.084732 S    
C2    C21   1.449605 S    
C6    O10   1.350193 S    
C11   C47   1.485263 S    
C11   C12   1.426853 A    
C39   C44   1.488440 S    
O1    C1    1.296111 A    
N6    O17   1.302367 A    
