data_mof_unit_32379.cif
_audit_creation_date              2012-12-11T16:33:25-0500
_audit_creation_method            fapswitch 2.2
_symmetry_space_group_name_H-M    P1
_symmetry_Int_Tables_number       1
_space_group_crystal_system       triclinic
_cell_length_a                    6.946035
_cell_length_b                    18.385928
_cell_length_c                    20.04085
_cell_angle_alpha                 68.466659
_cell_angle_beta                  90.676799
_cell_angle_gamma                 90.636267
_cell_volume                      2380.53804641

loop_
_atom_site_label
_atom_site_type_symbol
_atom_type_description
_atom_site_fract_x
_atom_site_fract_y
_atom_site_fract_z
_atom_type_partial_charge
O1    O     O_R   0.488960 0.443750 0.941980 -0.538866
O2    O     O_R   0.823890 0.406510 0.087590 -0.536594
O3    O     O_R   0.999680 0.556250 0.058020 -0.539704
C1    C     C_R   0.655366 0.383644 0.115234 0.698073
O4    O     O_R   0.818360 0.434410 0.944340 -0.534661
O5    O     O_R   0.994110 0.584350 0.913750 -0.539153
C2    C     C_R   0.648690 0.420117 0.923998 0.720621
O6    O     O_R   0.494530 0.415650 0.086250 -0.533786
O7    O     O_3   0.662590 0.549160 0.990130 -0.371051
V1    V     V_3+5 0.935320 0.490880 0.001830 1.454277
O8    O     O_R   0.324180 0.593490 0.912410 -0.541392
C3    C     C_R   0.154993 0.616441 0.884920 0.684832
O9    O     O_R   0.329720 0.565590 0.055660 -0.534324
C4    C     C_R   0.162095 0.580506 0.075528 0.721987
V2    V     V_3+5 0.435990 0.509120 0.998170 1.448610
O10   O     O_3   0.158850 0.450840 0.009870 -0.362568
C5    C     C_3   0.078782 0.709782 0.310174 -0.112820
C6    C     C_3   0.262259 0.698208 0.272382 0.222904
H1    H     H_    0.030172 0.671190 0.364300 0.159353
H2    H     H_    0.457188 0.810270 0.254541 0.131075
C7    C     C_1   0.156684 0.628532 0.119140 -0.151697
C8    C     C_1   0.110965 0.877284 0.375811 -0.189460
C9    C     C_3   0.963039 0.727174 0.239380 -0.136094
C10   C     C_3   0.146977 0.715504 0.202324 0.114435
C11   C     C_3   0.012455 0.815349 0.216843 -0.141105
C12   C     C_3   0.128475 0.797292 0.287018 0.114888
C13   C     C_3   0.196624 0.803210 0.179115 -0.177219
C14   C     C_3   0.312626 0.786056 0.249945 -0.175785
C15   C     C_1   0.153043 0.668291 0.156056 0.023321
C16   C     C_1   0.118414 0.841433 0.335655 -0.031191
H3    H     H_    0.245321 0.841625 0.124951 0.136159
H4    H     H_    0.908712 0.863940 0.194197 0.129867
H5    H     H_    0.818854 0.703253 0.234154 0.170259
H6    H     H_    0.437151 0.549802 0.691585 0.118001
C17   C     C_R   0.986869 0.763291 0.876488 -0.133472
C18   C     C_R   0.903395 0.832736 0.874156 -0.117635
C19   C     C_R   0.890799 0.896085 0.809663 -0.121741
C20   C     C_R   0.961771 0.890505 0.747014 -0.143661
C21   C     C_R   0.045429 0.820429 0.747423 0.068333
C22   C     C_R   0.058048 0.755402 0.813578 0.069594
C23   C     C_R   0.119736 0.815073 0.683719 -0.184833
C24   C     C_R   0.206315 0.744541 0.686253 0.068532
C25   C     C_R   0.218886 0.679506 0.752403 0.069202
C26   C     C_R   0.144621 0.684867 0.816112 -0.183279
C27   C     C_R   0.277557 0.736667 0.623345 -0.132445
C28   C     C_R   0.360988 0.667216 0.625669 -0.112476
C29   C     C_R   0.373475 0.603849 0.690151 -0.123186
C30   C     C_R   0.302468 0.609421 0.752800 -0.145095
H7    H     H_    0.996376 0.716370 0.928313 0.103312
H8    H     H_    0.849536 0.837590 0.922813 0.117450
H9    H     H_    0.827071 0.950127 0.808222 0.117844
H10   H     H_    0.951475 0.942036 0.698609 0.111592
H11   H     H_    0.268128 0.783605 0.571527 0.107654
H12   H     H_    0.414889 0.662371 0.577013 0.126643
H13   H     H_    0.312672 0.557871 0.801193 0.111168
H14   H     H_    0.890309 0.339273 0.427515 0.144354
C31   C     C_R   0.470512 0.107030 0.250349 -0.187640
C32   C     C_R   0.405608 0.100653 0.186630 -0.137165
C33   C     C_R   0.419790 0.164218 0.122219 0.213145
C34   C     C_R   0.498402 0.234683 0.121235 -0.152122
C35   C     C_R   0.563785 0.243217 0.185137 0.037540
C36   C     C_R   0.550155 0.177936 0.251067 0.067514
C37   C     C_R   0.645248 0.314832 0.183856 -0.152048
C38   C     C_R   0.713341 0.320899 0.248683 0.032103
C39   C     C_R   0.699730 0.255583 0.314552 0.072072
C40   C     C_R   0.618984 0.184068 0.315765 -0.158167
C41   C     C_R   0.791923 0.391799 0.249701 -0.166278
C42   C     C_R   0.855833 0.397818 0.313697 0.242815
C43   C     C_R   0.841869 0.334206 0.377848 -0.129815
C44   C     C_R   0.764154 0.263940 0.378627 -0.176769
H15   H     H_    0.458532 0.055594 0.298799 0.119613
H16   H     H_    0.345254 0.045816 0.187371 0.141608
H17   H     H_    0.508955 0.282092 0.069775 0.125122
H18   H     H_    0.803501 0.443315 0.201325 0.130262
H19   H     H_    0.753678 0.216715 0.430211 0.118151
O11   O     O_R   0.770540 0.084530 0.414050 -0.536623
O12   O     O_R   0.445710 0.065660 0.555720 -0.535098
O13   O     O_R   0.270420 0.915650 0.586190 -0.537034
C45   C     C_R   0.615124 0.079720 0.576454 0.722111
O14   O     O_R   0.441140 0.093540 0.412470 -0.537623
O15   O     O_R   0.265820 0.943740 0.441930 -0.540861
C46   C     C_R   0.609399 0.115599 0.384449 0.693224
O16   O     O_R   0.775150 0.056440 0.558310 -0.540976
O17   O     O_3   0.602370 0.950960 0.510050 -0.368463
V3    V     V_3+5 0.329450 0.009140 0.498150 1.432429
O18   O     O_R   0.935790 0.934280 0.444060 -0.536284
C47   C     C_R   0.103673 0.920942 0.423084 0.719824
O19   O     O_R   0.940370 0.906390 0.587310 -0.538665
C48   C     C_R   0.109484 0.883510 0.614918 0.692867
V4    V     V_3+5 0.828810 0.990710 0.501460 1.429832
O20   O     O_3   0.105780 0.049100 0.489960 -0.366471
C49   C     C_3   0.766723 0.305102 0.729398 -0.143734
C50   C     C_3   0.593083 0.296625 0.683389 -0.134332
H20   H     H_    0.561990 0.335719 0.627276 0.128424
H21   H     H_    0.878796 0.351632 0.711752 0.116565
H22   H     H_    0.314807 0.309086 0.745969 0.116552
C51   C     C_1   0.624777 0.125119 0.622269 -0.189859
C52   C     C_1   0.638317 0.373973 0.878883 -0.163463
C53   C     C_3   0.804220 0.216072 0.754087 -0.145292
C54   C     C_3   0.630637 0.208206 0.708685 0.153631
C55   C     C_3   0.668943 0.201330 0.818847 -0.104809
C56   C     C_3   0.631405 0.289753 0.793509 0.160887
C57   C     C_3   0.495293 0.192829 0.772814 -0.130436
C58   C     C_3   0.457812 0.281872 0.748135 -0.135797
C59   C     C_1   0.628873 0.162653 0.661095 -0.054881
C60   C     C_1   0.633625 0.335799 0.840639 -0.026487
H23   H     H_    0.383222 0.146301 0.790488 0.120754
H24   H     H_    0.699927 0.162288 0.874990 0.145267
H25   H     H_    0.947235 0.188854 0.756286 0.117252
I1    I     I_    0.466301 0.607384 0.319275 -0.389318
I2    I     I_    0.324716 0.153950 0.025584 -0.463166
I3    I     I_    0.971660 0.503407 0.314211 -0.388933

loop_
_geom_bond_atom_site_label_1
_geom_bond_atom_site_label_2
_ccdc_geom_bond_type
C30   H13   S    
C23   C48   S    
C55   C56   S    
C2    C52   S    
C23   C24   A    
C17   C18   A    
C10   C13   S    
C1    O6    A    
V3    O20   S    
C31   C36   A    
C21   C23   A    
C27   C28   A    
C1    C37   S    
C54   C59   S    
C5    C9    S    
C6    C10   S    
C5    C12   S    
C4    C7    S    
C18   C19   A    
C19   C20   A    
O5    C3    A    
C20   C21   A    
C19   H9    S    
C20   H10   S    
V2    O10   S    
C53   H25   S    
C34   H17   S    
C42   I3    S    
C35   C37   A    
C10   C15   S    
C57   C58   S    
O8    V2    S    
C29   C30   A    
C42   C43   A    
C9    H5    S    
C17   H7    S    
C33   I2    S    
C9    C10   S    
O1    V2    S    
C25   C30   A    
C49   C56   S    
C51   C59   T    
C55   H24   S    
C9    C11   S    
C27   H11   S    
C33   C34   A    
C55   C57   S    
O9    C4    A    
C35   C36   A    
O17   V4    S    
C50   C58   S    
H14   C43   S    
C31   C32   A    
O12   C45   A    
O13   C48   A    
C36   C40   A    
C13   H3    S    
C41   C42   A    
C38   C41   A    
C6    C14   S    
O17   V3    S    
O14   C46   A    
O18   V4    S    
O11   C46   A    
C21   C22   A    
O4    C2    A    
O18   C47   A    
H2    C14   S    
C11   C12   S    
C7    C15   T    
C54   C57   S    
C34   C35   A    
C24   C27   A    
O2    C1    A    
C25   C26   A    
O14   V3    S    
C40   C46   S    
C53   C54   S    
C28   H12   S    
C5    C6    S    
C41   H18   S    
C8    C47   S    
C31   H15   S    
C56   C58   S    
C50   C54   S    
O15   C47   A    
O3    C4    A    
O13   V3    S    
C53   C55   S    
O19   V4    S    
C12   C16   S    
O6    V2    S    
H22   C58   S    
C24   C25   A    
O2    V1    S    
C44   H19   S    
C18   H8    S    
O7    V1    S    
O16   V4    S    
C28   C29   A    
C8    C16   T    
O1    C2    A    
C45   C51   S    
C6    I1    S    
O5    V1    S    
O8    C3    A    
C11   C13   S    
C50   H20   S    
C12   C14   S    
C52   C60   T    
C38   C39   A    
O9    V2    S    
C17   C22   A    
C32   C33   A    
O4    V1    S    
C3    C26   S    
O3    V1    S    
V1    O10   S    
C45   O16   A    
C32   H16   S    
V4    O20   S    
C11   H4    S    
C49   C50   S    
C5    H1    S    
C56   C60   S    
C49   H21   S    
O7    V2    S    
C43   C44   A    
O12   V3    S    
C37   C38   A    
C22   C26   A    
O19   C48   A    
C39   C40   A    
C13   C14   S    
C57   H23   S    
H6    C29   S    
O15   V3    S    
C39   C44   A    
C49   C53   S    
O11   V4    S    
