data_mof_unit_35214.cif
_audit_creation_date              2012-12-11T14:56:37-0500
_audit_creation_method            fapswitch 2.2
_symmetry_space_group_name_H-M    P1
_symmetry_Int_Tables_number       1
_space_group_crystal_system       triclinic
_cell_length_a                    10.559239
_cell_length_b                    10.725462
_cell_length_c                    17.124536
_cell_angle_alpha                 80.112189
_cell_angle_beta                  89.990098
_cell_angle_gamma                 119.526674
_cell_volume                      1654.30156451

loop_
_atom_site_label
_atom_site_type_symbol
_atom_type_description
_atom_site_fract_x
_atom_site_fract_y
_atom_site_fract_z
_atom_type_partial_charge
C1    C     C_R   0.222513 0.854058 0.128661 0.575112
C2    C     C_R   0.800616 0.431870 0.262301 -0.129522
C3    C     C_R   0.792517 0.414173 0.183695 0.251799
C4    C     C_R   0.653567 0.343114 0.156459 0.045180
C5    C     C_1   0.684804 0.832064 0.201868 -0.035440
C6    C     C_1   0.703181 0.807839 0.270513 -0.037950
C7    C     C_1   0.180369 0.825478 0.211233 -0.042002
C8    C     C_1   0.151049 0.820096 0.279695 -0.051284
C9    C     C_1   0.646042 0.326195 0.778367 -0.016530
C10   C     C_1   0.653236 0.347750 0.707793 -0.024860
C11   C     C_R   0.625954 0.714217 0.804922 -0.141949
C12   C     C_R   0.636911 0.280354 0.086134 0.571524
C13   C     C_R   0.614573 0.698473 0.726776 -0.133950
C14   C     C_R   0.670927 0.822156 0.665440 0.040538
C15   C     C_R   0.747427 0.962441 0.682464 -0.138365
C16   C     C_R   0.756481 0.978592 0.761239 -0.135789
C17   C     C_R   0.689748 0.853988 0.822523 0.032947
C18   C     C_R   0.251134 0.971079 0.755847 0.226248
C19   C     C_R   0.241192 0.953110 0.677540 -0.135410
C20   C     C_R   0.159967 0.814252 0.661016 -0.036297
C21   C     C_R   0.103874 0.689680 0.722045 -0.137446
C22   C     C_R   0.123673 0.704785 0.800873 0.064848
C23   C     C_R   0.643339 0.855942 0.124378 0.554258
C24   C     C_R   0.194509 0.845697 0.817786 0.065088
C25   C     C_R   0.711110 0.772904 0.353520 0.561561
C26   C     C_R   0.689779 0.397630 0.394228 0.546033
C27   C     C_R   0.103419 0.810424 0.359106 0.542525
C28   C     C_R   0.677893 0.799889 0.585575 0.553589
C29   C     C_R   0.679150 0.383126 0.624665 0.546164
C30   C     C_R   0.100571 0.801826 0.585441 0.553466
C31   C     C_R   0.227130 0.866229 0.898065 0.606866
C32   C     C_R   0.638098 0.285881 0.861157 0.542367
C33   C     C_R   0.647294 0.867349 0.899296 0.549470
C34   C     C_R   0.526674 0.301133 0.205786 -0.178345
C35   C     C_R   0.536353 0.316207 0.284558 -0.154933
C36   C     C_R   0.672814 0.374699 0.313658 -0.007078
Cr1   Cr    Cr6+3 0.402240 0.783890 0.019450 1.015380
Cr2   Cr    Cr6+3 0.382360 0.097900 0.991800 1.025468
Cr3   Cr    Cr6+3 0.715380 0.118170 0.988700 1.007168
Cr4   Cr    Cr6+3 0.936650 0.882420 0.465510 1.019404
Cr5   Cr    Cr6+3 0.605770 0.565620 0.493360 1.010973
Cr6   Cr    Cr6+3 0.921340 0.550490 0.496380 1.010725
H1    H     H_    0.418843 0.246571 0.185437 0.148963
H2    H     H_    0.286664 0.048202 0.629587 0.128994
H3    H     H_    0.036009 0.581595 0.709254 0.148862
H4    H     H_    0.437908 0.278689 0.323084 0.140822
H5    H     H_    0.907217 0.490584 0.283325 0.131455
H6    H     H_    0.575600 0.617106 0.851639 0.118252
H7    H     H_    0.564155 0.589422 0.714127 0.128042
H8    H     H_    0.797731 0.058410 0.635081 0.126240
H9    H     H_    0.805941 0.087709 0.773900 0.135463
O1    O     O_R   0.521780 0.757110 0.108900 -0.515079
O2    O     O_R   0.513330 0.228330 0.898660 -0.471250
O3    O     O_R   0.739230 0.266130 0.888050 -0.538582
O4    O     O_R   0.712580 0.991850 0.918770 -0.509914
O5    O     O_3   0.499990 0.999980 0.999980 -0.257018
O6    O     O_R   0.083770 0.911170 0.376030 -0.517380
O7    O     O_R   0.808770 0.880340 0.383890 -0.492867
O8    O     O_R   0.584340 0.689460 0.394160 -0.500900
O9    O     O_R   0.614320 0.443940 0.423590 -0.515194
O10   O     O_R   0.805020 0.410040 0.421340 -0.521360
O11   O     O_R   0.049240 0.685450 0.403290 -0.504868
O12   O     O_R   0.275160 0.783810 0.101120 -0.498171
O13   O     O_R   0.077520 0.903010 0.551800 -0.519644
O14   O     O_R   0.802980 0.872780 0.546830 -0.495927
O15   O     O_R   0.578090 0.681300 0.569920 -0.519421
O16   O     O_R   0.608530 0.436370 0.586530 -0.510194
O17   O     O_R   0.798770 0.401880 0.597100 -0.520796
O18   O     O_R   0.043450 0.677890 0.566230 -0.502395
O19   O     O_3   0.821250 0.666180 0.485090 -0.274307
O20   O     O_R   0.237900 0.972600 0.090980 -0.520865
O21   O     O_R   0.511190 0.220540 0.061620 -0.529605
O22   O     O_R   0.736920 0.257720 0.063840 -0.474532
O23   O     O_R   0.710450 0.984050 0.081720 -0.502470
O24   O     O_R   0.524090 0.765520 0.933110 -0.525585
O25   O     O_R   0.277300 0.791600 0.938160 -0.486118
O26   O     O_R   0.240210 0.981010 0.915190 -0.479315
N1    N     N_2   0.057798 0.580240 0.863902 -0.498346
H10   H     H_    0.945905 0.534164 0.872140 0.268268
C37   C     C_3   0.104066 0.474124 0.862960 -0.270147
H11   H     H_    0.062121 0.417403 0.812363 0.128318
H12   H     H_    0.059246 0.390974 0.918993 0.138008
H13   H     H_    0.225393 0.528299 0.858636 0.160525
O27   O     O_3   0.917553 0.468049 0.131802 -0.543898
C38   C     C_3   0.014107 0.422100 0.165113 0.010253
H14   H     H_    0.955415 0.311352 0.204374 0.128435
H15   H     H_    0.090120 0.502418 0.199860 0.137117
C39   C     C_3   0.103986 0.414988 0.098331 -0.326949
H16   H     H_    0.159481 0.520870 0.055349 0.193556
H17   H     H_    0.187919 0.390273 0.123458 0.081901
H18   H     H_    0.031632 0.327349 0.066518 0.147461
O28   O     O_3   0.322896 0.110489 0.772844 -0.535431
C40   C     C_3   0.261852 0.194920 0.736415 -0.000334
H19   H     H_    0.142585 0.127760 0.730217 0.123492
H20   H     H_    0.321203 0.255677 0.676582 0.140492
C41   C     C_3   0.279902 0.305263 0.786762 -0.355663
H21   H     H_    0.395027 0.367127 0.800119 0.157554
H22   H     H_    0.249273 0.383374 0.753717 0.082534
H23   H     H_    0.208650 0.248149 0.843738 0.147962

loop_
_geom_bond_atom_site_label_1
_geom_bond_atom_site_label_2
_ccdc_geom_bond_type
C33   O4    A    
C40   H19   S    
C30   O13   A    
C35   C36   A    
C16   H9    S    
C23   O1    A    
C7    C8    T    
Cr5   O16   S    
C20   C30   S    
C38   H14   S    
C1    O20   A    
Cr4   O19   S    
C18   C24   A    
C26   O10   A    
C18   C19   A    
C5    C6    T    
N1    C37   S    
C15   H8    S    
Cr3   O3    S    
C15   C16   A    
C41   H23   S    
Cr6   O19   S    
C34   C35   A    
Cr3   O23   S    
C9    C32   S    
C29   O16   A    
Cr1   O5    S    
C33   O24   A    
Cr3   O4    S    
C19   C20   A    
C16   C17   A    
C41   H22   S    
C12   O22   A    
C4    C12   S    
C9    C10   T    
Cr6   O11   S    
Cr1   O24   S    
C40   H20   S    
C21   C22   A    
Cr6   O17   S    
C11   H6    S    
C17   C33   S    
C37   H13   S    
C1    O12   A    
C32   O3    A    
Cr1   O12   S    
C31   O26   A    
C21   H3    S    
C38   H15   S    
Cr2   O21   S    
Cr4   O7    S    
O27   C38   S    
C22   N1    S    
C37   H12   S    
C27   O6    A    
Cr1   O1    S    
N1    H10   S    
Cr6   O18   S    
C28   O15   A    
C27   O11   A    
C29   O17   A    
Cr3   O5    S    
C5    C23   S    
C39   H18   S    
C41   H21   S    
C20   C21   A    
Cr6   O10   S    
Cr5   O8    S    
C13   H7    S    
C26   C36   S    
Cr1   O25   S    
C39   H17   S    
C40   C41   S    
Cr4   O14   S    
C22   C24   A    
C25   O7    A    
C23   O23   A    
C3    C4    A    
C32   O2    A    
C30   O18   A    
C19   H2    S    
C38   C39   S    
C2    C36   A    
Cr2   O20   S    
C11   C17   A    
Cr4   O6    S    
C1    C7    S    
C34   H1    S    
Cr5   O9    S    
C37   H11   S    
Cr5   O15   S    
Cr2   O26   S    
C2    H5    S    
Cr4   O13   S    
C18   O28   S    
C2    C3    A    
C24   C31   S    
C11   C13   A    
C10   C29   S    
C31   O25   A    
Cr2   O2    S    
O28   C40   S    
C28   O14   A    
Cr3   O22   S    
C4    C34   A    
C12   O21   A    
C6    C25   S    
Cr2   O5    S    
C39   H16   S    
C3    O27   S    
C8    C27   S    
C14   C15   A    
C25   O8    A    
C14   C28   S    
C13   C14   A    
C35   H4    S    
C26   O9    A    
Cr5   O19   S    
