data_mof_unit_66615.cif
_audit_creation_date              2013-03-05T16:10:59-0500
_audit_creation_method            fapswitch 2.2
_symmetry_space_group_name_H-M    P1
_symmetry_Int_Tables_number       1
_space_group_crystal_system       triclinic
_cell_length_a                    17.401259
_cell_length_b                    28.692315
_cell_length_c                    8.686017
_cell_angle_alpha                 90.000019
_cell_angle_beta                  104.153187
_cell_angle_gamma                 90.777248
_cell_volume                      4204.72307132

loop_
_atom_site_label
_atom_site_type_symbol
_atom_site_description
_atom_site_fract_x
_atom_site_fract_y
_atom_site_fract_z
_atom_type_partial_charge
P1    P     P_3+3 0.171820 0.553000 0.158080 0.452715
P2    P     P_3+3 0.171820 0.447000 0.658080 0.453419
P3    P     P_3+3 0.671820 0.053000 0.158080 0.454865
P4    P     P_3+3 0.671820 0.947000 0.658080 0.450246
O1    O     O_2   0.163830 0.569270 0.980510 -0.386916
O2    O     O_2   0.163830 0.430730 0.480510 -0.378724
O3    O     O_2   0.663830 0.069270 0.980510 -0.379095
O4    O     O_2   0.663830 0.930730 0.480510 -0.390713
O5    O     O_3   0.095420 0.524330 0.188510 -0.432976
O6    O     O_3   0.095420 0.475670 0.688510 -0.439456
O7    O     O_3   0.595420 0.024330 0.188510 -0.426213
O8    O     O_3   0.595420 0.975670 0.688510 -0.435752
O9    O     O_3   0.028940 0.612400 0.656050 -0.397140
O10   O     O_3   0.028940 0.387600 0.156050 -0.365246
O11   O     O_3   0.528940 0.112400 0.656050 -0.366370
O12   O     O_3   0.528940 0.887600 0.156050 -0.377130
O13   O     O_2   0.156345 0.649845 0.841499 -0.371996
O14   O     O_2   0.158406 0.353511 0.330972 -0.382244
O15   O     O_2   0.662163 0.145093 0.841895 -0.391039
O16   O     O_2   0.651460 0.845718 0.325902 -0.362738
O17   O     O_3   0.256657 0.518374 0.199868 -0.601280
O18   O     O_3   0.258009 0.481809 0.701301 -0.601790
O19   O     O_3   0.754543 0.016639 0.198747 -0.592105
O20   O     O_3   0.758457 0.981224 0.704034 -0.596141
O21   O     O_3   0.058511 0.707620 0.660638 -0.469930
O22   O     O_3   0.056764 0.291667 0.176243 -0.529190
O23   O     O_3   0.577005 0.209821 0.671673 -0.542717
O24   O     O_3   0.535351 0.792178 0.161304 -0.518547
H1    H     H_    0.964232 0.693884 0.757422 0.139804
H2    H     H_    0.954648 0.311037 0.236908 0.143730
H3    H     H_    0.507818 0.193340 0.825730 0.184454
H4    H     H_    0.448338 0.828379 0.235596 0.182610
C1    C     C_3   0.930255 0.742333 0.562581 -0.866743
C2    C     C_3   0.933231 0.250145 0.084820 -0.997449
C3    C     C_3   0.488993 0.263797 0.739441 -0.805169
C4    C     C_3   0.396698 0.767050 0.112830 -0.904867
H5    H     H_    0.882896 0.751024 0.622919 0.285415
H6    H     H_    0.914168 0.248332 0.953584 0.282474
H7    H     H_    0.431138 0.267452 0.770284 0.252603
H8    H     H_    0.399366 0.747669 0.223056 0.302494
H9    H     H_    0.970168 0.772613 0.562143 0.295778
H10   H     H_    0.880456 0.246410 0.133926 0.256600
H11   H     H_    0.537397 0.278630 0.834354 0.276030
H12   H     H_    0.406010 0.743256 0.019728 0.266304
P5    P     P_3+3 0.829210 0.554130 0.532500 0.531412
P6    P     P_3+3 0.829210 0.445870 0.032500 0.554422
P7    P     P_3+3 0.329210 0.054130 0.532500 0.543488
P8    P     P_3+3 0.329210 0.945870 0.032500 0.553838
P9    P     P_3+3 0.900257 0.658079 0.019957 0.503155
P10   P     P_3+3 0.901746 0.342418 0.523937 0.544174
P11   P     P_3+3 0.400274 0.157032 0.020153 0.496711
P12   P     P_3+3 0.400540 0.842023 0.525012 0.528542
O25   O     O_2   0.837400 0.570350 0.710350 -0.315786
O26   O     O_2   0.837400 0.429650 0.210350 -0.292459
O27   O     O_2   0.337400 0.070350 0.710350 -0.327871
O28   O     O_2   0.337400 0.929650 0.210350 -0.298810
O29   O     O_3   0.972820 0.612580 0.035550 -0.310841
O30   O     O_3   0.972820 0.387420 0.535550 -0.325962
O31   O     O_3   0.472820 0.112580 0.035550 -0.318724
O32   O     O_3   0.472820 0.887420 0.535550 -0.329598
O33   O     O_2   0.842500 0.647799 0.857525 -0.333427
O34   O     O_2   0.842856 0.354064 0.365179 -0.311340
O35   O     O_2   0.350195 0.151223 0.847603 -0.361789
O36   O     O_2   0.339045 0.853795 0.369551 -0.320576
O37   O     O_3   0.749988 0.515105 0.524961 -0.577888
O38   O     O_3   0.749481 0.483403 0.024875 -0.569252
O39   O     O_3   0.250988 0.014306 0.526305 -0.561167
O40   O     O_3   0.248854 0.982770 0.022757 -0.560903
O41   O     O_3   0.934176 0.716266 0.989946 -0.570255
O42   O     O_3   0.932302 0.285637 0.484308 -0.586295
O43   O     O_3   0.441603 0.214734 0.018580 -0.590694
O44   O     O_3   0.433675 0.786708 0.475854 -0.587327
C5    C     C_3   0.003997 0.736430 0.094964 0.125660
C6    C     C_3   0.006910 0.268262 0.572179 0.120759
C7    C     C_3   0.497951 0.228960 0.161060 0.165431
C8    C     C_3   0.503362 0.767300 0.577381 0.146603
C9    C     C_3   0.990988 0.790892 0.114007 -0.469034
C10   C     C_3   0.008726 0.215736 0.515449 -0.397567
C11   C     C_3   0.517626 0.283576 0.163024 -0.481367
C12   C     C_3   0.509717 0.715047 0.522769 -0.461900
H13   H     H_    0.049280 0.806586 0.176830 0.161524
H14   H     H_    0.988826 0.216295 0.384776 0.193150
H15   H     H_    0.567777 0.289345 0.106250 0.184628
H16   H     H_    0.557829 0.698442 0.611993 0.167889
C13   C     C_3   0.716766 0.501426 0.873249 0.244705
C14   C     C_3   0.724137 0.493063 0.377198 0.313421
C15   C     C_3   0.214189 0.997979 0.868252 0.221213
C16   C     C_3   0.226400 0.990413 0.381732 0.338021
H17   H     H_    0.763931 0.510920 0.813795 0.149388
H18   H     H_    0.772482 0.489956 0.316209 0.152641
H19   H     H_    0.259872 0.004579 0.802002 0.142967
H20   H     H_    0.276081 0.985596 0.326209 0.159717
C17   C     C_3   0.658714 0.466954 0.768500 -0.917075
C18   C     C_3   0.656001 0.519811 0.270841 -0.890388
C19   C     C_3   0.152313 0.962984 0.776778 -0.927333
C20   C     C_3   0.160248 0.016055 0.265417 -0.886512
H21   H     H_    0.617101 0.451970 0.834460 0.273358
H22   H     H_    0.610011 0.527577 0.335733 0.278998
H23   H     H_    0.181382 0.932954 0.737329 0.239514
H24   H     H_    0.112522 0.025696 0.323482 0.274294
H25   H     H_    0.623666 0.484861 0.661214 0.251892
H26   H     H_    0.628080 0.498846 0.163794 0.258423
H27   H     H_    0.112353 0.951060 0.851292 0.275945
H28   H     H_    0.133507 0.993391 0.161981 0.254672
H29   H     H_    0.691108 0.439032 0.725869 0.232191
H30   H     H_    0.678531 0.552654 0.230376 0.246355
H31   H     H_    0.115906 0.979359 0.667676 0.253310
H32   H     H_    0.184373 0.047443 0.219192 0.239481
Ba1   Ba    Ba6+2 0.000400 0.534870 0.845190 1.625924
Ba2   Ba    Ba6+2 0.000400 0.465130 0.345190 1.639772
Ba3   Ba    Ba6+2 0.500400 0.034870 0.845190 1.621072
Ba4   Ba    Ba6+2 0.500400 0.965130 0.345190 1.638546
C21   C     C_3   0.248433 0.478360 0.104921 0.393863
C22   C     C_3   0.251141 0.522021 0.608164 0.405917
C23   C     C_3   0.745024 0.977083 0.101396 0.377536
C24   C     C_3   0.754230 0.020612 0.607727 0.396799
H33   H     H_    0.202742 0.482228 0.991466 0.092198
H34   H     H_    0.204619 0.518411 0.495370 0.084048
H35   H     H_    0.699671 0.981850 0.988025 0.099980
H36   H     H_    0.707081 0.017580 0.495555 0.091284
C25   C     C_3   0.327743 0.469246 0.062997 -0.539457
C26   C     C_3   0.330213 0.531130 0.563934 -0.556782
C27   C     C_3   0.824464 0.967465 0.060588 -0.514129
C28   C     C_3   0.833700 0.026627 0.562419 -0.547620
H37   H     H_    0.342709 0.499027 0.993277 0.210893
H38   H     H_    0.343036 0.501370 0.492575 0.208925
H39   H     H_    0.840506 0.997311 0.992468 0.206952
H40   H     H_    0.843552 0.995865 0.492181 0.205256
H41   H     H_    0.321885 0.437369 0.988301 0.183143
H42   H     H_    0.325421 0.563038 0.490098 0.184280
H43   H     H_    0.818277 0.935797 0.984997 0.209760
H44   H     H_    0.831656 0.057998 0.487244 0.213408
O45   O     O_3   0.904940 0.476110 0.001150 -0.343938
O46   O     O_3   0.904940 0.523890 0.501150 -0.394293
O47   O     O_3   0.404940 0.976110 0.001150 -0.341172
O48   O     O_3   0.404940 0.023890 0.501150 -0.401243
P13   P     P_3+3 0.101950 0.346029 0.166597 0.499185
P14   P     P_3+3 0.105236 0.653567 0.670554 0.486162
P15   P     P_3+3 0.594558 0.842246 0.159769 0.529449
P16   P     P_3+3 0.608826 0.151939 0.674866 0.493984
C29   C     C_3   0.975867 0.700609 0.640984 0.597415
C30   C     C_3   0.973783 0.296877 0.134636 0.487659
C31   C     C_3   0.505367 0.212844 0.717451 0.502335
C32   C     C_3   0.455869 0.806938 0.134933 0.447293
H45   H     H_    0.949082 0.671036 0.563419 0.021962
H46   H     H_    0.952498 0.321240 0.034575 0.115468
H47   H     H_    0.454161 0.198745 0.629375 0.094116
H48   H     H_    0.438618 0.827836 0.025206 0.114368
H49   H     H_    0.901924 0.733424 0.437796 0.194661
H50   H     H_    0.973519 0.220597 0.125296 0.294626
H51   H     H_    0.486792 0.283368 0.628421 0.252749
H52   H     H_    0.336596 0.781968 0.077259 0.264856
C33   C     C_2   0.859943 0.381179 0.790082 -0.381842
C34   C     C_2   0.852502 0.616258 0.276477 -0.433391
C35   C     C_2   0.357378 0.880927 0.789095 -0.366940
C36   C     C_2   0.344745 0.112973 0.263160 -0.440739
C37   C     C_R   0.153525 0.611615 0.417414 -0.399865
C38   C     C_R   0.148367 0.386455 0.910134 -0.378299
C39   C     C_R   0.652919 0.111988 0.417913 -0.379361
C40   C     C_R   0.643547 0.884028 0.904484 -0.407324
C41   C     C_2   0.738917 0.362353 0.876130 -0.280900
C42   C     C_2   0.738900 0.635125 0.384859 -0.243186
C43   C     C_2   0.243068 0.859443 0.894474 -0.326826
C44   C     C_2   0.230596 0.131829 0.367240 -0.227230
C45   C     C_2   0.809058 0.390559 0.902397 0.071659
C46   C     C_2   0.807374 0.607929 0.399905 0.080914
C47   C     C_2   0.309667 0.889740 0.907194 0.059370
C48   C     C_2   0.301639 0.106047 0.390197 0.103564
C49   C     C_2   0.845379 0.345023 0.684256 0.235461
C50   C     C_2   0.839737 0.653688 0.176330 0.118500
C51   C     C_2   0.343949 0.843862 0.686899 0.227343
C52   C     C_2   0.333155 0.150403 0.163595 0.128854
C53   C     C_3   0.786755 0.310526 0.703184 -0.129907
C54   C     C_3   0.784848 0.689180 0.205962 -0.130113
C55   C     C_3   0.288785 0.807622 0.712902 -0.176794
C56   C     C_3   0.281254 0.187046 0.196634 0.025512
C57   C     C_3   0.718034 0.332802 0.736816 0.205463
C58   C     C_3   0.718322 0.668455 0.258510 0.350253
C59   C     C_3   0.222007 0.826935 0.764001 0.321725
C60   C     C_3   0.213217 0.167944 0.247891 0.242309
C61   C     C_2   0.764028 0.270119 0.582520 -0.214393
C62   C     C_2   0.751530 0.725236 0.076153 -0.204146
C63   C     C_2   0.258087 0.771139 0.581728 -0.162090
C64   C     C_2   0.253712 0.225786 0.072412 -0.180232
C65   C     C_2   0.255283 0.724507 0.617601 -0.154044
C66   C     C_2   0.243993 0.271775 0.112099 -0.137141
C67   C     C_2   0.754991 0.225215 0.633765 -0.109012
C68   C     C_2   0.742050 0.771586 0.110424 -0.163335
C69   C     C_R   0.268995 0.677252 0.379811 0.134043
C70   C     C_R   0.256514 0.319099 0.866009 0.239653
C71   C     C_R   0.782355 0.171148 0.411075 0.220633
C72   C     C_R   0.760171 0.819721 0.875604 0.153800
C73   C     C_R   0.223917 0.687060 0.498338 -0.042213
C74   C     C_R   0.213728 0.309743 0.990175 -0.141329
C75   C     C_R   0.735613 0.182333 0.526740 -0.058501
C76   C     C_R   0.711038 0.808092 0.986634 -0.124266
C77   C     C_R   0.253000 0.635353 0.277691 -0.166663
C78   C     C_R   0.246040 0.362182 0.769986 -0.221174
C79   C     C_R   0.763139 0.130523 0.301272 -0.192726
C80   C     C_R   0.746117 0.861991 0.773579 -0.151686
C81   C     C_R   0.192956 0.606159 0.285704 0.378930
C82   C     C_R   0.190195 0.392987 0.782904 0.358412
C83   C     C_R   0.697217 0.104563 0.295149 0.243482
C84   C     C_R   0.687775 0.891776 0.781007 0.308085
C85   C     C_R   0.166772 0.649751 0.521589 0.236088
C86   C     C_R   0.158823 0.347757 0.011811 0.273153
C87   C     C_R   0.670743 0.147789 0.531021 0.285459
C88   C     C_R   0.652351 0.844558 0.003755 0.292309
H53   H     H_    0.119036 0.583054 0.443700 0.146815
H54   H     H_    0.117261 0.415937 0.938254 0.175525
H55   H     H_    0.613819 0.084854 0.436632 0.160319
H56   H     H_    0.612759 0.913442 0.933473 0.185122
N1    N     N_3   0.227906 0.438912 0.193279 -0.207228
H57   H     H_    0.170599 0.444310 0.205970 0.166094
H58   H     H_    0.265711 0.438640 0.307196 0.170106
N2    N     N_3   0.233410 0.561316 0.699376 -0.218405
H59   H     H_    0.175640 0.556293 0.711168 0.158126
H60   H     H_    0.271017 0.560988 0.813485 0.161851
N3    N     N_3   0.722868 0.937387 0.186827 -0.209767
H61   H     H_    0.665785 0.943172 0.200238 0.168498
H62   H     H_    0.760768 0.936044 0.300486 0.171359
N4    N     N_3   0.739733 0.061240 0.696562 -0.225808
H63   H     H_    0.682293 0.057473 0.711604 0.154531
H64   H     H_    0.778157 0.061188 0.809871 0.159607
N5    N     N_3   0.391750 0.462883 0.205492 -0.174581
H65   H     H_    0.441340 0.451261 0.169448 0.176191
H66   H     H_    0.407455 0.495512 0.258401 0.176853
N6    N     N_3   0.395334 0.537382 0.705193 -0.164270
H67   H     H_    0.445085 0.548802 0.667651 0.181555
H68   H     H_    0.409527 0.504751 0.757303 0.182518
N7    N     N_3   0.887835 0.960385 0.203651 -0.172201
H69   H     H_    0.937299 0.948294 0.168217 0.199099
H70   H     H_    0.904383 0.992841 0.257233 0.173986
N8    N     N_3   0.899579 0.031736 0.702915 -0.166551
H71   H     H_    0.950058 0.040971 0.664167 0.201539
H72   H     H_    0.910878 0.999088 0.756653 0.183238
N9    N     N_3   0.934318 0.799495 0.209826 -0.171532
H73   H     H_    0.964303 0.809553 0.324898 0.181777
H74   H     H_    0.901366 0.769236 0.214399 0.118123
N10   N     N_3   0.088371 0.196214 0.552810 -0.154943
H75   H     H_    0.122483 0.213386 0.650647 0.182346
H76   H     H_    0.087350 0.161606 0.588013 0.177521
N11   N     N_3   0.543780 0.303592 0.324310 -0.184843
H77   H     H_    0.575397 0.279664 0.405218 0.178343
H78   H     H_    0.495771 0.314150 0.367798 0.166794
N12   N     N_3   0.436209 0.688666 0.514858 -0.172551
H79   H     H_    0.450012 0.653402 0.537601 0.162945
H80   H     H_    0.409159 0.699778 0.602867 0.203283
C89   C     C_2   0.677461 0.367966 0.964600 1.057501
O49   O     O_2   0.608706 0.358228 0.899396 -0.629802
O50   O     O_R   0.696434 0.383662 0.120749 -0.722614
H81   H     H_    0.647821 0.384384 0.165004 0.348198
C90   C     C_2   0.674803 0.620617 0.459071 1.054980
O51   O     O_2   0.606740 0.617837 0.378157 -0.665955
O52   O     O_R   0.691042 0.609082 0.618941 -0.739777
H82   H     H_    0.641310 0.597695 0.648575 0.308350
C91   C     C_2   0.181520 0.866915 0.981866 1.045552
O53   O     O_2   0.112376 0.857900 0.916773 -0.641915
O54   O     O_R   0.200742 0.883228 0.137244 -0.736317
H83   H     H_    0.152019 0.884491 0.180939 0.337361
C92   C     C_2   0.162049 0.114191 0.423063 0.996280
O55   O     O_2   0.095025 0.119108 0.339079 -0.617952
O56   O     O_R   0.172389 0.091082 0.567518 -0.783933
H84   H     H_    0.120339 0.078913 0.585394 0.327492
N13   N     N_3   0.303971 0.625367 0.175453 -0.189586
H85   H     H_    0.349934 0.649977 0.195556 0.176480
H86   H     H_    0.271867 0.630385 0.058967 0.184896
N14   N     N_3   0.299438 0.371937 0.671858 -0.200185
H87   H     H_    0.339409 0.344607 0.681165 0.123324
H88   H     H_    0.266792 0.371856 0.554694 0.199440
N15   N     N_3   0.819251 0.116327 0.214408 -0.165926
H89   H     H_    0.864352 0.141462 0.226772 0.161698
H90   H     H_    0.790917 0.114369 0.094085 0.172371
N16   N     N_3   0.797237 0.871444 0.670854 -0.178958
H91   H     H_    0.836138 0.843823 0.678192 0.112554
H92   H     H_    0.762444 0.870346 0.555081 0.186685
C93   C     C_2   0.919042 0.415471 0.780180 1.113773
O57   O     O_2   0.984630 0.412872 0.867288 -0.637135
O58   O     O_R   0.901503 0.449858 0.666816 -0.733035
H93   H     H_    0.952881 0.463818 0.653976 0.381176
C94   C     C_2   0.904398 0.579452 0.254900 1.141894
O59   O     O_2   0.879820 0.547965 0.161388 -0.620329
O60   O     O_R   0.980526 0.579379 0.349582 -0.785854
H94   H     H_    0.009358 0.551083 0.330295 0.347654
C95   C     C_2   0.416105 0.915371 0.777651 1.103455
O61   O     O_2   0.480949 0.913861 0.868144 -0.644936
O62   O     O_R   0.399101 0.949017 0.661646 -0.732552
H95   H     H_    0.450746 0.963393 0.651791 0.380318
C96   C     C_2   0.398728 0.076906 0.246457 1.131245
O63   O     O_2   0.374168 0.042475 0.168148 -0.617423
O64   O     O_R   0.476615 0.080483 0.331840 -0.765153
H96   H     H_    0.505900 0.051446 0.322289 0.343964
C97   C     C_2   0.742552 0.283083 0.412575 1.225856
O65   O     O_2   0.701805 0.317300 0.371845 -0.642213
O66   O     O_R   0.773935 0.259756 0.301347 -0.780867
H97   H     H_    0.755605 0.273333 0.190884 0.342328
C98   C     C_2   0.710956 0.705730 0.920785 1.158892
O67   O     O_2   0.734940 0.714688 0.803303 -0.558826
O68   O     O_R   0.648552 0.674061 0.913219 -0.755623
H98   H     H_    0.629308 0.659073 0.805445 0.349546
C99   C     C_2   0.218894 0.788480 0.421354 1.187191
O69   O     O_2   0.173235 0.821001 0.408230 -0.657220
O70   O     O_R   0.236785 0.769539 0.286580 -0.804859
H99   H     H_    0.209150 0.786114 0.185769 0.323375
C100  C     C_2   0.229889 0.209236 0.907950 1.060780
O71   O     O_2   0.255926 0.227721 0.804154 -0.630401
O72   O     O_R   0.186592 0.167777 0.877354 -0.740541
H100  H     H_    0.193699 0.152346 0.777466 0.361416
C101  C     C_2   0.286567 0.707745 0.780561 1.047291
O73   O     O_2   0.263405 0.724796 0.889271 -0.641366
O74   O     O_R   0.338618 0.670280 0.807681 -0.822813
H101  H     H_    0.359682 0.663255 0.924375 0.325867
C102  C     C_2   0.276619 0.288097 0.278417 1.239050
O75   O     O_2   0.282185 0.261660 0.390735 -0.633464
O76   O     O_R   0.306391 0.333651 0.305071 -0.784106
H102  H     H_    0.343528 0.337683 0.413797 0.301534
C103  C     C_2   0.763962 0.217570 0.806291 1.119621
O77   O     O_2   0.731136 0.243016 0.882695 -0.655045
O78   O     O_R   0.807715 0.180213 0.881165 -0.814323
H103  H     H_    0.813768 0.181637 0.999472 0.314506
C104  C     C_2   0.771265 0.789784 0.273747 1.074844
O79   O     O_2   0.765050 0.766569 0.387819 -0.633745
O80   O     O_R   0.805809 0.834340 0.295868 -0.814682
H104  H     H_    0.837746 0.839748 0.408450 0.294652
C105  C     C_2   0.076260 0.729166 0.029646 1.015730
O81   O     O_2   0.094087 0.756711 0.936432 -0.559368
O82   O     O_R   0.128150 0.693332 0.090124 -0.761850
H105  H     H_    0.182339 0.699279 0.070635 0.373257
C106  C     C_2   0.075864 0.295841 0.535818 0.970634
O83   O     O_2   0.085473 0.336560 0.573476 -0.584283
O84   O     O_R   0.134474 0.274447 0.477800 -0.742231
H106  H     H_    0.187287 0.290912 0.518034 0.355761
C107  C     C_2   0.576052 0.205921 0.171595 0.959986
O85   O     O_2   0.631946 0.217451 0.277987 -0.719034
O86   O     O_R   0.586956 0.173013 0.063297 -0.720766
H107  H     H_    0.644646 0.165049 0.083327 0.350119
C108  C     C_2   0.578221 0.793107 0.567827 0.981354
O87   O     O_2   0.577060 0.833934 0.532534 -0.543395
O88   O     O_R   0.650453 0.770473 0.607162 -0.763540
H108  H     H_    0.694974 0.789943 0.583923 0.372735
C109  C     C_2   0.025535 0.716018 0.260833 0.873791
O89   O     O_2   0.053926 0.740786 0.375710 -0.646271
O90   O     O_R   0.024614 0.668366 0.280676 -0.749336
H109  H     H_    0.011770 0.660142 0.383163 0.315340
C110  C     C_2   0.018834 0.270787 0.751277 0.906596
O91   O     O_2   0.009340 0.307504 0.813876 -0.678267
O92   O     O_R   0.050353 0.232883 0.846226 -0.786740
H110  H     H_    0.067785 0.240539 0.962959 0.359258
C111  C     C_2   0.470034 0.214752 0.304786 0.899510
O93   O     O_2   0.424623 0.238777 0.355683 -0.657326
O94   O     O_R   0.492132 0.171483 0.370685 -0.790952
H111  H     H_    0.455720 0.159629 0.435814 0.324358
C112  C     C_2   0.501995 0.767702 0.751498 0.848290
O95   O     O_2   0.502682 0.804776 0.819953 -0.689571
O96   O     O_R   0.507959 0.726195 0.837834 -0.791150
H112  H     H_    0.522321 0.731360 0.956359 0.362936
C113  C     C_2   0.965182 0.820281 0.966873 1.249979
O97   O     O_2   0.943871 0.860495 0.979751 -0.659713
O98   O     O_R   0.971033 0.804172 0.819696 -0.760201
H113  H     H_    0.965341 0.830332 0.739125 0.315073
C114  C     C_2   0.953731 0.181287 0.568384 1.098205
O99   O     O_2   0.945811 0.142222 0.509476 -0.667998
O100  O     O_R   0.919096 0.190975 0.692602 -0.775163
H114  H     H_    0.897021 0.161380 0.729669 0.355288
C115  C     C_2   0.453005 0.313276 0.070076 1.155932
O101  O     O_2   0.389669 0.313003 0.103734 -0.646768
O102  O     O_R   0.468159 0.345389 0.960268 -0.775592
H115  H     H_    0.423680 0.368330 0.924821 0.313135
C116  C     C_2   0.533215 0.708153 0.367068 1.185241
O103  O     O_2   0.596726 0.723040 0.350636 -0.588515
O104  O     O_R   0.486215 0.680309 0.247339 -0.807951
H116  H     H_    0.510406 0.675939 0.153471 0.349907
C117  C     C_2   0.673340 0.544978 0.898474 1.026105
O105  O     O_2   0.601110 0.544960 0.874523 -0.629715
O106  O     O_R   0.715333 0.585484 0.955913 -0.759732
H117  H     H_    0.773537 0.582439 0.961621 0.322816
C118  C     C_2   0.696185 0.445116 0.409511 1.045256
O107  O     O_2   0.744976 0.416094 0.468888 -0.599702
O108  O     O_R   0.615177 0.434318 0.381206 -0.838911
H118  H     H_    0.604808 0.401480 0.415065 0.334614
C119  C     C_2   0.175168 0.043408 0.887565 1.085227
O109  O     O_2   0.103123 0.046428 0.861193 -0.623394
O110  O     O_R   0.221687 0.082026 0.946730 -0.752927
H119  H     H_    0.279165 0.077302 0.948547 0.316346
C120  C     C_2   0.195745 0.943810 0.420385 1.034328
O111  O     O_2   0.242680 0.914506 0.484975 -0.609584
O112  O     O_R   0.114128 0.934679 0.391174 -0.836796
H120  H     H_    0.101565 0.902767 0.429522 0.348160

loop_
_geom_bond_atom_site_label_1
_geom_bond_atom_site_label_2
_geom_bond_distance
_ccdc_geom_bond_type
C113  O97   1.230158 D    
C15   H19   1.103885 S    
P7    O48   1.664353 S    
C106  O84   1.392590 S    
C30   H46   1.109420 S    
P8    O47   1.645609 S    
O64   H96   0.996427 S    
C2    H10   1.107096 S    
O38   C13   1.402629 S    
C108  O87   1.210061 D    
C61   C67   1.382588 D    
C107  O85   1.208783 D    
C5    C109  1.516934 S    
C79   N15   1.435126 S    
C120  O111  1.217921 D    
P5    Ba1   3.555862 S    
O25   Ba1   2.984464 S    
N15   H89   1.044512 S    
C25   N5    1.461911 S    
C34   C50   1.367970 D    
N16   H91   1.041061 S    
C63   C99   1.482495 S    
O29   Ba1   2.890130 S    
C35   C47   1.492546 S    
P2    C82   1.877090 S    
O42   C6    1.431631 S    
O31   Ba3   2.890130 S    
O24   C32   1.416227 S    
C11   N11   1.476713 S    
P4    O8    1.647882 S    
C29   H45   1.107629 S    
C28   N8    1.461582 S    
C101  O74   1.397659 S    
C20   H32   1.104827 S    
P9    O41   1.803376 S    
C62   C98   1.468435 S    
P11   O43   1.797478 S    
C40   H56   1.068147 S    
N6    H67   1.045712 S    
C112  O96   1.398827 S    
P14   C85   1.874455 S    
N1    H58   1.045808 S    
C23   C27   1.537099 S    
Ba1   O45   2.908849 S    
O80   H104  1.010482 S    
C22   N2    1.457067 S    
O56   H84   1.013194 S    
C37   C85   1.400139 A    
C12   C116  1.519201 S    
C14   H18   1.102855 S    
C17   H25   1.111274 S    
C99   O69   1.220979 D    
O14   P13   1.535605 D    
P12   O44   1.782952 S    
C10   H14   1.102906 S    
O96   H112  1.008698 S    
O10   P13   1.740501 S    
C10   C114  1.514513 S    
N14   H88   1.037135 S    
P6    Ba2   3.543281 S    
C119  O109  1.222369 D    
C4    H12   1.101554 S    
C41   C57   1.446335 A    
O110  H119  1.007457 S    
P16   C87   1.843351 S    
C55   C63   1.538342 S    
C50   C54   1.470439 A    
C69   C77   1.476386 S    
O5    Ba2   2.914704 S    
C56   C64   1.546285 S    
O27   Ba3   2.984464 S    
O7    Ba4   2.914704 S    
O30   Ba2   2.880069 S    
O106  H117  1.006846 S    
C39   C87   1.399629 A    
O18   C22   1.398725 S    
O4    Ba4   2.980759 S    
C4    C32   1.509380 S    
C95   O62   1.377216 S    
C1    H49   1.103842 S    
P2    O18   1.752666 S    
P7    Ba3   3.555862 S    
P10   C49   1.891237 S    
C19   H23   1.101032 S    
C72   C80   1.489346 S    
P10   O42   1.780018 S    
H4    C32   1.103800 S    
P3    O7    1.629780 S    
O86   H107  1.005517 S    
C18   H26   1.110670 S    
O108  H118  1.013977 S    
C104  O79   1.219663 D    
O98   H113  1.015442 S    
C5    C9    1.596359 S    
C115  O101  1.207290 D    
C7    C11   1.598678 S    
C41   C45   1.426104 A    
N11   H77   1.043600 S    
C120  O112  1.401362 S    
C5    C105  1.517409 S    
C37   H53   1.066553 S    
C111  O93   1.216836 D    
P6    C45   1.926057 S    
Ba3   Ba4   4.781814 S    
O22   P13   1.748464 S    
C54   C62   1.540863 S    
C37   C81   1.480174 S    
C39   H55   1.065464 S    
C89   O49   1.220579 D    
O16   P15   1.539897 D    
C61   C97   1.480216 S    
N2    H60   1.045803 S    
C90   O51   1.222060 D    
Ba3   O48   3.057287 S    
C102  O76   1.397614 S    
C36   C48   1.490120 S    
P9    O29   1.810541 S    
O26   Ba2   2.958101 S    
O6    Ba1   2.940731 S    
C91   O53   1.221934 D    
C105  O82   1.393425 S    
O9    Ba1   2.874574 S    
P12   O32   1.784999 S    
C27   H39   1.111596 S    
C64   C66   1.386792 D    
C100  O72   1.389639 S    
C15   C19   1.533349 S    
C8    C108  1.509541 S    
C78   C82   1.347138 D    
C3    H11   1.104951 S    
P5    C46   1.911933 S    
C92   O56   1.392555 S    
O54   H83   1.011128 S    
C26   N6    1.461614 S    
C93   O57   1.208570 D    
H3    C31   1.086542 S    
C98   O68   1.395527 S    
O24   P15   1.758380 S    
Ba4   O48   2.934854 S    
C19   H27   1.110456 S    
P13   C86   1.854418 S    
C109  O90   1.378437 S    
C73   C85   1.498292 S    
O17   C21   1.398773 S    
C4    H52   1.107513 S    
C1    C29   1.512752 S    
C36   C52   1.364747 D    
C24   H36   1.112280 S    
C76   C88   1.504330 S    
C25   H37   1.111645 S    
C97   O65   1.219825 D    
C40   C88   1.410538 A    
C9    C113  1.508503 S    
O12   Ba4   2.884978 S    
C80   C84   1.349352 D    
H1    C29   1.095531 S    
C96   O63   1.211473 D    
C75   C87   1.499387 S    
C62   C68   1.383626 D    
N4    H64   1.045914 S    
N13   H86   1.040347 S    
C21   H33   1.111236 S    
C6    C110  1.519894 S    
P8    Ba4   3.543281 S    
O20   C24   1.398052 S    
C23   H35   1.110919 S    
P5    O37   1.752844 S    
C12   N12   1.464445 S    
C67   C103  1.484827 S    
C35   C95   1.432887 S    
C17   H21   1.109893 S    
O10   Ba2   2.884978 S    
N12   H79   1.050658 S    
C33   C45   1.495703 S    
C66   C74   1.525938 S    
C8    C12   1.585955 S    
C94   O60   1.377886 S    
C43   C91   1.474132 S    
O9    P14   1.746239 S    
C93   O58   1.377456 S    
O66   H97   1.013816 S    
C41   C89   1.471948 S    
P7    C48   1.925189 S    
P8    C47   1.923056 S    
O44   C8    1.433039 S    
C38   C82   1.475079 S    
C20   H24   1.109802 S    
N10   H75   1.030864 S    
N5    H66   1.045942 S    
O19   C23   1.398903 S    
N16   H92   1.039485 S    
C77   N13   1.431606 S    
C71   C75   1.476705 S    
C42   C58   1.436776 A    
Ba2   O46   2.934854 S    
C69   C73   1.468115 S    
C56   C60   1.463040 A    
C21   C25   1.536627 S    
O60   H94   0.995526 S    
O40   C15   1.402354 S    
C49   C53   1.449827 A    
C52   C56   1.468304 A    
C116  O104  1.398214 S    
C9    N9    1.460852 S    
C16   C20   1.530150 S    
C92   O55   1.225036 D    
P3    C83   1.877919 S    
C12   H16   1.105465 S    
P1    C81   1.864396 S    
C14   C118  1.502190 S    
N6    H68   1.045985 S    
C112  O95   1.217138 D    
C2    H50   1.108816 S    
O37   C14   1.399840 S    
N1    H57   1.043324 S    
C13   C117  1.512325 S    
C114  O100  1.388242 S    
O39   C16   1.399731 S    
N8    H72   1.046006 S    
P1    O1    1.585267 D    
C72   C76   1.472372 S    
P11   C52   1.912656 S    
P6    O38   1.756296 S    
P3    O3    1.585267 D    
C117  O106  1.390083 S    
P4    O20   1.749841 S    
C18   H22   1.110508 S    
O104  H116  1.013404 S    
C15   C119  1.505955 S    
C7    C111  1.500629 S    
C33   C93   1.431419 S    
C106  O83   1.211539 D    
C103  O78   1.389770 S    
P1    Ba1   3.542328 S    
C42   C46   1.412385 A    
N15   H90   1.042019 S    
O94   H111  1.003311 S    
P3    Ba3   3.542328 S    
O100  H114  1.011881 S    
O41   C5    1.442890 S    
C110  O92   1.399555 S    
C54   C58   1.463481 A    
C44   C60   1.447432 A    
C32   H48   1.105893 S    
C28   H40   1.111706 S    
C99   O70   1.394808 S    
C53   C61   1.543998 S    
O76   H102  1.011138 S    
C113  O98   1.386790 S    
C79   C83   1.349259 D    
C3    H51   1.108700 S    
C108  O88   1.389415 S    
C2    C30   1.519220 S    
C107  O86   1.380060 S    
P9    O33   1.544740 D    
O72   H100  1.008987 S    
P10   O30   1.761440 S    
P1    O5    1.629780 S    
O50   H81   1.011578 S    
P12   O36   1.544592 D    
N3    H61   1.043489 S    
C13   H17   1.102573 S    
C101  O73   1.218560 D    
C1    H5    1.110326 S    
C38   C86   1.404564 A    
C3    H7    1.109533 S    
O68   H98   1.008072 S    
C78   N14   1.431257 S    
C95   O61   1.208510 D    
C6    C106  1.524864 S    
O88   H108  1.008821 S    
C44   C48   1.421100 A    
C44   C92   1.476636 S    
P6    O26   1.586652 D    
C65   C101  1.470202 S    
P11   O35   1.546235 D    
N7    H70   1.045913 S    
P8    O40   1.750895 S    
C19   H31   1.111140 S    
N8    H71   1.045623 S    
O92   H110  1.008032 S    
C70   C78   1.479425 S    
O11   P16   1.758489 S    
P2    Ba2   3.554191 S    
C24   C28   1.535140 S    
C27   H43   1.109532 S    
Ba1   O46   3.057287 S    
O21   C29   1.417692 S    
C25   H41   1.110417 S    
C40   C84   1.480224 S    
H2    C30   1.101547 S    
C1    H9    1.105511 S    
C63   C65   1.376713 D    
O58   H93   1.005612 S    
O82   H105  1.010279 S    
O84   H106  1.010480 S    
Ba1   Ba2   4.781814 S    
P6    O45   1.645609 S    
C11   H15   1.112971 S    
Ba3   O47   2.908849 S    
C102  O75   1.221608 D    
P9    C50   1.914621 S    
O1    Ba1   2.955100 S    
C80   N16   1.429201 S    
O3    Ba3   2.955100 S    
C64   C100  1.463922 S    
C105  O81   1.221717 D    
C11   C115  1.491475 S    
O78   H103  1.007831 S    
C27   N7    1.461993 S    
N14   H87   1.045238 S    
C100  O71   1.221740 D    
C6    C10   1.588729 S    
C33   C49   1.365381 D    
C119  O110  1.385395 S    
C34   C46   1.493258 S    
C34   C94   1.440320 S    
C43   C59   1.440927 A    
C3    C31   1.514240 S    
C38   H54   1.070179 S    
O90   H109  0.996976 S    
P1    O17   1.753828 S    
C98   O67   1.219392 D    
P3    O19   1.754260 S    
O102  H115  1.012115 S    
C21   N1    1.456294 S    
P4    O4    1.584157 D    
C109  O89   1.222357 D    
C31   H47   1.095321 S    
C7    C107  1.501982 S    
C28   H44   1.107852 S    
P5    O46   1.664353 S    
C103  O77   1.223303 D    
C71   C79   1.487821 S    
C115  O102  1.394515 S    
P4    C84   1.895989 S    
C14   C18   1.528799 S    
C17   H29   1.100476 S    
C16   H20   1.098269 S    
O15   P16   1.533403 D    
C104  O80   1.398320 S    
C36   C96   1.437836 S    
C77   C81   1.345348 D    
O13   P14   1.537496 D    
C9    H13   1.116405 S    
N13   H85   1.041713 S    
P4    Ba4   3.554191 S    
C111  O94   1.386397 S    
O70   H99   1.012146 S    
C66   C102  1.490075 S    
C24   N4    1.456403 S    
O2    Ba2   2.980759 S    
C23   N3    1.457588 S    
P2    O2    1.584157 D    
C13   C17   1.532966 S    
C42   C90   1.473714 S    
P12   C51   1.904832 S    
P7    O39   1.755935 S    
C74   C86   1.501297 S    
N12   H80   1.042895 S    
C89   O50   1.388668 S    
C118  O108  1.400776 S    
O11   Ba3   2.874574 S    
C4    H8    1.098648 S    
N2    H59   1.043195 S    
C90   O52   1.388648 S    
C55   C59   1.457403 A    
O74   H101  1.011280 S    
N11   H78   1.045723 S    
C94   O59   1.215921 D    
C51   C55   1.460360 A    
C91   O54   1.388311 S    
C26   H38   1.111710 S    
C43   C47   1.421613 A    
O32   Ba4   2.880069 S    
N3    H62   1.045642 S    
C39   C83   1.477517 S    
C53   C57   1.454449 A    
N10   H76   1.040185 S    
N5    H65   1.045849 S    
O23   C31   1.401777 S    
C118  O107  1.218725 D    
C22   H34   1.111672 S    
N9    H74   1.040079 S    
O62   H95   1.006318 S    
P10   O34   1.543236 D    
O12   P15   1.737972 S    
P11   O31   1.788689 S    
Ba4   O47   3.061928 S    
O52   H82   1.011528 S    
P2    O6    1.647882 S    
P7    O27   1.585518 D    
C116  O103  1.220067 D    
P8    O28   1.586652 D    
C18   H30   1.105729 S    
C10   N10   1.463202 S    
C67   C75   1.525507 S    
C2    H6    1.107605 S    
C65   C73   1.494319 S    
C114  O99   1.224119 D    
O23   P16   1.755816 S    
C20   H28   1.110842 S    
O21   P14   1.753213 S    
C8    C112  1.518418 S    
C97   O66   1.395547 S    
O22   C30   1.410199 S    
C117  O105  1.222785 D    
O43   C7    1.433647 S    
C16   C120  1.501140 S    
C96   O64   1.379188 S    
C26   H42   1.110105 S    
C68   C104  1.477728 S    
N4    H63   1.043428 S    
P15   C88   1.875328 S    
C70   C74   1.475400 S    
P5    O25   1.585518 D    
C22   C26   1.535536 S    
C35   C51   1.365786 D    
C68   C76   1.508661 S    
N7    H69   1.045745 S    
Ba2   O45   3.061928 S    
C110  O91   1.217142 D    
N9    H73   1.046633 S    
O28   Ba4   2.958101 S    
O8    Ba3   2.940731 S    
O112  H120  1.013561 S    
