data_mof_unit_47075.cif
_audit_creation_date              2012-12-11T17:41:43-0500
_audit_creation_method            fapswitch 2.2
_symmetry_space_group_name_H-M    P1
_symmetry_Int_Tables_number       1
_space_group_crystal_system       triclinic
_cell_length_a                    15.519011
_cell_length_b                    15.074187
_cell_length_c                    15.104975
_cell_angle_alpha                 109.60014
_cell_angle_beta                  121.453002
_cell_angle_gamma                 59.022852
_cell_volume                      2573.64016191

loop_
_atom_site_label
_atom_site_type_symbol
_atom_type_description
_atom_site_fract_x
_atom_site_fract_y
_atom_site_fract_z
_atom_type_partial_charge
C1    C     C_R   0.802967 0.938545 0.773286 -0.130839
C2    C     C_R   0.292940 0.421419 0.155921 -0.098891
C3    C     C_R   0.637212 0.796946 0.883783 -0.144396
C4    C     C_R   0.372585 0.327805 0.133441 -0.146032
C5    C     C_R   0.672759 0.864577 0.969656 0.115856
C6    C     C_R   0.343243 0.246289 0.070233 0.123535
C7    C     C_R   0.787337 0.832716 0.035770 -0.177556
C8    C     C_R   0.231793 0.261545 0.024485 -0.180007
C9    C     C_R   0.864669 0.735418 0.015466 -0.118728
C10   C     C_R   0.152130 0.355348 0.046796 -0.110642
C11   C     C_R   0.828318 0.668700 0.929843 -0.089309
C12   C     C_R   0.243082 0.008264 0.209350 -0.121047
C13   C     C_R   0.182840 0.435003 0.113026 -0.103540
C14   C     C_R   0.588667 0.980961 0.086811 -0.250244
C15   C     C_R   0.429838 0.136388 0.951189 -0.226955
C16   C     C_R   0.200015 0.274604 0.441827 -0.085680
C17   C     C_R   0.757052 0.710688 0.510051 -0.088497
C18   C     C_R   0.506486 0.068600 0.111523 0.050609
C19   C     C_R   0.509206 0.046011 0.925123 0.065811
C20   C     C_R   0.427124 0.148728 0.044731 0.009900
C21   C     C_R   0.590561 0.966950 0.993655 0.019824
C22   C     C_2   0.023268 0.348776 0.464430 -0.210711
C23   C     C_R   0.137838 0.274698 0.482293 0.150966
C24   C     C_2   0.851017 0.603702 0.388976 -0.207576
C25   C     C_2   0.963372 0.419333 0.395689 -0.102757
C26   C     C_2   0.868817 0.512624 0.405337 -0.066465
C27   C     C_2   0.983117 0.955930 0.845323 -0.221413
C28   C     C_2   0.150501 0.884867 0.101542 -0.205268
C29   C     C_R   0.382392 0.793101 0.827867 -0.102041
C30   C     C_R   0.683592 0.195670 0.338618 -0.122222
C31   C     C_R   0.438832 0.707984 0.774157 -0.133699
C32   C     C_R   0.608034 0.274373 0.377908 -0.110331
C33   C     C_R   0.386503 0.692863 0.665070 0.182817
C34   C     C_R   0.788793 0.701151 0.435373 0.154507
C35   C     C_R   0.645702 0.331819 0.472864 0.180119
C36   C     C_R   0.275382 0.761327 0.610782 -0.131728
C37   C     C_R   0.760235 0.307288 0.529740 -0.148351
C38   C     C_R   0.219308 0.846631 0.664604 -0.117139
C39   C     C_R   0.835772 0.226860 0.491423 -0.116455
C40   C     C_R   0.595595 0.227759 0.557144 -0.116636
C41   C     C_R   0.404708 0.783167 0.505488 -0.093189
C42   C     C_R   0.272972 0.862802 0.773057 -0.080206
C43   C     C_R   0.797337 0.171477 0.395527 -0.081518
C44   C     C_R   0.451197 0.504311 0.606743 0.168205
C45   C     C_R   0.505013 0.321684 0.541686 0.130062
C46   C     C_R   0.546661 0.520111 0.500100 0.161165
C47   C     C_R   0.511575 0.416907 0.557507 -0.065835
C48   C     C_R   0.493640 0.606508 0.555346 -0.061291
C49   C     C_R   0.566004 0.423438 0.510215 -0.095078
C50   C     C_R   0.444982 0.600452 0.608838 -0.102236
C51   C     C_2   0.042408 0.887095 0.915741 -0.091814
C52   C     C_2   0.136759 0.897401 0.010710 -0.096125
C53   C     C_R   0.407945 0.045847 0.731656 -0.127336
C54   C     C_R   0.593032 0.012535 0.286002 -0.148116
C55   C     C_R   0.409474 0.305530 0.474714 -0.105301
C56   C     C_R   0.495123 0.700448 0.557592 0.093776
C57   C     C_R   0.589510 0.710663 0.585584 -0.096811
C58   C     C_R   0.594261 0.979888 0.804202 -0.108008
C59   C     C_R   0.408311 0.084232 0.208743 -0.134544
C60   C     C_R   0.198786 0.185108 0.532547 -0.148293
C61   C     C_R   0.757610 0.800642 0.417947 -0.141885
C62   C     C_R   0.804124 0.029304 0.684455 -0.152374
C63   C     C_R   0.242000 0.916619 0.299075 -0.133369
C64   C     C_R   0.866717 0.976737 0.772674 0.155636
C65   C     C_R   0.211469 0.933104 0.199501 0.150998
C66   C     C_R   0.503023 0.033679 0.824731 0.050770
C67   C     C_R   0.501417 0.063015 0.201136 0.058988
C68   C     C_R   0.714641 0.699392 0.864161 -0.128246
H1    H     H_    0.830837 0.882112 0.822200 0.090956
H2    H     H_    0.456630 0.319289 0.163796 0.131961
H3    H     H_    0.816621 0.883477 0.102682 0.110657
H4    H     H_    0.207164 0.200425 0.972732 0.104388
H5    H     H_    0.952750 0.711576 0.066370 0.103161
H6    H     H_    0.066573 0.366408 0.012538 0.107109
H7    H     H_    0.647117 0.917728 0.136714 0.135213
H8    H     H_    0.369393 0.196737 0.898012 0.141794
H9    H     H_    0.827855 0.508938 0.443366 0.155085
H10   H     H_    0.993716 0.417695 0.344475 0.124224
H11   H     H_    0.893416 0.606325 0.351608 0.129925
H12   H     H_    0.229355 0.041961 0.147932 0.087305
H13   H     H_    0.991733 0.351700 0.515412 0.134686
H14   H     H_    0.229425 0.928681 0.814684 0.094504
H15   H     H_    0.855570 0.110183 0.365057 0.098255
H16   H     H_    0.172936 0.325534 0.387675 0.078712
H17   H     H_    0.770581 0.649641 0.544205 0.103187
H18   H     H_    0.423587 0.805056 0.911944 0.122419
H19   H     H_    0.654205 0.153872 0.263681 0.117362
H20   H     H_    0.523189 0.653825 0.817450 0.126405
H21   H     H_    0.520464 0.291449 0.334831 0.116768
H22   H     H_    0.231974 0.748031 0.527091 0.101913
H23   H     H_    0.105715 0.849213 0.103113 0.126473
H24   H     H_    0.790536 0.351470 0.602961 0.109588
H25   H     H_    0.133954 0.899704 0.622324 0.102740
H26   H     H_    0.923821 0.208523 0.535291 0.098985
H27   H     H_    0.682441 0.213207 0.600785 0.106330
H28   H     H_    0.317947 0.802749 0.478069 0.081212
H29   H     H_    0.322426 0.081108 0.720063 0.098842
H30   H     H_    0.679319 0.992637 0.309549 0.092842
H31   H     H_    0.324586 0.363373 0.441863 0.116077
H32   H     H_    0.674842 0.661265 0.632434 0.094274
H33   H     H_    0.680753 0.956868 0.859074 0.112862
H34   H     H_    0.015989 0.006275 0.848815 0.124568
H35   H     H_    0.322438 0.128996 0.159640 0.102772
H36   H     H_    0.168027 0.154687 0.560014 0.086872
H37   H     H_    0.770825 0.820859 0.365196 0.097656
H38   H     H_    0.835523 0.054776 0.652883 0.094513
H39   H     H_    0.227820 0.864097 0.318523 0.097419
H40   H     H_    0.180517 0.933402 0.008113 0.122946
H41   H     H_    0.010579 0.836686 0.913644 0.127787
H42   H     H_    0.888214 0.593218 0.914483 0.102085
H43   H     H_    0.121095 0.507606 0.130122 0.098830
H44   H     H_    0.686512 0.647526 0.798134 0.107504
H45   H     H_    0.316364 0.483704 0.205761 0.135465
H46   H     H_    0.549777 0.821047 0.831238 0.126641
I1    I     I_    0.372777 0.490099 0.680509 -0.428857
I2    I     I_    0.585668 0.534389 0.388814 -0.483190
N1    N     N_R   0.705410 0.966550 0.689210 -0.043746
N2    N     N_R   0.556610 0.796750 0.548620 -0.036456
N3    N     N_R   0.556610 0.951620 0.703500 -0.046675
N4    N     N_R   0.443390 0.048380 0.296500 -0.039073
N5    N     N_R   0.294590 0.131500 0.522480 -0.039892
N6    N     N_R   0.705410 0.868500 0.477520 -0.044440
N7    N     N_R   0.705410 0.023370 0.632390 -0.039401
N8    N     N_R   0.294590 0.976630 0.367610 -0.046288
N9    N     N_R   0.294590 0.033450 0.310790 -0.048048
N10   N     N_R   0.294590 0.188320 0.465660 -0.043960
N11   N     N_R   0.705410 0.811680 0.534340 -0.049064
N12   N     N_R   0.556610 0.157790 0.497330 -0.046616
N13   N     N_R   0.443390 0.842210 0.502670 -0.039700
N14   N     N_R   0.443390 0.997080 0.657540 -0.043540
N15   N     N_R   0.556610 0.002920 0.342460 -0.034433
N16   N     N_R   0.443390 0.203250 0.451380 -0.049593
Ni1   Ni    Ni4+2 0.629830 0.882720 0.617850 0.222146
Ni2   Ni    Ni4+2 0.370170 0.117280 0.382150 0.217292
Ni3   Ni    Ni4+2 0.629830 0.013030 0.487540 0.220471
Ni4   Ni    Ni4+2 0.370170 0.986970 0.512460 0.214975

loop_
_geom_bond_atom_site_label_1
_geom_bond_atom_site_label_2
_ccdc_geom_bond_type
N9    Ni2   S    
C41   N13   A    
C63   C65   A    
C59   N4    A    
C45   C55   A    
C29   C42   A    
N4    N15   A    
C43   H15   S    
C14   C18   A    
C3    C68   A    
C42   H14   S    
N1    Ni1   S    
C33   C36   A    
C4    H2    S    
C63   N8    A    
C47   C49   A    
C15   C19   A    
C54   N15   A    
C46   C49   A    
N3    Ni1   S    
C17   H17   S    
C14   C21   A    
C35   C37   A    
C24   C26   D    
C38   C42   A    
N15   Ni3   S    
C7    H3    S    
C2    H45   S    
C41   H28   S    
C44   C50   A    
C40   N12   A    
C12   H12   S    
C16   H16   S    
N3    N14   A    
C56   C57   A    
C19   C66   S    
C48   C56   S    
C68   H44   S    
N6    N11   A    
C2    C13   A    
C62   C64   A    
C59   C67   A    
C58   C66   A    
C44   I1    S    
C22   C25   D    
C35   C49   S    
C31   C33   A    
C10   H6    S    
C61   H37   S    
N4    Ni2   S    
C44   C47   A    
C48   C50   A    
C15   H8    S    
C51   H41   S    
C11   H42   S    
C23   C60   A    
C15   C20   A    
C9    H5    S    
N12   N16   A    
C62   N7    A    
C25   C26   S    
C27   C51   D    
C45   C47   S    
C40   C45   A    
C46   C48   A    
C8    H4    S    
C26   H9    S    
N8    Ni4   S    
C51   C52   S    
C22   H13   S    
C4    C6    A    
N12   Ni3   S    
C5    C7    A    
C17   N11   A    
C39   C43   A    
C12   N9    A    
C53   H29   S    
C33   C50   S    
C57   H32   S    
C10   C13   A    
C34   C61   A    
C24   C34   S    
C25   H10   S    
N7    Ni3   S    
C61   N6    A    
C2    C4    A    
C32   C35   A    
C41   C56   A    
N13   Ni4   S    
C24   H11   S    
C32   H21   S    
C58   H33   S    
C1    N1    A    
C53   C66   A    
C9    C11   A    
C52   H40   S    
C29   H18   S    
N2    Ni1   S    
N16   Ni2   S    
C62   H38   S    
C8    C10   A    
C39   H26   S    
C30   C43   A    
C17   C34   A    
C40   H27   S    
C63   H39   S    
C1    C64   A    
C11   C68   A    
C36   H22   S    
C7    C9    A    
C31   H20   S    
C37   H24   S    
C19   C21   A    
N14   Ni4   S    
N11   Ni1   S    
C3    C5    A    
C3    H46   S    
C6    C8    A    
C54   C67   A    
C16   C23   A    
C6    C20   S    
C12   C65   A    
C27   H34   S    
C46   I2    S    
C59   H35   S    
C14   H7    S    
C36   C38   A    
C28   C65   S    
C18   C67   S    
N5    N10   A    
C37   C39   A    
N2    N13   A    
C30   C32   A    
C28   C52   D    
C13   H43   S    
C38   H25   S    
C58   N3    A    
C28   H23   S    
C18   C20   A    
N5    Ni4   S    
N1    N7    A    
C60   N5    A    
C1    H1    S    
N6    Ni3   S    
C27   C64   S    
C5    C21   S    
N10   Ni2   S    
C29   C31   A    
C55   N16   A    
C55   H31   S    
C22   C23   S    
C54   H30   S    
C53   N14   A    
C30   H19   S    
C60   H36   S    
C16   N10   A    
N8    N9    A    
C57   N2    A    
