data_mof_unit_28482.cif
_audit_creation_date              2012-12-10T17:24:13-0500
_audit_creation_method            fapswitch 2.2
_symmetry_space_group_name_H-M    P1
_symmetry_Int_Tables_number       1
_space_group_crystal_system       triclinic
_cell_length_a                    19.284982
_cell_length_b                    10.96127
_cell_length_c                    9.613249
_cell_angle_alpha                 88.400022
_cell_angle_beta                  91.008021
_cell_angle_gamma                 95.305709
_cell_volume                      2022.39890728

loop_
_atom_site_label
_atom_site_type_symbol
_atom_type_description
_atom_site_fract_x
_atom_site_fract_y
_atom_site_fract_z
_atom_type_partial_charge
C1    C     C_R   0.501909 0.262064 0.502938 0.798990
C2    C     C_R   0.288502 0.469135 0.494506 -0.204985
C3    C     C_R   0.924057 0.411731 0.475199 0.449945
C4    C     C_R   0.064284 0.407638 0.472119 0.489157
C5    C     C_R   0.829759 0.513800 0.587265 0.368535
C6    C     C_R   0.758862 0.537006 0.596591 0.072559
C7    C     C_R   0.709073 0.481896 0.500206 -0.070104
C8    C     C_R   0.732418 0.409045 0.395567 -0.199007
C9    C     C_R   0.801983 0.385888 0.388357 -0.198957
C10   C     C_R   0.850568 0.435583 0.485152 -0.040021
C11   C     C_R   0.466478 0.100454 0.760433 -0.305162
C12   C     C_R   0.366586 0.492457 0.499018 0.841397
C13   C     C_R   0.430727 0.028787 0.863489 0.362928
C14   C     C_R   0.406479 0.908215 0.836889 0.400410
C15   C     C_R   0.422731 0.858244 0.711906 -0.265669
C16   C     C_R   0.463657 0.926448 0.611358 0.036437
C17   C     C_R   0.478392 0.053830 0.626930 0.037861
C18   C     C_R   0.505044 0.127024 0.509839 -0.130975
C19   C     C_R   0.529399 0.068378 0.391916 0.140553
C20   C     C_R   0.520256 0.940594 0.387102 -0.098956
C21   C     C_R   0.490222 0.869503 0.496557 -0.127835
C22   C     C_R   0.587995 0.694411 0.129723 0.394991
C23   C     C_R   0.495583 0.736487 0.498320 0.832297
C24   C     C_R   0.617952 0.788847 0.043461 -0.195450
C25   C     C_R   0.613401 0.782822 0.903012 -0.278924
C26   C     C_R   0.581750 0.679392 0.845476 -0.134307
C27   C     C_R   0.540787 0.589875 0.922168 0.174133
C28   C     C_R   0.542064 0.592735 0.072350 0.132516
C29   C     C_R   0.461533 0.413866 0.075092 0.009918
C30   C     C_R   0.460956 0.414715 0.927696 -0.048343
C31   C     C_R   0.632937 0.497429 0.501133 0.851645
C32   C     C_R   0.245772 0.502301 0.604737 0.073760
C33   C     C_R   0.173337 0.477814 0.594368 -0.192449
C34   C     C_R   0.141032 0.423126 0.477846 -0.124162
C35   C     C_R   0.181922 0.386593 0.370230 0.368418
C36   C     C_R   0.255027 0.406533 0.379528 0.316078
Cu1   Cu    Cu3+1 0.500000 0.499990 0.640660 0.940540
Cu2   Cu    Cu3+1 0.500000 0.500010 0.359340 1.028604
H1    H     H_    0.488437 0.188176 0.793592 0.203753
H2    H     H_    0.402761 0.765470 0.693902 0.178112
H3    H     H_    0.537606 0.894940 0.298091 0.206700
H4    H     H_    0.430779 0.342081 0.130953 0.225010
H5    H     H_    0.652560 0.863565 0.083293 0.198496
H6    H     H_    0.640203 0.854106 0.838806 0.175108
H7    H     H_    0.593562 0.671470 0.739785 0.218061
H8    H     H_    0.141300 0.504542 0.677947 0.198125
H9    H     H_    0.428347 0.345176 0.874028 0.160877
H10   H     H_    0.696391 0.368489 0.318664 0.159157
H11   H     H_    0.817905 0.328198 0.307247 0.177178
N1    N     N_R   0.028743 0.439570 0.355429 -0.143989
N2    N     N_R   0.959777 0.441469 0.356845 -0.188537
N3    N     N_R   0.959322 0.376163 0.590433 -0.157314
N4    N     N_R   0.028142 0.374472 0.589053 -0.192081
N5    N     N_R   0.500660 0.501210 0.147910 -0.202812
N6    N     N_R   0.500680 0.501290 0.852040 -0.202304
O1    O     O_R   0.499990 0.319640 0.618810 -0.597865
O2    O     O_R   0.500000 0.319660 0.381240 -0.590066
O3    O     O_R   0.400140 0.499970 0.618820 -0.591707
O4    O     O_R   0.400150 0.500000 0.381250 -0.515486
O5    O     O_R   0.500000 0.680340 0.618760 -0.612083
O6    O     O_R   0.500010 0.680360 0.381190 -0.529516
O7    O     O_R   0.599850 0.500000 0.618750 -0.618518
O8    O     O_R   0.599860 0.500030 0.381180 -0.529504
C37   C     C_3   0.273138 0.563085 0.736628 -0.369754
C38   C     C_3   0.281299 0.468208 0.853601 -0.605818
H12   H     H_    0.313165 0.395791 0.819064 0.243177
H13   H     H_    0.307201 0.513352 0.945228 0.272537
H14   H     H_    0.229424 0.424790 0.885164 0.272184
H15   H     H_    0.322401 0.619224 0.719884 0.222251
H16   H     H_    0.236722 0.628925 0.770861 0.232657
Cl1   Cl    Cl    0.416700 0.092018 0.025513 -0.589406
Cl2   Cl    Cl    0.359211 0.815130 0.961183 -0.542926
Cl3   Cl    Cl    0.630548 0.719959 0.290715 -0.690178
Cl4   Cl    Cl    0.141935 0.308317 0.226804 -0.463506
Cl5   Cl    Cl    0.302587 0.340799 0.249850 -0.525539
Cl6   Cl    Cl    0.894765 0.592416 0.693538 -0.563130
C39   C     C_3   0.739195 0.628646 0.700209 -0.381734
C40   C     C_3   0.729211 0.751715 0.627434 -0.732081
H17   H     H_    0.771247 0.776320 0.551298 0.288685
H18   H     H_    0.678108 0.748285 0.572525 0.256991
H19   H     H_    0.731943 0.825082 0.704790 0.229889
H20   H     H_    0.693414 0.590531 0.758609 0.200657
H21   H     H_    0.778934 0.645180 0.783601 0.263228
C41   C     C_3   0.568159 0.142775 0.275317 -0.332244
C42   C     C_3   0.612903 0.073375 0.182127 -0.874361
H22   H     H_    0.647808 0.018482 0.246149 0.275673
H23   H     H_    0.645632 0.139556 0.115885 0.249870
H24   H     H_    0.578721 0.014873 0.111997 0.275671
H25   H     H_    0.530209 0.186362 0.206619 0.265186
H26   H     H_    0.604066 0.215209 0.323364 0.186858

loop_
_geom_bond_atom_site_label_1
_geom_bond_atom_site_label_2
_ccdc_geom_bond_type
C35   Cl4   S    
C16   C21   A    
C4    N4    A    
C35   C36   A    
C2    C12   S    
C20   H3    S    
C7    C8    A    
C39   C40   S    
C26   C27   A    
C29   C30   A    
C1    O1    A    
C34   C35   A    
C5    C6    A    
C29   H4    S    
C40   H18   S    
C29   N5    A    
C39   H21   S    
C15   C16   A    
C2    C32   A    
C18   C19   A    
C26   H7    S    
C12   O4    A    
C19   C20   A    
C8    C9    A    
C38   H13   S    
C37   H16   S    
C9    C10   A    
Cu1   O3    S    
Cu2   O6    S    
C12   O3    A    
C22   C28   A    
C13   C14   A    
C33   H8    S    
Cu1   O1    S    
C31   O7    A    
C41   H26   S    
C25   H6    S    
Cu1   O7    S    
C42   H23   S    
C23   O5    A    
C4    C34   S    
C7    C31   S    
C31   O8    A    
C30   H9    S    
C9    H11   S    
C41   C42   S    
C32   C37   S    
C28   N5    A    
C40   H17   S    
C16   C17   A    
C6    C39   S    
C13   Cl1   S    
N1    N2    A    
C25   C26   A    
C42   H22   S    
C4    N1    A    
C8    H10   S    
Cu1   Cu2   S    
C36   Cl5   S    
C1    O2    A    
Cu2   O2    S    
Cu2   N5    S    
C38   H14   S    
C17   C18   A    
C1    C18   S    
C37   H15   S    
C24   C25   A    
C11   H1    S    
C21   C23   S    
C22   C24   A    
C41   H25   S    
C19   C41   S    
N3    N4    A    
Cu2   O8    S    
C42   H24   S    
C2    C36   A    
C11   C17   A    
C3    N2    A    
C14   Cl2   S    
C3    N3    A    
C6    C7    A    
C30   N6    A    
C32   C33   A    
C5    Cl6   S    
C5    C10   A    
C3    C10   S    
C37   C38   S    
C11   C13   A    
C40   H19   S    
C39   H20   S    
C33   C34   A    
C27   N6    A    
C15   H2    S    
Cu1   O5    S    
Cu2   O4    S    
Cu1   N6    S    
C23   O6    A    
C20   C21   A    
C38   H12   S    
C27   C28   A    
C24   H5    S    
C14   C15   A    
C22   Cl3   S    
