data_mof_unit_33485.cif
_audit_creation_date              2012-12-10T18:13:17-0500
_audit_creation_method            fapswitch 2.2
_symmetry_space_group_name_H-M    P1
_symmetry_Int_Tables_number       1
_space_group_crystal_system       triclinic
_cell_length_a                    10.744978
_cell_length_b                    9.709673
_cell_length_c                    19.225582
_cell_angle_alpha                 89.595203
_cell_angle_beta                  87.882965
_cell_angle_gamma                 90.31628
_cell_volume                      2004.3566301

loop_
_atom_site_label
_atom_site_type_symbol
_atom_type_description
_atom_site_fract_x
_atom_site_fract_y
_atom_site_fract_z
_atom_type_partial_charge
C1    C     C_R   0.260118 0.499806 0.502162 0.715013
C2    C     C_R   0.489748 0.506007 0.069606 0.498126
C3    C     C_R   0.400872 0.572194 0.816966 -0.121345
C4    C     C_R   0.584601 0.427720 0.815714 -0.131746
C5    C     C_R   0.404104 0.572920 0.744451 -0.183054
C6    C     C_R   0.585379 0.424861 0.743217 -0.183959
C7    C     C_R   0.496037 0.498860 0.707490 -0.016467
C8    C     C_R   0.491941 0.500852 0.852888 0.046995
C9    C     C_3   0.066944 0.609581 0.554874 -0.359768
C10   C     C_3   0.066176 0.358992 0.527150 -0.340562
C11   C     C_3   0.923154 0.607500 0.555706 -0.368430
C12   C     C_3   0.924274 0.357211 0.524009 -0.370937
C13   C     C_3   0.076177 0.533242 0.429446 -0.353872
C14   C     C_3   0.120805 0.500396 0.503428 0.119143
C15   C     C_3   0.876612 0.501031 0.502557 0.123702
C16   C     C_R   0.499116 0.500478 0.368187 0.817998
C17   C     C_3   0.932556 0.537971 0.429365 -0.363826
C18   C     C_3   0.624558 0.081368 0.520268 -0.250679
C19   C     C_3   0.628248 0.918315 0.510758 -0.270589
C20   C     C_3   0.418012 0.081468 0.559796 -0.024716
C21   C     C_3   0.431952 0.918377 0.565682 0.019185
C22   C     C_3   0.470381 0.087384 0.429523 -0.110265
C23   C     C_3   0.454719 0.918438 0.432476 -0.126519
C24   C     C_R   0.738812 0.500349 0.501135 0.772240
C25   C     C_R   0.498882 0.499587 0.631769 0.740275
C26   C     C_R   0.408637 0.581831 0.258937 -0.163752
C27   C     C_R   0.579398 0.421828 0.253228 -0.132641
C28   C     C_R   0.407390 0.588498 0.186216 -0.014304
C29   C     C_R   0.574677 0.416767 0.180807 -0.013216
C30   C     C_R   0.490097 0.503586 0.146241 -0.118206
C31   C     C_R   0.495900 0.501681 0.292278 -0.069327
C32   C     C_R   0.490893 0.503394 0.928921 0.414202
Cu1   Cu    Cu3+1 0.499860 0.642410 0.500030 0.935483
Cu2   Cu    Cu3+1 0.499860 0.357590 0.500030 0.942655
H1    H     H_    0.343293 0.641985 0.290060 0.209732
H2    H     H_    0.647417 0.361522 0.279579 0.180591
H3    H     H_    0.902268 0.642822 0.413710 0.190147
H4    H     H_    0.898233 0.464338 0.390191 0.171230
H5    H     H_    0.646091 0.104879 0.575220 0.129451
H6    H     H_    0.671683 0.870956 0.556826 0.152047
H7    H     H_    0.707653 0.128059 0.495487 0.221194
H8    H     H_    0.697822 0.894311 0.469932 0.223378
H9    H     H_    0.456206 0.118888 0.609564 0.077952
H10   H     H_    0.495306 0.905037 0.610218 0.092075
H11   H     H_    0.328951 0.629376 0.844967 0.164274
H12   H     H_    0.655139 0.371501 0.842807 0.159240
H13   H     H_    0.333966 0.629386 0.717225 0.146727
H14   H     H_    0.656855 0.367400 0.714969 0.131783
H15   H     H_    0.099370 0.714166 0.539319 0.237732
H16   H     H_    0.101823 0.277077 0.492704 0.259584
H17   H     H_    0.099498 0.589118 0.608236 0.146300
H18   H     H_    0.092256 0.336308 0.581396 0.166015
H19   H     H_    0.885829 0.580889 0.608919 0.158536
H20   H     H_    0.882597 0.326216 0.575715 0.162757
H21   H     H_    0.889226 0.712417 0.542832 0.184939
H22   H     H_    0.896399 0.278524 0.485599 0.201080
H23   H     H_    0.114901 0.633809 0.411097 0.184687
H24   H     H_    0.110911 0.453505 0.392320 0.168026
N1    N     N_R   0.598442 0.517131 0.031701 -0.194191
N2    N     N_R   0.381488 0.494109 0.035903 -0.186499
N3    N     N_R   0.599101 0.514918 0.962556 -0.208269
N4    N     N_R   0.381973 0.493908 0.966689 -0.206432
N5    N     N_3   0.500250 0.143650 0.501520 -0.217222
N6    N     N_3   0.500250 0.856350 0.501520 -0.215474
O1    O     O_R   0.317570 0.620260 0.500040 -0.602725
O2    O     O_R   0.317570 0.379740 0.500040 -0.600168
O3    O     O_R   0.499870 0.620300 0.400170 -0.575976
O4    O     O_R   0.499870 0.379700 0.400170 -0.550584
O5    O     O_R   0.682190 0.620260 0.500020 -0.572810
O6    O     O_R   0.682190 0.379740 0.500020 -0.559847
O7    O     O_R   0.499890 0.620220 0.599880 -0.610648
O8    O     O_R   0.499890 0.379780 0.599880 -0.603809
C33   C     C_2   0.349998 0.153349 0.401203 0.905151
O9    O     O_2   0.251195 0.143271 0.433485 -0.594002
O10   O     O_R   0.348682 0.216447 0.335336 -0.704843
H25   H     H_    0.263752 0.253089 0.323517 0.328268
C34   C     C_2   0.316536 0.874716 0.423289 0.884448
O11   O     O_2   0.243448 0.869739 0.473030 -0.573989
O12   O     O_R   0.267797 0.858278 0.357232 -0.726238
H26   H     H_    0.174311 0.843307 0.358552 0.336574
C35   C     C_2   0.576378 0.132309 0.373681 0.874869
O13   O     O_2   0.562061 0.112999 0.311574 -0.525143
O14   O     O_R   0.684452 0.202845 0.390828 -0.770311
H27   H     H_    0.747278 0.213661 0.350490 0.322579
C36   C     C_2   0.528818 0.862429 0.366587 0.888897
O15   O     O_2   0.482143 0.865058 0.309435 -0.512972
O16   O     O_R   0.651327 0.814787 0.368840 -0.771776
H28   H     H_    0.686647 0.784116 0.321839 0.337557
C37   C     C_2   0.289167 0.139920 0.571852 0.549698
H29   H     H_    0.279983 0.237241 0.598730 0.036999
O17   O     O_2   0.194611 0.075391 0.559977 -0.492472
C38   C     C_2   0.324860 0.843425 0.603982 0.463612
H30   H     H_    0.298373 0.740415 0.594268 0.118596
O18   O     O_2   0.275020 0.894978 0.655628 -0.575373
C39   C     C_2   0.322381 0.690016 0.154861 0.920926
O19   O     O_2   0.352687 0.750186 0.100713 -0.554275
O20   O     O_R   0.209225 0.721459 0.189277 -0.744019
H31   H     H_    0.160240 0.793578 0.163680 0.352543
C40   C     C_2   0.656003 0.314922 0.144117 0.910705
O21   O     O_2   0.620183 0.255104 0.092718 -0.551294
O22   O     O_R   0.772024 0.282796 0.170460 -0.758527
H32   H     H_    0.818053 0.210607 0.141837 0.352156

loop_
_geom_bond_atom_site_label_1
_geom_bond_atom_site_label_2
_ccdc_geom_bond_type
O16   H28   S    
O22   H32   S    
C27   C29   A    
C33   O9    D    
C39   O19   D    
C9    H17   S    
C4    C8    A    
C10   H18   S    
Cu2   O2    S    
O20   H31   S    
Cu1   O1    S    
C4    H12   S    
C34   O11   D    
C16   C31   S    
C5    H13   S    
C6    H14   S    
C28   C39   S    
C32   N3    A    
C2    N2    A    
C18   N5    S    
C13   H23   S    
N2    N4    A    
C18   C19   S    
C18   H5    S    
Cu2   N5    S    
C21   N6    S    
C22   N5    S    
C11   C15   S    
O14   H27   S    
C1    O1    A    
C16   O4    A    
C37   O17   D    
Cu2   O6    S    
C11   H19   S    
C19   H8    S    
Cu1   O5    S    
C36   O16   S    
C26   C31   A    
C13   C14   S    
C33   O10   S    
C35   O14   S    
C24   O5    A    
Cu1   Cu2   S    
C34   O12   S    
N1    N3    A    
C29   C40   S    
C24   O6    A    
C8    C32   S    
C22   C35   S    
C9    H15   S    
C4    C6    A    
C3    C8    A    
C10   C14   S    
C18   H7    S    
Cu2   O4    S    
C5    C7    A    
C9    C14   S    
C2    N1    A    
C13   H24   S    
C36   O15   D    
C27   C31   A    
C3    H11   S    
C35   O13   D    
O10   H25   S    
C29   C30   A    
C21   H10   S    
C40   O21   D    
C12   C15   S    
C19   N6    S    
C38   O18   D    
C1    O2    A    
C16   O3    A    
C17   H3    S    
C23   C34   S    
C9    C11   S    
C12   H22   S    
C10   C12   S    
C25   O7    A    
C15   C24   S    
C40   O22   S    
C10   H16   S    
Cu2   O8    S    
C20   H9    S    
C11   H21   S    
Cu1   O3    S    
C15   C17   S    
C23   N6    S    
C3    C5    A    
C39   O20   S    
C6    C7    A    
C27   H2    S    
C20   C37   S    
C26   C28   A    
C7    C25   S    
C13   C17   S    
C2    C30   S    
C20   N5    S    
C28   C30   A    
C32   N4    A    
C25   O8    A    
Cu1   N6    S    
C38   H30   S    
C17   H4    S    
C19   H6    S    
Cu1   O7    S    
O12   H26   S    
C26   H1    S    
C20   C21   S    
C23   C36   S    
C22   C23   S    
C1    C14   S    
C22   C33   S    
C37   H29   S    
C12   H20   S    
C21   C38   S    
