data_mof_unit_30984.cif
_audit_creation_date              2013-03-05T15:57:43-0500
_audit_creation_method            fapswitch 2.2
_symmetry_space_group_name_H-M    P1
_symmetry_Int_Tables_number       1
_space_group_crystal_system       triclinic
_cell_length_a                    19.429966
_cell_length_b                    17.648022
_cell_length_c                    12.591187
_cell_angle_alpha                 88.541389
_cell_angle_beta                  98.665676
_cell_angle_gamma                 89.512947
_cell_volume                      4266.52101812

loop_
_atom_site_label
_atom_site_type_symbol
_atom_site_description
_atom_site_fract_x
_atom_site_fract_y
_atom_site_fract_z
_atom_type_partial_charge
O1    O     O_R   0.448200 0.076800 0.373930 -0.607669
O2    O     O_R   0.448200 0.923200 0.373930 -0.591429
O3    O     O_R   0.948200 0.576800 0.373930 -0.607258
O4    O     O_R   0.948200 0.423200 0.373930 -0.592891
O5    O     O_R   0.414750 0.076790 0.542400 -0.609273
O6    O     O_R   0.414750 0.923210 0.542400 -0.618644
O7    O     O_R   0.914750 0.576790 0.542400 -0.611390
O8    O     O_R   0.914750 0.423210 0.542400 -0.615010
C1    C     C_R   0.411325 0.103496 0.443353 0.874544
C2    C     C_R   0.414214 0.894303 0.447448 0.868837
C3    C     C_R   0.911377 0.603584 0.443425 0.870831
C4    C     C_R   0.913149 0.395358 0.446578 0.864349
Zn1   Zn    Zn3+2 0.522330 0.000000 0.387520 0.946340
Zn2   Zn    Zn3+2 0.022330 0.500000 0.387520 0.946628
Zn3   Zn    Zn3+2 0.477660 1.000000 0.612480 0.915670
Zn4   Zn    Zn3+2 0.977660 0.500000 0.612480 0.915594
O9    O     O_R   0.585240 0.923200 0.457600 -0.621645
O10   O     O_R   0.585240 0.076800 0.457600 -0.615943
O11   O     O_R   0.085240 0.423200 0.457600 -0.620937
O12   O     O_R   0.085240 0.576800 0.457600 -0.616297
O13   O     O_R   0.551780 0.923190 0.626070 -0.633772
O14   O     O_R   0.551780 0.076810 0.626070 -0.638179
O15   O     O_R   0.051780 0.423190 0.626070 -0.631748
O16   O     O_R   0.051780 0.576810 0.626070 -0.641745
C5    C     C_R   0.590275 0.898441 0.557747 0.813076
C6    C     C_R   0.594488 0.095595 0.558422 0.859213
C7    C     C_R   0.090008 0.398105 0.557581 0.817303
C8    C     C_R   0.093635 0.596784 0.558140 0.859451
C9    C     C_R   0.737664 0.195802 0.735680 -0.204496
C10   C     C_R   0.755622 0.832450 0.721661 -0.198464
C11   C     C_R   0.224440 0.713717 0.732509 -0.183207
C12   C     C_R   0.253548 0.328303 0.722616 -0.201926
H1    H     H_    0.637914 0.152080 0.758731 0.174678
H2    H     H_    0.671038 0.902396 0.751603 0.157482
H3    H     H_    0.124404 0.668601 0.749198 0.174642
H4    H     H_    0.167442 0.394747 0.755517 0.159896
H5    H     H_    0.750037 0.211806 0.818721 0.154210
H6    H     H_    0.785388 0.845685 0.798475 0.150824
H7    H     H_    0.231725 0.735489 0.812961 0.158488
H8    H     H_    0.281383 0.336792 0.802313 0.147811
C13   C     C_R   0.658934 0.135194 0.596490 -0.104799
C14   C     C_R   0.648504 0.848622 0.597967 -0.106020
C15   C     C_R   0.155727 0.639822 0.596759 -0.102653
C16   C     C_R   0.147541 0.347199 0.597288 -0.104061
C17   C     C_R   0.351022 0.810976 0.313363 -0.153963
C18   C     C_R   0.330083 0.169510 0.299960 -0.174213
C19   C     C_R   0.839998 0.323395 0.309516 -0.155534
C20   C     C_R   0.830053 0.670073 0.300640 -0.172598
C21   C     C_R   0.300043 0.757861 0.284766 -0.146607
C22   C     C_R   0.274033 0.218787 0.269200 -0.156271
C23   C     C_R   0.785994 0.273898 0.280511 -0.147714
C24   C     C_R   0.773669 0.719003 0.270562 -0.156286
C25   C     C_R   0.269190 0.721099 0.363804 -0.155397
C26   C     C_R   0.245848 0.258388 0.347012 -0.137382
C27   C     C_R   0.758828 0.232680 0.359415 -0.157371
C28   C     C_R   0.745470 0.758012 0.348908 -0.138867
C29   C     C_R   0.293429 0.731717 0.474314 0.097610
C30   C     C_R   0.275368 0.250919 0.456686 0.078212
C31   C     C_R   0.789425 0.235347 0.468820 0.097522
C32   C     C_R   0.775367 0.750416 0.458433 0.080443
C33   C     C_R   0.348400 0.781910 0.503637 0.028247
C34   C     C_R   0.339513 0.212987 0.483436 0.020343
C35   C     C_R   0.846509 0.282836 0.497999 0.023325
C36   C     C_R   0.839794 0.713136 0.484474 0.021689
C37   C     C_R   0.760047 0.197944 0.551093 0.015738
C38   C     C_R   0.743928 0.780186 0.542401 0.009538
C39   C     C_R   0.259181 0.700504 0.556074 0.010312
C40   C     C_R   0.243710 0.281000 0.540382 0.005422
C41   C     C_R   0.781761 0.214450 0.659923 0.051016
C42   C     C_R   0.784633 0.791137 0.644797 0.045986
C43   C     C_R   0.272681 0.728037 0.661695 0.061274
C44   C     C_R   0.284178 0.291774 0.643092 0.055432
C45   C     C_R   0.334862 0.766797 0.693489 0.177402
C46   C     C_R   0.353588 0.264669 0.663311 0.190155
C47   C     C_R   0.846784 0.248520 0.688215 0.186317
C48   C     C_R   0.853527 0.762386 0.666910 0.201934
C49   C     C_R   0.374974 0.788264 0.614113 -0.235237
C50   C     C_R   0.379692 0.224036 0.584533 -0.218532
C51   C     C_R   0.879547 0.280883 0.606402 -0.216129
C52   C     C_R   0.880042 0.723560 0.585765 -0.228193
C53   C     C_R   0.709227 0.143955 0.527555 0.154419
C54   C     C_R   0.672333 0.798047 0.527983 0.165293
C55   C     C_R   0.209972 0.644216 0.534524 0.155341
C56   C     C_R   0.172053 0.298406 0.525728 0.167814
C57   C     C_R   0.673803 0.161316 0.701814 -0.237317
C58   C     C_R   0.689193 0.863694 0.696350 -0.239737
C59   C     C_R   0.163634 0.674429 0.696944 -0.254104
C60   C     C_R   0.186884 0.359044 0.697844 -0.239731
C61   C     C_R   0.372682 0.826592 0.421938 -0.124848
C62   C     C_R   0.361814 0.164812 0.407780 -0.110887
C63   C     C_R   0.868022 0.331188 0.418044 -0.119848
C64   C     C_R   0.862038 0.665210 0.408296 -0.111968
H9    H     H_    0.370599 0.842893 0.249990 0.216946
H10   H     H_    0.347614 0.134026 0.240110 0.172299
H11   H     H_    0.857075 0.358845 0.247378 0.218279
H12   H     H_    0.847533 0.634840 0.240472 0.176328
H13   H     H_    0.711827 0.201930 0.333585 0.134597
H14   H     H_    0.701274 0.795106 0.322669 0.160454
H15   H     H_    0.223961 0.688009 0.336282 0.136369
H16   H     H_    0.201975 0.295822 0.320267 0.159335
H17   H     H_    0.281210 0.748728 0.200730 0.158779
H18   H     H_    0.250513 0.223855 0.185702 0.149741
H19   H     H_    0.762402 0.270783 0.197182 0.158500
H20   H     H_    0.749863 0.724168 0.187209 0.150522
H21   H     H_    0.425292 0.812701 0.638728 0.191440
H22   H     H_    0.433039 0.203677 0.601904 0.180181
H23   H     H_    0.930927 0.303999 0.628437 0.182563
H24   H     H_    0.932934 0.702296 0.600426 0.179017
C65   C     C_R   0.641427 0.976495 0.132705 -0.311568
C66   C     C_R   0.140971 0.474821 0.132709 -0.310709
H25   H     H_    0.655874 0.970875 0.304186 0.143287
H26   H     H_    0.155652 0.469508 0.304254 0.138747
H27   H     H_    0.668644 0.979208 0.933405 0.148888
H28   H     H_    0.168110 0.475990 0.933627 0.149441
H29   H     H_    0.695901 0.965599 0.128328 0.146712
H30   H     H_    0.195224 0.462666 0.128238 0.146369
N1    N     N_R   0.552340 0.000000 0.237260 -0.112684
N2    N     N_R   0.052340 0.500000 0.237260 -0.112825
C67   C     C_R   0.378372 0.999967 0.761374 -0.067752
C68   C     C_R   0.878497 0.505891 0.760999 -0.063421
C69   C     C_R   0.351516 0.991570 0.856629 -0.289868
C70   C     C_R   0.851185 0.502271 0.856216 -0.290196
C71   C     C_R   0.396552 0.984935 0.953635 0.376538
C72   C     C_R   0.895741 0.493587 0.953427 0.370702
C73   C     C_R   0.469777 0.992947 0.954593 -0.082214
C74   C     C_R   0.969441 0.496231 0.954633 -0.077401
C75   C     C_R   0.494226 0.996537 0.854178 0.168777
C76   C     C_R   0.994051 0.496753 0.854271 0.169924
C77   C     C_R   0.520212 0.994241 0.048416 0.009215
C78   C     C_R   0.020017 0.495925 0.048477 0.007520
C79   C     C_R   0.592025 0.984432 0.040407 0.197111
C80   C     C_R   0.091607 0.483704 0.040489 0.195610
C81   C     C_R   0.613882 0.984235 0.940581 -0.292720
C82   C     C_R   0.113445 0.482368 0.940750 -0.288605
C83   C     C_R   0.565609 0.993691 0.848913 -0.192771
C84   C     C_R   0.065354 0.492196 0.849060 -0.191273
C85   C     C_R   0.503341 0.008546 0.149997 -0.001249
C86   C     C_R   0.003658 0.510621 0.150166 -0.001542
C87   C     C_R   0.619514 0.981551 0.231658 -0.020892
C88   C     C_R   0.119280 0.480496 0.231686 -0.017245
N3    N     N_R   0.448170 0.000000 0.762060 -0.133984
N4    N     N_R   0.948170 0.500000 0.762060 -0.134671
H31   H     H_    0.452601 0.027841 0.162273 0.182531
H32   H     H_    0.953743 0.531867 0.162998 0.184817
H33   H     H_    0.343575 0.002490 0.685729 0.172314
H34   H     H_    0.843893 0.509727 0.685232 0.172682
H35   H     H_    0.295845 0.985995 0.854281 0.186115
H36   H     H_    0.795237 0.501283 0.853714 0.190475
H37   H     H_    0.585380 0.996965 0.774451 0.209129
H38   H     H_    0.085210 0.495069 0.774629 0.210449
Cl1   Cl    Cl    0.357460 0.951006 0.063024 -0.716905
Cl2   Cl    Cl    0.854153 0.464078 0.062448 -0.724385
N5    N     N_2   0.355021 0.785048 0.803692 -0.307261
H39   H     H_    0.324260 0.825997 0.830815 0.241318
C89   C     C_3   0.428342 0.789218 0.846160 -0.733147
H40   H     H_    0.434766 0.790508 0.935213 0.256614
H41   H     H_    0.450926 0.841716 0.816474 0.239709
H42   H     H_    0.456719 0.738728 0.823199 0.239074
N6    N     N_2   0.398187 0.276455 0.761972 -0.311555
H43   H     H_    0.392880 0.327955 0.796761 0.219496
C90   C     C_3   0.404373 0.212459 0.836998 -0.766437
H44   H     H_    0.442233 0.225496 0.909204 0.235190
H45   H     H_    0.423654 0.161613 0.799824 0.259190
H46   H     H_    0.353124 0.200170 0.862225 0.240443
N7    N     N_2   0.882975 0.243322 0.795467 -0.319573
H47   H     H_    0.867992 0.200048 0.843211 0.224083
C91   C     C_3   0.893565 0.314263 0.849550 -0.723667
H48   H     H_    0.922840 0.304067 0.931524 0.249722
H49   H     H_    0.842533 0.341050 0.856357 0.255103
H50   H     H_    0.924670 0.352597 0.805077 0.252947
N8    N     N_2   0.893338 0.769452 0.771877 -0.304496
H51   H     H_    0.867132 0.753828 0.834225 0.223940
C92   C     C_3   0.966399 0.748024 0.791190 -0.788168
H52   H     H_    0.989425 0.764333 0.873421 0.240714
H53   H     H_    0.995043 0.778231 0.733227 0.245801
H54   H     H_    0.972528 0.685647 0.785393 0.246252
N9    N     N_2   0.721455 0.087687 0.452857 -0.313412
H55   H     H_    0.685993 0.083853 0.384011 0.239749
C93   C     C_3   0.750337 0.016636 0.500155 -0.736365
H56   H     H_    0.763350 0.979305 0.436196 0.222593
H57   H     H_    0.712288 0.987695 0.543937 0.237352
H58   H     H_    0.798801 0.026805 0.556800 0.247984
N10   N     N_2   0.623862 0.760809 0.449660 -0.319950
H59   H     H_    0.575892 0.786772 0.428738 0.236862
C94   C     C_3   0.616822 0.680415 0.470682 -0.773369
H60   H     H_    0.580839 0.655765 0.403823 0.243171
H61   H     H_    0.595177 0.671030 0.546732 0.236821
H62   H     H_    0.667805 0.650497 0.476490 0.257329
N11   N     N_2   0.225319 0.583856 0.468027 -0.315543
H63   H     H_    0.191184 0.575832 0.398772 0.239221
C95   C     C_3   0.252103 0.515092 0.524938 -0.740019
H64   H     H_    0.264981 0.472902 0.466773 0.226128
H65   H     H_    0.212748 0.490745 0.570694 0.232556
H66   H     H_    0.300175 0.527234 0.581359 0.247358
N12   N     N_2   0.124030 0.261648 0.446299 -0.320674
H67   H     H_    0.076394 0.288128 0.424178 0.237953
C96   C     C_3   0.116009 0.181398 0.467399 -0.769416
H68   H     H_    0.080907 0.156849 0.399425 0.242386
H69   H     H_    0.092828 0.172570 0.542256 0.238277
H70   H     H_    0.166911 0.150983 0.475584 0.257432

loop_
_geom_bond_atom_site_label_1
_geom_bond_atom_site_label_2
_geom_bond_distance
_ccdc_geom_bond_type
C30   C34   1.400979 A    
N8    H51   1.031216 S    
C39   C55   1.387896 A    
N7    H47   1.030784 S    
C45   N5    1.429572 S    
C27   C31   1.417826 A    
C89   H41   1.108765 S    
C15   C55   1.406455 A    
H26   C88   1.079801 S    
C4    C63   1.457059 S    
Zn4   N4    2.049553 S    
C14   C54   1.394075 A    
O3    C3    1.305735 A    
C28   H14   1.081229 S    
C17   H9    1.082086 S    
C90   H44   1.110242 S    
H25   C87   1.078491 S    
C66   C88   1.380101 A    
C91   H49   1.110721 S    
C35   C51   1.417552 A    
C92   H52   1.110312 S    
C25   H15   1.077328 S    
O7    C3    1.313696 A    
N8    C92   1.448954 S    
C22   C26   1.392207 A    
C46   N6    1.424509 S    
C75   C83   1.399036 A    
C76   C84   1.398533 A    
C21   H17   1.082818 S    
C21   C25   1.387150 A    
Zn1   N1    2.062017 S    
C94   H61   1.111610 S    
C39   C43   1.415446 A    
C74   C78   1.418305 A    
C56   N12   1.433108 S    
C23   H19   1.082786 S    
C12   C60   1.388175 A    
C19   H11   1.081876 S    
C68   H34   1.081390 S    
C10   H6    1.081540 S    
N11   C95   1.445555 S    
H2    C58   1.081208 S    
C96   H69   1.112276 S    
O2    Zn1   1.977783 S    
H1    C57   1.083042 S    
O14   C6    1.314267 A    
C90   H45   1.110465 S    
O6    Zn3   1.968070 S    
Zn3   N3    2.049553 S    
H3    C59   1.083284 S    
C3    C64   1.458604 S    
Zn3   O14   1.977763 S    
C2    C61   1.462931 S    
C68   C70   1.382550 A    
N9    C93   1.446100 S    
O10   C6    1.306743 A    
C65   C79   1.394581 A    
C20   C64   1.403680 A    
C69   H35   1.083019 S    
C66   C80   1.394781 A    
C14   C58   1.398407 A    
O15   C7    1.303153 A    
O4    C4    1.308626 A    
C69   C71   1.392902 A    
O11   C7    1.313493 A    
C9    C57   1.399456 A    
C40   C44   1.426715 A    
C93   H58   1.111139 S    
C11   C43   1.407778 A    
C72   Cl2   1.764502 S    
C32   C38   1.408696 A    
O8    Zn4   1.968070 S    
H27   C81   1.084421 S    
C89   H42   1.111017 S    
C36   C52   1.409183 A    
C26   H16   1.081253 S    
N1    C87   1.355056 A    
C29   C39   1.410604 A    
N2    C88   1.355069 A    
C7    C16   1.448565 S    
C10   C42   1.406886 A    
C77   C85   1.395872 A    
C33   C61   1.419105 A    
C32   C36   1.399552 A    
C91   H50   1.107308 S    
C9    C41   1.409740 A    
C67   C69   1.383326 A    
C71   Cl1   1.764510 S    
C11   C59   1.395493 A    
C95   H64   1.110481 S    
C40   C56   1.406871 A    
Zn2   O12   1.968193 S    
O1    C1    1.305127 A    
C12   C44   1.406530 A    
C33   C49   1.416548 A    
C91   H48   1.110470 S    
C43   C45   1.403597 A    
C25   C29   1.417870 A    
C94   H62   1.110286 S    
C19   C23   1.383407 A    
O12   C8    1.309584 A    
C16   C56   1.393560 A    
C83   H37   1.065871 S    
C54   N10   1.433539 S    
C96   H68   1.110576 S    
H4    C60   1.081174 S    
C28   C32   1.416000 A    
C1    C62   1.457668 S    
C96   H70   1.111022 S    
C78   C80   1.424652 A    
N10   H59   1.029906 S    
C95   H65   1.107687 S    
O5    C1    1.313922 A    
C38   C54   1.407471 A    
C84   H38   1.066105 S    
N6    H43   1.029969 S    
C18   H10   1.083433 S    
C17   C21   1.383824 A    
O8    C4    1.310497 A    
C13   C53   1.408363 A    
C27   H13   1.078045 S    
N6    C90   1.446233 S    
C52   H24   1.078786 S    
H28   C82   1.084460 S    
C51   H23   1.081321 S    
C47   N7    1.425839 S    
C68   N4    1.354871 A    
C55   N11   1.428258 S    
C73   C75   1.416220 A    
O3    Zn2   1.954899 S    
N5    C89   1.447447 S    
C92   H53   1.110952 S    
C80   C82   1.385499 A    
C75   N3    1.353708 A    
Zn1   O10   1.968193 S    
C48   N8    1.436189 S    
C44   C46   1.411312 A    
O7    Zn4   1.922294 S    
C22   H18   1.082535 S    
Zn4   O15   1.954879 S    
C70   H36   1.083077 S    
C42   C48   1.412734 A    
C67   N3    1.354904 A    
N12   C96   1.448362 S    
C10   C58   1.387993 A    
C36   C64   1.407899 A    
C70   C72   1.392843 A    
O2    C2    1.311065 A    
C66   H30   1.083986 S    
C85   H31   1.074566 S    
C90   H46   1.111287 S    
C17   C61   1.403487 A    
O16   C8    1.310090 A    
C72   C74   1.430956 A    
C26   C30   1.415665 A    
C92   H54   1.111678 S    
C30   C40   1.410326 A    
O13   C5    1.302973 A    
C24   H20   1.082528 S    
C74   C76   1.416745 A    
C20   H12   1.083439 S    
C19   C63   1.403335 A    
Zn2   O11   1.922415 S    
C34   C50   1.408400 A    
N1    C85   1.345469 A    
C48   C52   1.402528 A    
C79   C81   1.386103 A    
C5    C14   1.448184 S    
O6    C2    1.310385 A    
C82   C84   1.377688 A    
C29   C33   1.405599 A    
C18   C62   1.403991 A    
C93   H56   1.109975 S    
C67   H33   1.081464 S    
C13   C57   1.404498 A    
C18   C22   1.389958 A    
C8    C15   1.458238 S    
C31   C35   1.405798 A    
Zn1   O9    1.922415 S    
C65   C87   1.380747 A    
O9    C5    1.313239 A    
N10   C94   1.448050 S    
Zn2   N2    2.062017 S    
C15   C59   1.403673 A    
C86   H32   1.073044 S    
C31   C37   1.408698 A    
C94   H60   1.110496 S    
C38   C42   1.425879 A    
Zn3   O13   1.954879 S    
C76   N4    1.352723 A    
C37   C41   1.410242 A    
C34   C62   1.406206 A    
C49   H21   1.077296 S    
C11   H7    1.082282 S    
C50   H22   1.082905 S    
C41   C47   1.404551 A    
C23   C27   1.386552 A    
C12   H8    1.080469 S    
O4    Zn2   1.977783 S    
N11   H63   1.026625 S    
Zn4   O16   1.977763 S    
O5    Zn3   1.922294 S    
C71   C73   1.429235 A    
C65   H29   1.083947 S    
C53   N9    1.427595 S    
N12   H67   1.030044 S    
C73   C77   1.417509 A    
C20   C24   1.389799 A    
O1    Zn1   1.954899 S    
C35   C63   1.416158 A    
N7    C91   1.441892 S    
N9    H55   1.026922 S    
C46   C50   1.391748 A    
C9    H5    1.082240 S    
C89   H40   1.110195 S    
C81   C83   1.378807 A    
C45   C49   1.403673 A    
C37   C53   1.383066 A    
C16   C60   1.398445 A    
C93   H57   1.107325 S    
N5    H39   1.030947 S    
N2    C86   1.344006 A    
C47   C51   1.402290 A    
C95   H66   1.110964 S    
C24   C28   1.392230 A    
C6    C13   1.461905 S    
C77   C79   1.423451 A    
C78   C86   1.394935 A    
