data_mof_unit_10143.cif
_audit_creation_date              2012-12-11T14:43:30-0500
_audit_creation_method            fapswitch 2.2
_symmetry_space_group_name_H-M    P1
_symmetry_Int_Tables_number       1
_space_group_crystal_system       triclinic
_cell_length_a                    20.862521
_cell_length_b                    7.098521
_cell_length_c                    16.381978
_cell_angle_alpha                 91.265433
_cell_angle_beta                  92.485831
_cell_angle_gamma                 91.603769
_cell_volume                      2422.16515689

loop_
_atom_site_label
_atom_site_type_symbol
_atom_type_description
_atom_site_fract_x
_atom_site_fract_y
_atom_site_fract_z
_atom_type_partial_charge
O1    O     O_R   0.564840 0.505290 0.579830 -0.539805
O2    O     O_R   0.435160 0.005290 0.420170 -0.536820
O3    O     O_R   0.556720 0.179930 0.409350 -0.538453
O4    O     O_R   0.443280 0.679930 0.590650 -0.538555
C1    C     C_R   0.570237 0.344927 0.380939 0.699144
C2    C     C_R   0.429512 0.844716 0.618984 0.698308
O5    O     O_R   0.572280 0.175810 0.578530 -0.539407
O6    O     O_R   0.427720 0.675810 0.421470 -0.544556
O7    O     O_R   0.450830 0.001920 0.590540 -0.535542
O8    O     O_R   0.549170 0.501920 0.409460 -0.534606
C3    C     C_R   0.589891 0.348519 0.605006 0.692927
C4    C     C_R   0.409320 0.840260 0.395442 0.692102
O9    O     O_3   0.460130 0.338030 0.503750 -0.372989
O10   O     O_3   0.539870 0.838030 0.496250 -0.370299
V1    V     V_3+5 0.507400 0.064560 0.499310 1.412560
V2    V     V_3+5 0.492600 0.564560 0.500690 1.411010
C5    C     C_R   0.146496 0.933125 0.164915 -0.066111
C6    C     C_R   0.856420 0.388576 0.832803 -0.064652
C7    C     C_R   0.353616 0.832748 0.334785 -0.066688
C8    C     C_R   0.643515 0.377000 0.667435 -0.065377
C9    C     C_R   0.283852 0.646169 0.237685 -0.204573
C10   C     C_R   0.698548 0.585216 0.770718 -0.198670
C11   C     C_R   0.338302 0.663402 0.290519 -0.165228
C12   C     C_R   0.645741 0.541398 0.717668 -0.158620
C13   C     C_R   0.313110 0.986308 0.323862 -0.242833
C14   C     C_R   0.695134 0.254377 0.672894 -0.245254
C15   C     C_R   0.257620 0.968915 0.271298 0.159769
C16   C     C_R   0.748924 0.298914 0.725774 0.157902
C17   C     C_R   0.242690 0.797230 0.228022 0.159446
C18   C     C_R   0.750842 0.466211 0.774839 0.157617
C19   C     C_R   0.187145 0.779777 0.175546 -0.243899
C20   C     C_R   0.804677 0.510831 0.827646 -0.246466
C21   C     C_R   0.161870 0.102526 0.209105 -0.162802
C22   C     C_R   0.854145 0.224114 0.782616 -0.156381
C23   C     C_R   0.216442 0.119943 0.261697 -0.204273
C24   C     C_R   0.801231 0.179977 0.729818 -0.198028
H1    H     H_    0.176511 0.648875 0.141692 0.125294
H2    H     H_    0.805331 0.636681 0.866426 0.124570
H3    H     H_    0.131635 0.223402 0.202837 0.128479
H4    H     H_    0.893351 0.127184 0.784855 0.125392
H5    H     H_    0.273744 0.513880 0.204753 0.121443
H6    H     H_    0.698717 0.713471 0.807874 0.120878
H7    H     H_    0.226566 0.252247 0.294613 0.120646
H8    H     H_    0.801045 0.051693 0.692680 0.120040
H9    H     H_    0.368468 0.542422 0.296955 0.128695
H10   H     H_    0.606595 0.638520 0.715254 0.125655
H11   H     H_    0.323746 0.117257 0.357679 0.124134
H12   H     H_    0.694477 0.128424 0.634179 0.123125
C25   C     C_R   0.379198 0.834886 0.836621 -0.158828
C26   C     C_R   0.619101 0.380887 0.163421 -0.159446
H13   H     H_    0.468254 0.816245 0.776785 0.101514
H14   H     H_    0.529847 0.363726 0.223314 0.103739
H15   H     H_    0.298952 0.840539 0.957582 0.127065
H16   H     H_    0.698869 0.409391 0.042507 0.126121
H17   H     H_    0.402294 0.820008 0.896592 0.112653
H18   H     H_    0.595283 0.388788 0.103516 0.112604
C27   C     C_R   0.388884 0.852426 0.690367 -0.038280
C28   C     C_R   0.610711 0.355062 0.309552 -0.037593
C29   C     C_R   0.079025 0.928709 0.732281 -0.163383
C30   C     C_R   0.922205 0.399040 0.267654 -0.163100
C31   C     C_R   0.113770 0.927564 0.661799 -0.119160
C32   C     C_R   0.887782 0.384888 0.338104 -0.119755
C33   C     C_R   0.180156 0.909226 0.666286 -0.157297
C34   C     C_R   0.820901 0.377848 0.333624 -0.157572
C35   C     C_R   0.213949 0.891040 0.742356 0.076936
C36   C     C_R   0.786268 0.385157 0.257592 0.076999
C37   C     C_R   0.177741 0.890961 0.814734 0.068446
C38   C     C_R   0.822082 0.401227 0.185270 0.068722
C39   C     C_R   0.282333 0.873186 0.748975 0.074185
C40   C     C_R   0.717433 0.376908 0.250956 0.074160
C41   C     C_R   0.312480 0.854424 0.827777 0.138433
C42   C     C_R   0.686379 0.386528 0.172224 0.138981
C43   C     C_R   0.276030 0.854655 0.897447 -0.200778
C44   C     C_R   0.722464 0.402278 0.102596 -0.201661
C45   C     C_R   0.209864 0.872869 0.891195 -0.191714
C46   C     C_R   0.789122 0.409175 0.108847 -0.191708
C47   C     C_R   0.322145 0.872684 0.680480 -0.215561
C48   C     C_R   0.678017 0.359943 0.319392 -0.215397
C49   C     C_R   0.416934 0.833080 0.768525 -0.169287
C50   C     C_R   0.581685 0.366226 0.231502 -0.169201
C51   C     C_R   0.109981 0.910231 0.808932 -0.079433
C52   C     C_R   0.890354 0.407801 0.191077 -0.078874
H19   H     H_    0.302992 0.886051 0.618799 0.093235
H20   H     H_    0.697836 0.351857 0.381013 0.092774
H21   H     H_    0.027492 0.944471 0.727043 0.099726
H22   H     H_    0.974198 0.402923 0.272855 0.102062
H23   H     H_    0.203542 0.909965 0.608978 0.108520
H24   H     H_    0.797826 0.366591 0.390910 0.107964
H25   H     H_    0.088991 0.941712 0.602897 0.118416
H26   H     H_    0.913226 0.378632 0.396963 0.118331
H27   H     H_    0.183976 0.872395 0.947079 0.111364
H28   H     H_    0.814713 0.421154 0.052994 0.110799
O11   O     O_R   0.950790 0.256670 0.090520 -0.531846
O12   O     O_R   0.049210 0.756670 0.909480 -0.533443
O13   O     O_R   0.927720 0.590370 0.921470 -0.539129
O14   O     O_R   0.072280 0.090370 0.078530 -0.543899
C53   C     C_R   0.910224 0.417238 0.894940 0.688273
C54   C     C_R   0.090585 0.925489 0.104593 0.687272
O15   O     O_R   0.943270 0.586180 0.090640 -0.537173
O16   O     O_R   0.056730 0.086180 0.909360 -0.536740
O17   O     O_R   0.064850 0.759970 0.079840 -0.536916
O18   O     O_R   0.935150 0.259970 0.920160 -0.539583
C55   C     C_R   0.930249 0.417589 0.118835 0.682020
C56   C     C_R   0.069958 0.917732 0.881193 0.681185
O19   O     O_3   0.039850 0.428050 0.996240 -0.371360
O20   O     O_3   0.960150 0.928050 0.003760 -0.368570
V3    V     V_3+5 0.992610 0.701540 0.000700 1.417960
V4    V     V_3+5 0.007390 0.201540 0.999300 1.417980

loop_
_geom_bond_atom_site_label_1
_geom_bond_atom_site_label_2
_ccdc_geom_bond_type
O17   V3    S    
O15   C55   A    
C33   C35   A    
C11   H9    S    
C40   C48   A    
C39   C47   A    
C27   C49   A    
C36   C38   A    
O1    C3    A    
O2    C4    A    
O11   C55   A    
C2    O7    A    
C10   H6    S    
O5    C3    A    
O19   V3    S    
C21   H3    S    
C44   C46   A    
C1    C28   S    
C22   H4    S    
O11   V4    S    
C15   C17   A    
O20   V3    S    
C47   H19   S    
O16   C56   A    
C30   C32   A    
C39   C41   A    
C26   C42   A    
C32   C34   A    
H16   C44   S    
C30   C52   A    
C8    C12   A    
C35   C37   A    
O14   C54   A    
C52   C55   S    
O18   V4    S    
C6    C53   S    
C20   H2    S    
C23   H7    S    
C5    C54   S    
C13   H11   S    
C53   O18   A    
C14   H12   S    
O20   V4    S    
O5    V1    S    
O14   V4    S    
O12   C56   A    
O6    V2    S    
C43   C45   A    
C2    C27   S    
C5    C21   A    
C31   H25   S    
C3    C8    S    
O19   V4    S    
O12   V3    S    
O16   V4    S    
C29   C31   A    
C27   C47   A    
C42   C44   A    
C41   C43   A    
C30   H22   S    
C15   C23   A    
C25   H17   S    
C9    C17   A    
C26   H18   S    
C25   C49   A    
C34   C36   A    
O4    V2    S    
C7    C11   A    
C29   H21   S    
C48   H20   S    
O6    C4    A    
C31   C33   A    
O1    V2    S    
C38   C46   A    
O2    V1    S    
C6    C22   A    
O13   V3    S    
C46   H28   S    
C9    H5    S    
O4    C2    A    
C37   C51   A    
C9    C11   A    
C5    C19   A    
C10   C12   A    
C24   H8    S    
C37   C45   A    
O3    V1    S    
C10   C18   A    
C33   H23   S    
H15   C43   S    
C29   C51   A    
O3    C1    A    
C26   C50   A    
O13   C53   A    
C45   H27   S    
C13   C15   A    
C54   O17   A    
O15   V3    S    
C14   C16   A    
C38   C52   A    
C28   C50   A    
C16   C18   A    
O7    V1    S    
C12   H10   S    
C1    O8    A    
C17   C19   A    
O8    V2    S    
C18   C20   A    
C36   C40   A    
C8    C14   A    
C35   C39   A    
C32   H26   S    
C4    C7    S    
C21   C23   A    
C22   C24   A    
C7    C13   A    
H13   C49   S    
C28   C48   A    
C19   H1    S    
C6    C20   A    
C16   C24   A    
C25   C41   A    
O9    V2    S    
O10   V1    S    
C40   C42   A    
H14   C50   S    
C34   H24   S    
C51   C56   S    
