data_mof_unit_30441.cif
_audit_creation_date              2012-12-10T18:04:45-0500
_audit_creation_method            fapswitch 2.2
_symmetry_space_group_name_H-M    P1
_symmetry_Int_Tables_number       1
_space_group_crystal_system       triclinic
_cell_length_a                    19.551826
_cell_length_b                    17.596704
_cell_length_c                    12.621795
_cell_angle_alpha                 89.984665
_cell_angle_beta                  99.026428
_cell_angle_gamma                 90.043333
_cell_volume                      4288.72102907

loop_
_atom_site_label
_atom_site_type_symbol
_atom_type_description
_atom_site_fract_x
_atom_site_fract_y
_atom_site_fract_z
_atom_type_partial_charge
C1    C     C_R   0.411678 0.103297 0.444180 0.842268
C2    C     C_R   0.781330 0.789014 0.644452 0.175215
C3    C     C_R   0.193546 0.811021 0.581870 0.178882
C4    C     C_R   0.281335 0.289007 0.644481 0.175224
C5    C     C_R   0.222414 0.883099 0.577599 -0.253970
C6    C     C_R   0.348329 0.260314 0.667857 -0.256159
C7    C     C_R   0.722404 0.383097 0.577562 -0.253969
C8    C     C_R   0.848328 0.760334 0.667810 -0.256155
C9    C     C_R   0.273632 0.895350 0.514859 -0.199883
C10   C     C_R   0.377009 0.222243 0.589211 -0.199822
C11   C     C_R   0.773630 0.395342 0.514835 -0.199891
C12   C     C_R   0.408394 0.900423 0.441872 0.857087
C13   C     C_R   0.876998 0.722250 0.589166 -0.199821
C14   C     C_R   0.685596 0.179793 0.525057 -0.251935
C15   C     C_R   0.676876 0.810306 0.518134 -0.259328
C16   C     C_R   0.185583 0.679806 0.525028 -0.251921
C17   C     C_R   0.176905 0.310340 0.518125 -0.259335
C18   C     C_R   0.612309 0.226424 0.648318 -0.201723
C19   C     C_R   0.685152 0.856390 0.700157 -0.202936
C20   C     C_R   0.112328 0.726412 0.648349 -0.201743
C21   C     C_R   0.185138 0.356359 0.700173 -0.202933
C22   C     C_R   0.356143 0.843306 0.404981 -0.107200
C23   C     C_R   0.911673 0.603292 0.444177 0.842258
C24   C     C_R   0.362256 0.163576 0.409482 -0.116855
C25   C     C_R   0.856155 0.343293 0.404991 -0.107191
C26   C     C_R   0.862231 0.663547 0.409468 -0.116837
C27   C     C_R   0.642150 0.006556 0.132429 -0.308857
C28   C     C_R   0.142150 0.506558 0.132429 -0.308872
C29   C     C_R   0.378826 0.004621 0.761101 0.043165
C30   C     C_R   0.878826 0.504619 0.761101 0.043168
C31   C     C_R   0.352737 0.012483 0.856207 -0.291754
C32   C     C_R   0.852738 0.512484 0.856207 -0.291744
C33   C     C_R   0.590774 0.899562 0.557451 0.851844
C34   C     C_R   0.908396 0.400421 0.441873 0.857081
C35   C     C_R   0.589218 0.102183 0.556376 0.841248
C36   C     C_R   0.090775 0.399561 0.557451 0.851841
C37   C     C_R   0.089219 0.602183 0.556376 0.841258
C38   C     C_R   0.398375 0.013945 0.952299 -0.133536
C39   C     C_R   0.898377 0.513949 0.952299 -0.133534
C40   C     C_R   0.470578 0.005137 0.953597 0.034161
C41   C     C_R   0.970579 0.505140 0.953597 0.034160
C42   C     C_R   0.494452 0.001277 0.853833 0.224774
C43   C     C_R   0.994452 0.501279 0.853833 0.224776
C44   C     C_R   0.520150 0.002869 0.048336 -0.139231
C45   C     C_R   0.713445 0.251799 0.516548 0.081854
C46   C     C_R   0.020151 0.502871 0.048336 -0.139228
C47   C     C_R   0.592152 0.004808 0.040439 0.131511
C48   C     C_R   0.092152 0.504811 0.040439 0.131519
C49   C     C_R   0.613769 0.004113 0.940873 -0.254727
C50   C     C_R   0.113769 0.504116 0.940872 -0.254738
C51   C     C_R   0.565406 0.000901 0.848916 -0.210397
C52   C     C_R   0.065406 0.500903 0.848916 -0.210410
C53   C     C_R   0.502306 0.997130 0.151377 0.677768
C54   C     C_R   0.002306 0.497131 0.151377 0.677773
C55   C     C_R   0.620702 0.005182 0.231456 -0.108929
C56   C     C_R   0.744550 0.783660 0.538358 0.077039
C57   C     C_R   0.120702 0.505183 0.231456 -0.108955
C58   C     C_R   0.643999 0.297413 0.648947 -0.197214
C59   C     C_R   0.750767 0.824156 0.725155 -0.202820
C60   C     C_R   0.144020 0.797402 0.648989 -0.197217
C61   C     C_R   0.250753 0.324123 0.725185 -0.202815
C62   C     C_R   0.632182 0.168461 0.583558 -0.044244
C63   C     C_R   0.649303 0.851030 0.595303 -0.044306
C64   C     C_R   0.132185 0.668461 0.583556 -0.044265
C65   C     C_R   0.149308 0.351030 0.595301 -0.044334
C66   C     C_R   0.369841 0.789853 0.328524 -0.162625
C67   C     C_R   0.213431 0.751813 0.516533 0.081850
C68   C     C_R   0.331579 0.166530 0.301306 -0.179662
C69   C     C_R   0.869865 0.289834 0.328556 -0.162644
C70   C     C_R   0.831530 0.666460 0.301306 -0.179689
C71   C     C_R   0.327849 0.726391 0.307212 -0.152499
C72   C     C_R   0.275399 0.213786 0.269517 -0.154934
C73   C     C_R   0.827891 0.226355 0.307273 -0.152506
C74   C     C_R   0.775325 0.713679 0.269523 -0.154952
C75   C     C_R   0.275021 0.713178 0.366914 -0.189058
C76   C     C_R   0.246525 0.254272 0.346064 -0.190868
C77   C     C_R   0.775065 0.213138 0.366975 -0.189049
C78   C     C_R   0.244577 0.283690 0.538368 0.077029
C79   C     C_R   0.746455 0.754173 0.346065 -0.190857
C80   C     C_R   0.261376 0.765878 0.446074 0.086001
C81   C     C_R   0.275877 0.250552 0.456130 0.084644
C82   C     C_R   0.761399 0.265853 0.446102 0.086011
C83   C     C_R   0.775835 0.750501 0.456119 0.084646
C84   C     C_R   0.297141 0.835579 0.455146 0.088492
C85   C     C_R   0.339105 0.212055 0.485201 0.084265
C86   C     C_R   0.797152 0.335563 0.455150 0.088499
C87   C     C_R   0.839079 0.712033 0.485177 0.084267
C88   C     C_R   0.693541 0.311019 0.581850 0.178880
F1    F     F_    0.437017 0.984557 0.170013 -0.691764
F2    F     F_    0.937016 0.484558 0.170011 -0.691768
H1    H     H_    0.570197 0.218100 0.693603 0.152636
H2    H     H_    0.843999 0.505071 0.685686 0.137903
H3    H     H_    0.375385 0.025534 0.022455 0.215296
H4    H     H_    0.875389 0.525540 0.022455 0.215292
H5    H     H_    0.297602 0.019093 0.855364 0.154453
H6    H     H_    0.797604 0.519094 0.855364 0.154455
H7    H     H_    0.584948 0.999460 0.774685 0.209533
H8    H     H_    0.084948 0.499460 0.774685 0.209538
H9    H     H_    0.206264 0.929699 0.624078 0.143508
H10   H     H_    0.378125 0.266075 0.747436 0.148755
H11   H     H_    0.706240 0.429706 0.624014 0.143510
H12   H     H_    0.664146 0.888324 0.760884 0.150318
H13   H     H_    0.878138 0.766120 0.747372 0.148757
H14   H     H_    0.627875 0.342365 0.698250 0.138070
H15   H     H_    0.778578 0.829178 0.806162 0.136024
H16   H     H_    0.127911 0.842344 0.698321 0.138073
H17   H     H_    0.278549 0.329120 0.806207 0.136016
H18   H     H_    0.702649 0.131590 0.483260 0.141373
H19   H     H_    0.644896 0.802439 0.441119 0.148706
H20   H     H_    0.202629 0.631611 0.483206 0.141388
H21   H     H_    0.144945 0.302497 0.441090 0.148746
H22   H     H_    0.414289 0.795875 0.287612 0.167776
H23   H     H_    0.070231 0.718078 0.693657 0.152659
H24   H     H_    0.349728 0.130661 0.241735 0.181198
H25   H     H_    0.914313 0.295862 0.287647 0.167777
H26   H     H_    0.849678 0.630582 0.241744 0.181217
H27   H     H_    0.744738 0.162354 0.347602 0.132332
H28   H     H_    0.702353 0.789265 0.316551 0.135780
H29   H     H_    0.244679 0.662408 0.347520 0.132343
H30   H     H_    0.202445 0.289398 0.316551 0.135778
H31   H     H_    0.338059 0.685624 0.247382 0.143752
H32   H     H_    0.252341 0.216675 0.185825 0.144720
H33   H     H_    0.838112 0.185580 0.247467 0.143759
H34   H     H_    0.164116 0.388267 0.760907 0.150340
H35   H     H_    0.752245 0.716531 0.185842 0.144737
H36   H     H_    0.294003 0.952361 0.512226 0.159405
H37   H     H_    0.429528 0.201759 0.610406 0.167767
H38   H     H_    0.793996 0.452354 0.512189 0.159397
H39   H     H_    0.929523 0.701783 0.610347 0.167752
H40   H     H_    0.658237 0.007407 0.304149 0.157382
H41   H     H_    0.158237 0.507407 0.304149 0.157379
H42   H     H_    0.668364 0.004896 0.933996 0.148913
H43   H     H_    0.168364 0.504898 0.933996 0.148917
H44   H     H_    0.696987 0.009056 0.127695 0.156727
H45   H     H_    0.196987 0.509059 0.127695 0.156724
H46   H     H_    0.343999 0.005076 0.685687 0.137896
N1    N     N_R   0.552340 1.000000 0.237260 -0.135413
N2    N     N_R   0.052340 0.500000 0.237260 -0.135409
N3    N     N_R   0.448170 0.000000 0.762060 -0.133759
N4    N     N_R   0.948170 0.500000 0.762060 -0.133758
O1    O     O_R   0.448200 0.076800 0.373930 -0.569786
O2    O     O_R   0.585240 0.076800 0.457600 -0.614284
O3    O     O_R   0.085240 0.423200 0.457600 -0.618090
O4    O     O_R   0.085240 0.576800 0.457600 -0.614288
O5    O     O_R   0.551780 0.923190 0.626070 -0.629943
O6    O     O_R   0.551780 0.076810 0.626070 -0.643801
O7    O     O_R   0.051780 0.423190 0.626070 -0.629944
O8    O     O_R   0.051780 0.576810 0.626070 -0.643792
O9    O     O_R   0.448200 0.923200 0.373930 -0.549254
O10   O     O_R   0.948200 0.576800 0.373930 -0.569786
O11   O     O_R   0.948200 0.423200 0.373930 -0.549257
O12   O     O_R   0.414750 0.076790 0.542400 -0.630643
O13   O     O_R   0.414750 0.923210 0.542400 -0.616188
O14   O     O_R   0.914750 0.576790 0.542400 -0.630629
O15   O     O_R   0.914750 0.423210 0.542400 -0.616187
O16   O     O_R   0.585240 0.923200 0.457600 -0.618080
Zn1   Zn    Zn3+2 0.522330 0.000000 0.387520 0.991582
Zn2   Zn    Zn3+2 0.022330 0.500000 0.387520 0.991577
Zn3   Zn    Zn3+2 0.477660 1.000000 0.612480 0.924254
Zn4   Zn    Zn3+2 0.977660 0.500000 0.612480 0.924263

loop_
_geom_bond_atom_site_label_1
_geom_bond_atom_site_label_2
_ccdc_geom_bond_type
C51   H7    S    
C83   C87   A    
C10   C85   A    
O13   Zn3   S    
C8    C13   A    
C37   O4    A    
C28   H45   S    
C15   H19   S    
C45   C82   A    
C12   O13   A    
C80   C84   A    
C33   O16   A    
C16   H20   S    
C39   C41   A    
C28   C57   A    
C5    C9    A    
C59   H15   S    
O3    Zn2   S    
C53   N1    A    
C18   H1    S    
O16   Zn1   S    
C38   C40   A    
C36   O3    A    
C54   F2    S    
C77   H27   S    
C20   H23   S    
O5    Zn3   S    
C19   H12   S    
C27   C55   A    
C43   C52   A    
C32   C39   A    
C74   H35   S    
C11   C86   A    
C14   C62   A    
C79   H28   S    
C12   C22   S    
C1    O12   A    
O8    Zn4   S    
C23   C26   S    
C52   H8    S    
C7    C88   A    
C73   C77   A    
C22   C66   A    
C44   C53   A    
C18   C58   A    
C28   C48   A    
C5    H9    S    
C19   C63   A    
C26   C87   A    
C73   H33   S    
C70   C74   A    
C50   C52   A    
C41   C46   A    
C69   C73   A    
C20   C60   A    
C24   C85   A    
C21   C61   A    
C44   C47   A    
C68   C72   A    
C42   C51   A    
C21   C65   A    
C3    C60   A    
C40   C42   A    
O15   Zn4   S    
O12   Zn3   S    
N3    Zn3   S    
C41   C43   A    
C13   C87   A    
O7    Zn4   S    
C17   H21   S    
C71   H31   S    
C14   C45   A    
C29   N3    A    
C49   H42   S    
C46   C48   A    
C30   N4    A    
O14   Zn4   S    
C30   C32   A    
O11   Zn2   S    
C45   C88   A    
C75   H29   S    
C47   C49   A    
C2    C59   A    
C18   C62   A    
O6    Zn3   S    
C9    C84   A    
C49   C51   A    
C34   O15   A    
C4    C61   A    
C35   O6    A    
C22   C84   A    
C20   C64   A    
C7    C11   A    
C39   H4    S    
C4    C78   A    
N2    Zn2   S    
C36   O7    A    
C66   C71   A    
C33   C63   S    
C55   H40   S    
C46   C54   A    
C43   N4    A    
C16   C67   A    
C76   H30   S    
C48   C50   A    
C33   O5    A    
O1    Zn1   S    
C32   H6    S    
C23   O10   A    
C74   C79   A    
C53   F1    S    
C26   C70   A    
C25   C86   A    
C4    C6    A    
C25   C69   A    
O2    Zn1   S    
O4    Zn2   S    
C10   H37   S    
C37   C64   S    
C60   H16   S    
C56   C83   A    
C19   C59   A    
C75   C80   A    
C27   C47   A    
C69   H25   S    
C13   H39   S    
O10   Zn2   S    
C72   H32   S    
C42   N3    A    
C36   C65   S    
C27   H44   S    
C12   O9    A    
C57   H41   S    
C2    C8    A    
C67   C80   A    
C3    C5    A    
C50   H43   S    
C58   C88   A    
C76   C81   A    
C6    C10   A    
C34   O11   A    
C25   C34   S    
C17   C65   A    
C9    H36   S    
C55   N1    A    
C31   C38   A    
N1    Zn1   S    
C70   H26   S    
C15   C56   A    
C21   H34   S    
C11   H38   S    
C29   C31   A    
C82   C86   A    
N4    Zn4   S    
C71   C75   A    
C78   C81   A    
C54   N2    A    
C3    C67   A    
C77   C82   A    
C72   C76   A    
C31   H5    S    
C38   H3    S    
C14   H18   S    
C17   C78   A    
C57   N2    A    
C35   C62   S    
C37   O8    A    
C61   H17   S    
C8    H13   S    
C1    O1    A    
C24   C68   A    
C35   O2    A    
C79   C83   A    
C40   C44   A    
C29   H46   S    
C58   H14   S    
C1    C24   S    
C7    H11   S    
C23   O14   A    
C68   H24   S    
C15   C63   A    
C2    C56   A    
C16   C64   A    
C66   H22   S    
O9    Zn1   S    
C81   C85   A    
C6    H10   S    
C30   H2    S    
