data_mof_unit_9994.cif
_audit_creation_date              2012-12-10T16:55:45-0500
_audit_creation_method            fapswitch 2.2
_symmetry_space_group_name_H-M    P1
_symmetry_Int_Tables_number       1
_space_group_crystal_system       triclinic
_cell_length_a                    7.81172
_cell_length_b                    8.566424
_cell_length_c                    10.474964
_cell_angle_alpha                 91.598946
_cell_angle_beta                  84.783523
_cell_angle_gamma                 93.678366
_cell_volume                      696.455849281

loop_
_atom_site_label
_atom_site_type_symbol
_atom_type_description
_atom_site_fract_x
_atom_site_fract_y
_atom_site_fract_z
_atom_type_partial_charge
C1    C     C_R   0.545654 0.794594 0.496769 0.929289
C2    C     C_3   0.499667 0.500269 0.877593 0.028608
C3    C     C_3   0.395711 0.379648 0.046268 -0.166373
C4    C     C_3   0.604289 0.620352 0.953732 -0.166373
C5    C     C_2   0.569631 0.958157 0.494879 -0.365900
C6    C     C_2   0.430369 0.041843 0.505121 -0.365901
C7    C     C_R   0.454346 0.205406 0.503231 0.929289
C8    C     C_R   0.500298 0.500375 0.742487 0.837664
C9    C     C_R   0.499702 0.499625 0.257513 0.837664
C10   C     C_3   0.338314 0.515911 0.970377 -0.118369
C11   C     C_3   0.661686 0.484089 0.029623 -0.118369
C12   C     C_3   0.443285 0.635962 0.049206 -0.192534
C13   C     C_3   0.556715 0.364037 0.950794 -0.192535
C14   C     C_3   0.500333 0.499731 0.122407 0.028608
F1    F     F_    0.029871 0.356433 0.385451 -0.579346
F2    F     F_    0.970129 0.643567 0.614548 -0.579346
H1    H     H_    0.397192 0.746271 0.094233 0.145263
H2    H     H_    0.602808 0.253729 0.905767 0.145264
H3    H     H_    0.206293 0.528881 0.942381 0.163382
H4    H     H_    0.793707 0.471119 0.057619 0.163382
H5    H     H_    0.310961 0.282060 0.088922 0.160665
H6    H     H_    0.689039 0.717939 0.911078 0.160665
H7    H     H_    0.701194 0.009156 0.485080 0.206967
H8    H     H_    0.298806 0.990844 0.514920 0.206967
N1    N     N_2   0.950320 0.457950 0.465730 0.254046
N2    N     N_2   0.049680 0.542050 0.534270 0.254046
O1    O     O_R   0.389250 0.738570 0.508410 -0.609452
O2    O     O_R   0.610750 0.261430 0.491590 -0.609452
O3    O     O_R   0.678390 0.711620 0.486450 -0.582991
O4    O     O_R   0.321610 0.288380 0.513550 -0.582991
O5    O     O_R   0.355460 0.513510 0.697030 -0.623115
O6    O     O_R   0.644540 0.486490 0.302970 -0.623115
O7    O     O_R   0.644600 0.486560 0.675070 -0.583859
O8    O     O_R   0.355400 0.513440 0.324930 -0.583859
Zn1   Zn    Zn3+2 0.306940 0.517990 0.514670 1.096055
Zn2   Zn    Zn3+2 0.693060 0.482010 0.485330 1.096055

loop_
_geom_bond_atom_site_label_1
_geom_bond_atom_site_label_2
_ccdc_geom_bond_type
C12   H1    S    
C2    C4    S    
C9    C14   S    
C6    C7    S    
C4    C12   S    
C4    H6    S    
C5    H7    S    
C10   H3    S    
C6    H8    S    
C1    O3    A    
C7    O4    A    
C4    C11   S    
C11   C13   S    
O3    Zn2   S    
C9    O8    A    
C3    C14   S    
C10   C12   S    
C13   H2    S    
C1    C5    S    
O6    Zn2   S    
C12   C14   S    
C8    O7    A    
F2    N2    S    
C5    C6    D    
C11   C14   S    
O5    Zn1   S    
C11   H4    S    
C3    H5    S    
F1    N1    S    
N1    Zn2   S    
C2    C10   S    
O4    Zn1   S    
N2    Zn1   S    
O7    Zn2   S    
O2    Zn2   S    
C1    O1    A    
O8    Zn1   S    
C3    C10   S    
C2    C13   S    
C9    O6    A    
O1    Zn1   S    
N1    N2    D    
C8    O5    A    
C2    C8    S    
C7    O2    A    
C3    C13   S    
