data_mof_unit_53287.cif
_audit_creation_date              2012-12-11T15:49:58-0500
_audit_creation_method            fapswitch 2.2
_symmetry_space_group_name_H-M    P1
_symmetry_Int_Tables_number       1
_space_group_crystal_system       triclinic
_cell_length_a                    16.577413
_cell_length_b                    7.252733
_cell_length_c                    15.183417
_cell_angle_alpha                 90.0
_cell_angle_beta                  94.906128
_cell_angle_gamma                 89.999988
_cell_volume                      1818.8373213

loop_
_atom_site_label
_atom_site_type_symbol
_atom_type_description
_atom_site_fract_x
_atom_site_fract_y
_atom_site_fract_z
_atom_type_partial_charge
O1    O     O_R   0.663460 0.361880 0.165960 -0.525085
O2    O     O_R   0.336540 0.638120 0.834040 -0.526661
O3    O     O_R   0.836540 0.861880 0.334040 -0.525085
O4    O     O_R   0.163460 0.138120 0.665960 -0.526661
O5    O     O_R   0.827100 0.690020 0.163730 -0.513649
O6    O     O_R   0.172900 0.309980 0.836270 -0.527110
O7    O     O_R   0.672900 0.190020 0.336270 -0.513650
O8    O     O_R   0.327100 0.809980 0.663730 -0.527109
C1    C     C_R   0.853260 0.523050 0.143544 0.753355
C2    C     C_R   0.146671 0.476929 0.856374 0.751257
C3    C     C_R   0.646740 0.023050 0.356456 0.753355
C4    C     C_R   0.353329 0.976929 0.643626 0.751259
O9    O     O_R   0.663490 0.691490 0.155490 -0.530479
O10   O     O_R   0.336510 0.308510 0.844510 -0.523237
O11   O     O_R   0.836510 0.191490 0.344510 -0.530480
O12   O     O_R   0.163490 0.808510 0.655490 -0.523238
O13   O     O_R   0.671770 0.863400 0.325740 -0.537399
O14   O     O_R   0.328230 0.136600 0.674260 -0.531731
O15   O     O_R   0.828230 0.363400 0.174260 -0.537400
O16   O     O_R   0.171770 0.636600 0.825740 -0.531731
C5    C     C_R   0.635945 0.523170 0.133593 0.852933
C6    C     C_R   0.364103 0.476801 0.866334 0.872677
C7    C     C_R   0.864055 0.023170 0.366407 0.852932
C8    C     C_R   0.135897 0.976801 0.633666 0.872675
O17   O     O_3   0.752910 0.528900 0.305870 -0.378709
O18   O     O_3   0.247090 0.471100 0.694130 -0.376660
O19   O     O_3   0.747090 0.028900 0.194130 -0.378709
O20   O     O_3   0.252910 0.971100 0.805870 -0.376659
V1    V     V_3+5 0.749460 0.803130 0.239640 1.672454
V2    V     V_3+5 0.250540 0.196870 0.760360 1.640651
V3    V     V_3+5 0.750540 0.303130 0.260360 1.672452
V4    V     V_3+5 0.249460 0.696870 0.739640 1.640651
C9    C     C_R   0.924519 0.067075 0.521755 0.157688
C10   C     C_R   0.075740 0.932994 0.478158 0.130218
C11   C     C_R   0.575481 0.567073 0.978245 0.157686
C12   C     C_R   0.424260 0.432996 0.021842 0.130219
C13   C     C_R   0.988912 0.048014 0.588950 0.384446
C14   C     C_R   0.011176 0.951187 0.410947 0.330832
C15   C     C_R   0.511088 0.548013 0.911049 0.384448
C16   C     C_R   0.488824 0.451189 0.089053 0.330855
C17   C     C_R   0.065488 0.985258 0.566237 -0.328973
C18   C     C_R   0.934640 0.014625 0.433727 -0.329208
C19   C     C_R   0.434511 0.485258 0.933763 -0.328972
C20   C     C_R   0.565360 0.514625 0.066273 -0.329209
C21   C     C_1   0.416096 0.986026 0.581570 -0.075979
C22   C     C_1   0.584025 0.013910 0.418580 -0.037146
C23   C     C_1   0.083904 0.486026 0.918430 -0.075981
C24   C     C_1   0.915975 0.513910 0.081420 -0.037143
C25   C     C_1   0.468913 0.994650 0.530228 0.090214
C26   C     C_1   0.531230 0.005255 0.469949 0.104626
C27   C     C_1   0.031087 0.494650 0.969771 0.090215
C28   C     C_1   0.968770 0.505255 0.030051 0.104628
Br1   Br    Br    0.821002 0.167210 0.548446 -0.345533
Br2   Br    Br    0.179570 0.833674 0.452098 -0.410767
Br3   Br    Br    0.678998 0.667209 0.951554 -0.345534
Br4   Br    Br    0.320429 0.333681 0.047903 -0.410777
S1    S     S_3+6 0.971836 0.098038 0.701345 0.080320
O21   O     O_2   0.971226 0.303846 0.712894 -0.310380
O22   O     O_2   0.891319 0.021737 0.722114 -0.241186
O23   O     O_3   0.042827 0.006625 0.774371 -0.520001
H1    H     H_    0.029976 0.054202 0.832708 0.357255
S2    S     S_3+6 0.026807 0.896982 0.298442 0.083704
O24   O     O_2   0.967021 0.994489 0.234573 -0.327439
O25   O     O_2   0.110134 0.952442 0.276600 -0.241143
O26   O     O_3   0.015564 0.668422 0.283391 -0.491517
H2    H     H_    0.058384 0.611410 0.324013 0.367359
S3    S     S_3+6 0.528163 0.598037 0.798654 0.080321
O27   O     O_2   0.528767 0.803844 0.787105 -0.310384
O28   O     O_2   0.608683 0.521747 0.777885 -0.241185
O29   O     O_3   0.457174 0.506613 0.725630 -0.520001
H3    H     H_    0.470025 0.554189 0.667291 0.357255
S4    S     S_3+6 0.473192 0.396991 0.201559 0.083694
O30   O     O_2   0.532980 0.494490 0.265428 -0.327439
O31   O     O_2   0.389866 0.452468 0.223400 -0.241156
O32   O     O_3   0.484427 0.168430 0.216611 -0.491518
H4    H     H_    0.441588 0.111428 0.176006 0.367379

loop_
_geom_bond_atom_site_label_1
_geom_bond_atom_site_label_2
_ccdc_geom_bond_type
O17   V3    S    
O1    C5    A    
O19   V1    S    
O13   V1    S    
O3    C7    A    
O15   V3    S    
O7    C3    A    
C7    C18   S    
C9    C18   A    
O9    V1    S    
C14   C18   A    
C24   C28   T    
O4    C8    A    
S1    O22   D    
O1    V3    S    
O2    V4    S    
O3    V1    S    
S2    O25   D    
C1    O15   A    
C2    O16   A    
O2    C6    A    
O29   H3    S    
O14   V2    S    
O11   C7    A    
O12   C8    A    
C8    C17   S    
C10   C17   A    
O10   V2    S    
S4    O32   S    
O5    V1    S    
C9    Br1   S    
O7    V3    S    
C11   Br3   S    
S3    O27   D    
O8    V4    S    
C12   C16   A    
S4    O31   D    
O18   V4    S    
S4    O30   D    
S1    O23   S    
C23   C27   T    
C9    C13   A    
C27   C28   S    
O23   H1    S    
S3    O28   D    
C11   C15   A    
O32   H4    S    
O5    C1    A    
S2    O24   D    
C12   Br4   S    
C5    C20   S    
C6    C19   S    
C21   C25   T    
O8    C4    A    
O9    C5    A    
C11   C20   A    
O6    V2    S    
C10   Br2   S    
O16   V4    S    
C3    O13   A    
C16   S4    S    
S2    O26   S    
C10   C14   A    
C15   S3    S    
C4    C21   S    
C12   C19   A    
O6    C2    A    
C15   C19   A    
O11   V3    S    
O12   V4    S    
C22   C26   T    
S3    O29   S    
O10   C6    A    
O20   V2    S    
S1    O21   D    
O26   H2    S    
C13   C17   A    
C13   S1    S    
C16   C20   A    
C1    C24   S    
C25   C26   S    
C4    O14   A    
C2    C23   S    
C3    C22   S    
O4    V2    S    
C14   S2    S    
