data_mof_unit_13723.cif
_audit_creation_date              2012-12-10T17:10:14-0500
_audit_creation_method            fapswitch 2.2
_symmetry_space_group_name_H-M    P1
_symmetry_Int_Tables_number       1
_space_group_crystal_system       triclinic
_cell_length_a                    15.722856
_cell_length_b                    10.693521
_cell_length_c                    10.04659
_cell_angle_alpha                 88.91554
_cell_angle_beta                  90.288139
_cell_angle_gamma                 90.221994
_cell_volume                      1688.82422962

loop_
_atom_site_label
_atom_site_type_symbol
_atom_type_description
_atom_site_fract_x
_atom_site_fract_y
_atom_site_fract_z
_atom_type_partial_charge
C1    C     C_R   0.494130 0.263045 0.501331 0.930692
C2    C     C_2   0.509623 0.870679 0.490342 0.263957
C3    C     C_2   0.466260 0.068559 0.395651 -0.265695
C4    C     C_R   0.338014 0.500286 0.499628 0.884925
C5    C     C_2   0.473313 0.133583 0.506387 -0.302093
C6    C     C_2   0.559908 0.550103 0.925122 -0.200308
C7    C     C_2   0.549804 0.571253 0.073623 0.662779
C8    C     C_R   0.501347 0.737355 0.498273 0.854819
C9    C     C_R   0.661979 0.500217 0.500310 0.883220
C10   C     C_3   0.972675 0.418882 0.594513 -0.428530
C11   C     C_3   0.027558 0.389363 0.472176 0.593033
C12   C     C_3   0.082968 0.504318 0.497678 -0.019903
C13   C     C_1   0.249120 0.501905 0.498726 -0.163942
C14   C     C_1   0.750878 0.500533 0.500836 -0.175973
C15   C     C_3   0.027933 0.536156 0.617917 0.448989
C16   C     C_3   0.999254 0.183384 0.426953 -0.313837
C17   C     C_3   0.585962 0.778914 0.072525 -0.327829
C18   C     C_3   0.391933 0.369843 0.125113 -0.179721
C19   C     C_3   0.999081 0.825693 0.554449 -0.322265
C20   C     C_3   0.001350 0.580414 0.836919 -0.286913
C21   C     C_3   0.327839 0.940367 0.289396 -0.319381
C22   C     C_3   0.650104 0.869788 0.563089 -0.280068
C23   C     C_3   0.972228 0.616421 0.525038 0.541414
C24   C     C_3   0.916986 0.500695 0.499955 -0.010102
C25   C     C_3   0.027143 0.585204 0.403168 -0.388978
C26   C     C_3   0.970831 0.468062 0.377260 -0.273231
C27   C     C_1   0.173846 0.503331 0.498040 0.064094
C28   C     C_1   0.826157 0.500671 0.500658 0.038342
C29   C     C_2   0.456073 0.933448 0.407328 0.425434
H1    H     H_    0.463326 0.089869 0.603796 0.189137
H2    H     H_    0.620364 0.784613 0.976248 0.161682
H3    H     H_    0.612746 0.852327 0.137290 0.205274
H4    H     H_    0.353432 0.457175 0.121447 0.141509
H5    H     H_    0.385395 0.321515 0.222830 0.192072
H6    H     H_    0.364776 0.306509 0.049602 0.140058
H7    H     H_    0.948332 0.351095 0.670329 0.162218
H8    H     H_    0.051657 0.651883 0.326384 0.171302
H9    H     H_    0.023732 0.842791 0.452197 0.156590
H10   H     H_    0.052062 0.801879 0.624085 0.198925
H11   H     H_    0.970590 0.914273 0.588243 0.184868
H12   H     H_    0.944936 0.438629 0.279691 0.162487
H13   H     H_    0.976565 0.485616 0.862881 0.162437
H14   H     H_    0.948444 0.643335 0.805593 0.190285
H15   H     H_    0.029982 0.619359 0.928439 0.186874
H16   H     H_    0.345407 0.010651 0.211306 0.167802
H17   H     H_    0.298540 0.986206 0.376494 0.169358
H18   H     H_    0.279057 0.877753 0.245985 0.192732
H19   H     H_    0.667674 0.841812 0.460577 0.159207
H20   H     H_    0.649465 0.787205 0.631856 0.174985
H21   H     H_    0.700308 0.934359 0.598725 0.199466
H22   H     H_    0.470300 0.112065 0.297257 0.184301
H23   H     H_    0.955453 0.210086 0.344002 0.163607
H24   H     H_    0.963194 0.168016 0.520812 0.161399
H25   H     H_    0.028876 0.093097 0.401214 0.182401
H26   H     H_    0.617786 0.582471 0.877124 0.157063
H27   H     H_    0.441919 0.490648 0.894544 0.202993
H28   H     H_    0.517182 0.800252 0.057794 0.174550
N1    N     N_2   0.500900 0.501330 0.852150 -0.184698
N2    N     N_2   0.500930 0.501360 0.147810 0.049018
O1    O     O_R   0.499990 0.319060 0.613040 -0.602756
O2    O     O_3   0.598332 0.661636 0.136085 -0.611308
O3    O     O_3   0.478061 0.391349 0.094244 -0.577936
O4    O     O_3   0.935474 0.732635 0.555050 -0.613742
O5    O     O_3   0.064844 0.574254 0.738927 -0.605032
O6    O     O_3   0.398917 0.867541 0.327305 -0.617720
O7    O     O_3   0.571310 0.932760 0.565265 -0.639236
O8    O     O_R   0.500010 0.319100 0.386900 -0.603344
O9    O     O_R   0.376760 0.499970 0.613050 -0.612759
O10   O     O_R   0.376790 0.500010 0.386910 -0.633677
O11   O     O_R   0.499990 0.680900 0.613100 -0.623812
O12   O     O_R   0.500010 0.680940 0.386960 -0.560912
O13   O     O_R   0.623210 0.499990 0.613090 -0.620541
O14   O     O_R   0.623240 0.500030 0.386950 -0.571313
O15   O     O_3   0.064229 0.272877 0.443197 -0.599846
Zn1   Zn    Zn3+2 0.499980 0.499970 0.650990 0.962540
Zn2   Zn    Zn3+2 0.500020 0.500030 0.349010 1.038562

loop_
_geom_bond_atom_site_label_1
_geom_bond_atom_site_label_2
_ccdc_geom_bond_type
C22   H19   S    
C6    N1    D    
C9    O13   A    
C6    H26   S    
O9    Zn1   S    
C2    C29   D    
C16   O15   S    
C24   C26   S    
C5    H1    S    
C10   C15   S    
O12   Zn2   S    
O10   Zn2   S    
C4    C13   S    
C3    C29   S    
C16   H24   S    
C22   O7    S    
C25   H8    S    
C7    O2    S    
C19   O4    S    
C8    O12   A    
C15   O5    S    
C18   H6    S    
C22   H21   S    
C17   O2    S    
C15   C23   S    
C9    O14   A    
O13   Zn1   S    
C7    N2    D    
C4    O10   A    
C20   H15   S    
N1    Zn1   S    
C21   H16   S    
C12   C27   S    
C16   H23   S    
C10   C11   S    
C1    O1    A    
C4    O9    A    
C3    H22   S    
C18   O3    S    
C11   C26   S    
C3    C5    D    
C25   C26   S    
C20   O5    S    
C9    C14   S    
C19   H9    S    
C12   C15   S    
C23   C24   S    
C18   H5    S    
C19   H10   S    
C22   H20   S    
C29   O6    S    
C17   H2    S    
O14   Zn2   S    
C1    C5    S    
C20   H14   S    
C21   H17   S    
N2    O3    S    
C21   O6    S    
C2    C8    S    
C24   C28   S    
C2    O7    S    
C11   O15   S    
C20   H13   S    
C11   C12   S    
C6    C7    S    
O1    Zn1   S    
C8    O11   A    
C12   C25   S    
C10   C24   S    
C23   O4    S    
C1    O8    A    
H27   N1    S    
C23   C25   S    
C18   H4    S    
C16   H25   S    
C19   H11   S    
O11   Zn1   S    
C17   H3    S    
C13   C27   T    
C10   H7    S    
O8    Zn2   S    
C14   C28   T    
N2    Zn2   S    
C26   H12   S    
C17   H28   S    
C21   H18   S    
