data_mof_unit_9292.cif
_audit_creation_date              2012-12-10T19:00:01-0500
_audit_creation_method            fapswitch 2.2
_symmetry_space_group_name_H-M    P1
_symmetry_Int_Tables_number       1
_space_group_crystal_system       triclinic
_cell_length_a                    10.735788
_cell_length_b                    10.716377
_cell_length_c                    9.81653
_cell_angle_alpha                 90.075671
_cell_angle_beta                  90.38993
_cell_angle_gamma                 90.024597
_cell_volume                      1129.35227423

loop_
_atom_site_label
_atom_site_type_symbol
_atom_type_description
_atom_site_fract_x
_atom_site_fract_y
_atom_site_fract_z
_atom_type_partial_charge
Br1   Br    Br    0.292982 0.789600 0.872046 -0.574292
Br2   Br    Br    0.707018 0.210400 0.127954 -0.574292
C1    C     C_R   0.499522 0.259802 0.499909 0.876808
C2    C     C_R   0.515298 0.064100 0.623151 -0.196869
C3    C     C_R   0.500880 0.872605 0.500025 -0.024960
C4    C     C_R   0.499120 0.127395 0.499974 -0.024960
C5    C     C_R   0.570121 0.584310 0.072638 -0.064513
C6    C     C_R   0.429879 0.415690 0.927362 -0.064513
C7    C     C_R   0.570157 0.584221 0.928584 -0.009668
C8    C     C_R   0.429843 0.415779 0.071416 -0.009668
C9    C     C_R   0.259980 0.503607 0.499331 0.884035
C10   C     C_R   0.740020 0.496392 0.500669 0.884034
C11   C     C_R   0.227546 0.778451 0.155581 -0.167073
C12   C     C_R   0.500478 0.740197 0.500091 0.876807
C13   C     C_R   0.772454 0.221549 0.844418 -0.167073
C14   C     C_R   0.175421 0.724423 0.271643 -0.166150
C15   C     C_R   0.824579 0.275577 0.728357 -0.166150
C16   C     C_R   0.118128 0.606850 0.263108 0.149385
C17   C     C_R   0.881872 0.393150 0.736892 0.149385
C18   C     C_R   0.114568 0.543711 0.137748 -0.223116
C19   C     C_R   0.885432 0.456289 0.862252 -0.223116
C20   C     C_R   0.167433 0.597658 0.022207 -0.193057
C21   C     C_R   0.832567 0.402342 0.977793 -0.193057
C22   C     C_R   0.223503 0.715170 0.030870 0.344238
C23   C     C_R   0.872502 0.494169 0.501690 -0.076734
C24   C     C_R   0.776497 0.284830 0.969130 0.344238
C25   C     C_R   0.932349 0.542860 0.387599 -0.233255
C26   C     C_R   0.067651 0.457140 0.612401 -0.233255
C27   C     C_R   0.127498 0.505830 0.498310 -0.076734
C28   C     C_R   0.939966 0.449876 0.615340 0.006623
C29   C     C_R   0.060034 0.550124 0.384660 0.006623
C30   C     C_R   0.483186 0.063632 0.376908 -0.140075
C31   C     C_R   0.516814 0.936368 0.623092 -0.140075
C32   C     C_R   0.484702 0.935900 0.376849 -0.196869
H1    H     H_    0.626412 0.651289 0.874325 0.127688
H2    H     H_    0.835203 0.451840 0.073944 0.158801
H3    H     H_    0.879529 0.578999 0.301632 0.159651
H4    H     H_    0.120470 0.421001 0.698368 0.159651
H5    H     H_    0.469230 0.111971 0.281161 0.184725
H6    H     H_    0.530770 0.888029 0.718839 0.184725
H7    H     H_    0.472905 0.887158 0.280909 0.166281
H8    H     H_    0.527095 0.112842 0.719091 0.166281
H9    H     H_    0.626360 0.651440 0.127854 0.126961
H10   H     H_    0.373640 0.348560 0.872146 0.126961
H11   H     H_    0.373588 0.348711 0.125675 0.127688
H12   H     H_    0.270175 0.869764 0.162336 0.151425
H13   H     H_    0.729825 0.130235 0.837664 0.151425
H14   H     H_    0.178887 0.774264 0.367666 0.140607
H15   H     H_    0.821113 0.225736 0.632334 0.140607
H16   H     H_    0.071739 0.452469 0.129968 0.155884
H17   H     H_    0.928261 0.547531 0.870032 0.155884
H18   H     H_    0.164797 0.548160 0.926056 0.158801
N1    N     N_R   0.499970 0.499970 0.857200 -0.074389
N2    N     N_R   0.500030 0.500030 0.142800 -0.074389
O1    O     O_R   0.499990 0.316750 0.614620 -0.634681
O2    O     O_R   0.500010 0.683250 0.385380 -0.634680
O3    O     O_R   0.499990 0.316780 0.385290 -0.601889
O4    O     O_R   0.500010 0.683220 0.614710 -0.601889
O5    O     O_R   0.316760 0.500000 0.614660 -0.610776
O6    O     O_R   0.683240 0.500000 0.385340 -0.610775
O7    O     O_R   0.316760 0.500020 0.385330 -0.618432
O8    O     O_R   0.683240 0.499980 0.614670 -0.618432
Zn1   Zn    Zn3+2 0.500000 0.499980 0.653120 0.976818
Zn2   Zn    Zn3+2 0.500000 0.500020 0.346880 0.976818

loop_
_geom_bond_atom_site_label_1
_geom_bond_atom_site_label_2
_ccdc_geom_bond_type
C6    N1    A    
O7    Zn2   S    
C4    C30   A    
O2    Zn2   S    
C13   C15   A    
O8    Zn1   S    
C5    H9    S    
C23   C25   A    
C10   O8    A    
C12   O2    A    
C26   H4    S    
C10   C23   S    
O6    Zn2   S    
C1    C4    S    
C3    C32   A    
C14   H14   S    
C8    H11   S    
C26   C28   A    
C27   C29   A    
O1    Zn1   S    
Br1   C22   S    
O4    Zn1   S    
N1    Zn1   S    
C9    C27   S    
C3    C12   S    
C32   H7    S    
C2    H8    S    
C25   H3    S    
C9    O5    A    
C1    O3    A    
C14   C16   A    
C26   C27   A    
C15   C17   A    
C18   C20   A    
C21   H2    S    
C20   H18   S    
C16   C18   A    
C19   C21   A    
C30   H5    S    
C11   H12   S    
C12   O4    A    
C20   C22   A    
O5    Zn1   S    
C11   C14   A    
C31   H6    S    
C7    N1    A    
C8    N2    A    
C25   C29   A    
C10   O6    A    
C5    C7    A    
C19   H17   S    
N2    Zn2   S    
O3    Zn2   S    
Br2   C24   S    
C2    C4    A    
C21   C24   A    
C15   H15   S    
C23   C28   A    
C7    H1    S    
C2    C31   A    
C13   C24   A    
C13   H13   S    
C18   H16   S    
C16   C29   S    
C5    N2    A    
C17   C19   A    
C17   C28   S    
C1    O1    A    
C6    C8    A    
C6    H10   S    
C11   C22   A    
C30   C32   A    
C9    O7    A    
C3    C31   A    
