data_mof_unit_34564.cif
_audit_creation_date              2013-03-05T15:41:46-0500
_audit_creation_method            fapswitch 2.2
_symmetry_space_group_name_H-M    P1
_symmetry_Int_Tables_number       1
_space_group_crystal_system       triclinic
_cell_length_a                    11.146831
_cell_length_b                    12.724057
_cell_length_c                    23.574077
_cell_angle_alpha                 90.786562
_cell_angle_beta                  96.585458
_cell_angle_gamma                 68.535864
_cell_volume                      3089.71856003

loop_
_atom_site_label
_atom_site_type_symbol
_atom_site_description
_atom_site_fract_x
_atom_site_fract_y
_atom_site_fract_z
_atom_type_partial_charge
O1    O     O_R   0.196340 0.303200 0.448500 -0.507003
O2    O     O_R   0.199310 0.519670 0.454880 -0.493836
C1    C     C_R   0.149545 0.616362 0.428736 0.546472
O3    O     O_R   0.045660 0.691380 0.441680 -0.508046
O4    O     O_R   0.811930 0.659460 0.430950 -0.503027
C2    C     C_R   0.750599 0.603464 0.403778 0.545069
O5    O     O_R   0.757900 0.507620 0.421760 -0.518347
O6    O     O_R   0.988630 0.322990 0.439840 -0.495132
C3    C     C_R   0.101359 0.282252 0.423351 0.546666
O7    O     O_R   0.196380 0.301720 0.573850 -0.489358
O8    O     O_R   0.199350 0.518300 0.571080 -0.512573
C4    C     C_R   0.147486 0.615893 0.591256 0.542522
O9    O     O_R   0.045700 0.689900 0.567030 -0.520098
O10   O     O_R   0.811960 0.658090 0.547150 -0.498746
C5    C     C_R   0.749685 0.602418 0.566022 0.543891
O11   O     O_R   0.757930 0.506140 0.547110 -0.510657
O12   O     O_R   0.988670 0.321620 0.556040 -0.514114
C6    C     C_R   0.100130 0.279134 0.585396 0.562397
Cr1   Cr    Cr6+3 0.189770 0.415650 0.511620 1.019047
Cr2   Cr    Cr6+3 0.930400 0.667320 0.496770 1.021640
Cr3   Cr    Cr6+3 0.879870 0.417010 0.491650 1.019976
O13   O     O_3   0.000020 0.499990 0.500010 -0.248943
C7    C     C_R   0.668237 0.753801 0.139235 0.006199
C8    C     C_R   0.700475 0.633985 0.343974 0.008519
C9    C     C_R   0.662463 0.560447 0.251566 -0.143553
C10   C     C_R   0.667121 0.554725 0.310215 -0.128974
C11   C     C_R   0.714119 0.727153 0.317933 -0.126876
C12   C     C_R   0.704123 0.735860 0.258472 0.040440
C13   C     C_R   0.684029 0.648833 0.225755 0.041412
C14   C     C_R   0.677826 0.654097 0.167090 -0.118108
C15   C     C_R   0.691587 0.839862 0.171141 -0.132270
C16   C     C_R   0.713601 0.829147 0.230823 -0.139130
H1    H     H_    0.663740 0.585270 0.143124 0.134137
H2    H     H_    0.685126 0.917476 0.150404 0.135603
H3    H     H_    0.642535 0.495435 0.226426 0.110821
H4    H     H_    0.729450 0.896624 0.255239 0.113121
H5    H     H_    0.654479 0.482934 0.329152 0.143960
H6    H     H_    0.738139 0.789532 0.343692 0.124993
C17   C     C_1   0.235205 0.162657 0.123003 -0.001292
C18   C     C_2   0.180418 0.233119 0.226619 -0.120755
C19   C     C_2   0.156166 0.165029 0.262923 -0.120766
C20   C     C_1   0.133232 0.198741 0.320659 -0.045387
C21   C     C_1   0.209772 0.197568 0.169741 -0.046194
C22   C     C_1   0.116749 0.231960 0.368418 -0.000196
H7    H     H_    0.156339 0.082755 0.249852 0.138565
H8    H     H_    0.181079 0.315056 0.239881 0.138460
C23   C     C_1   0.167307 0.751185 0.123946 -0.004672
C24   C     C_2   0.141633 0.691045 0.228105 -0.124667
C25   C     C_2   0.236696 0.675414 0.271372 -0.125972
C26   C     C_1   0.217788 0.651573 0.328908 -0.047117
C27   C     C_1   0.154925 0.722571 0.171003 -0.046965
C28   C     C_1   0.193993 0.633979 0.375889 -0.002496
H9    H     H_    0.327375 0.683720 0.264102 0.142003
H10   H     H_    0.050669 0.683663 0.235734 0.142392
C29   C     C_1   0.628362 0.754557 0.864959 -0.009787
C30   C     C_2   0.700845 0.698421 0.762212 -0.134210
C31   C     C_2   0.610638 0.708522 0.717655 -0.131213
C32   C     C_1   0.649412 0.672171 0.662098 -0.055470
C33   C     C_1   0.664158 0.730956 0.818438 -0.053203
C34   C     C_1   0.689124 0.640844 0.616920 -0.011921
H11   H     H_    0.507896 0.743582 0.722738 0.141345
H12   H     H_    0.803322 0.660840 0.757093 0.140563
C35   C     C_R   0.199457 0.185981 0.855606 0.036950
C36   C     C_R   0.107962 0.231878 0.642290 0.037260
C37   C     C_R   0.985954 0.217550 0.718473 -0.149770
C38   C     C_R   0.993954 0.229154 0.660887 -0.170615
C39   C     C_R   0.217616 0.218174 0.682127 0.135507
C40   C     C_R   0.203508 0.220195 0.740281 0.027913
C41   C     C_R   0.090834 0.211406 0.758974 0.033313
C42   C     C_R   0.090257 0.190592 0.817557 0.123439
C43   C     C_R   0.291451 0.224946 0.837332 -0.162405
C44   C     C_R   0.298193 0.234890 0.780171 -0.151167
H13   H     H_    0.370170 0.232154 0.866698 0.141220
H14   H     H_    0.895091 0.218576 0.730720 0.117912
H15   H     H_    0.380077 0.251478 0.768236 0.128132
H16   H     H_    0.908380 0.240719 0.631003 0.137830
C45   C     C_R   0.132117 0.742036 0.853553 0.007126
C46   C     C_R   0.177920 0.633220 0.650936 0.018091
C47   C     C_R   0.321679 0.591357 0.738809 -0.146079
C48   C     C_R   0.302539 0.582045 0.679871 -0.157072
C49   C     C_R   0.072814 0.693672 0.680556 -0.116781
C50   C     C_R   0.090919 0.704484 0.738634 0.040214
C51   C     C_R   0.216148 0.652730 0.768161 0.043101
C52   C     C_R   0.234916 0.668906 0.825990 -0.124358
C53   C     C_R   0.006518 0.787524 0.824904 -0.147833
C54   C     C_R   0.985923 0.768771 0.767250 -0.151220
H17   H     H_    0.332578 0.632871 0.848025 0.134070
H18   H     H_    0.926526 0.842630 0.846152 0.123988
H19   H     H_    0.418459 0.552129 0.761231 0.109488
H20   H     H_    0.889711 0.809116 0.744485 0.108637
H21   H     H_    0.383600 0.534319 0.657122 0.113123
H22   H     H_    0.975154 0.731065 0.658561 0.133192
O14   O     O_R   0.113660 0.883270 0.047820 -0.507143
O15   O     O_R   0.186930 0.068530 0.043990 -0.495358
C55   C     C_R   0.265587 0.110133 0.069448 0.542713
O16   O     O_R   0.377770 0.089040 0.054220 -0.511263
O17   O     O_R   0.562800 0.872960 0.056970 -0.499203
C56   C     C_R   0.600166 0.774905 0.081200 0.544161
O18   O     O_R   0.555390 0.700940 0.062700 -0.521490
O19   O     O_R   0.295020 0.731920 0.049950 -0.493916
C57   C     C_R   0.189601 0.788267 0.069933 0.545639
O20   O     O_R   0.094290 0.884230 0.921550 -0.531591
O21   O     O_R   0.168980 0.069410 0.926940 -0.468782
C58   C     C_R   0.240253 0.117205 0.908471 0.558566
O22   O     O_R   0.358400 0.089990 0.927950 -0.531011
O23   O     O_R   0.544850 0.873850 0.939920 -0.493212
C59   C     C_R   0.573615 0.776245 0.918094 0.544037
O24   O     O_R   0.536020 0.701900 0.936430 -0.514300
O25   O     O_R   0.277070 0.732810 0.932890 -0.506796
C60   C     C_R   0.164587 0.785718 0.907626 0.536136
Cr4   Cr    Cr6+3 0.149500 0.973980 0.985330 1.031011
Cr5   Cr    Cr6+3 0.457000 0.976510 0.994660 1.022469
Cr6   Cr    Cr6+3 0.411170 0.724270 0.995270 1.019757
O26   O     O_3   0.339220 0.891590 0.991750 -0.248232
N1    N     N_2   0.985578 0.169370 0.837972 -0.510500
H23   H     H_    0.897233 0.235027 0.829946 0.237481
C61   C     C_3   0.978713 0.060145 0.824722 -0.258318
H24   H     H_    0.918793 0.040598 0.854366 0.161698
H25   H     H_    0.077281 0.993341 0.829177 0.187519
H26   H     H_    0.932433 0.059717 0.780588 0.109626
N2    N     N_2   0.343310 0.192481 0.663822 -0.500727
H27   H     H_    0.412624 0.118640 0.681827 0.244302
C62   C     C_3   0.390940 0.284255 0.661404 -0.262826
H28   H     H_    0.478863 0.268264 0.692539 0.090365
H29   H     H_    0.315613 0.366179 0.670411 0.170473
H30   H     H_    0.419508 0.289723 0.618308 0.176368

loop_
_geom_bond_atom_site_label_1
_geom_bond_atom_site_label_2
_geom_bond_distance
_ccdc_geom_bond_type
O11   Cr3   2.020353 S    
C23   C57   1.442420 S    
C29   C33   1.206539 T    
C19   C20   1.444084 S    
C55   O16   1.272526 A    
C52   H17   1.084759 S    
Cr5   O26   1.977716 S    
O17   C56   1.281052 A    
C62   H28   1.110763 S    
O4    Cr2   1.945228 S    
O23   Cr5   1.907331 S    
C53   C54   1.384395 A    
C24   H10   1.086862 S    
O16   Cr5   2.026163 S    
O8    Cr1   1.923448 S    
C16   H4    1.083414 S    
C12   C13   1.410554 A    
C8    C10   1.404689 A    
C61   H25   1.110516 S    
O4    C2    1.276253 A    
C46   C48   1.397073 A    
C62   H29   1.109492 S    
O23   C59   1.280155 A    
C11   H6    1.084171 S    
C32   C34   1.206835 T    
C5    O11   1.272775 A    
C56   O18   1.267923 A    
O15   Cr4   1.929521 S    
C30   C31   1.340812 D    
O21   Cr4   1.929688 S    
C5    C34   1.436165 S    
C49   H22   1.085594 S    
C18   C21   1.444023 S    
C51   C52   1.379500 A    
C40   C41   1.419590 A    
N1    C61   1.447523 S    
C4    C46   1.442139 S    
C26   C28   1.210270 T    
C59   O24   1.264990 A    
C8    C11   1.406650 A    
C14   H1    1.085127 S    
O25   Cr6   1.946805 S    
C38   H16   1.083439 S    
Cr3   O13   1.978880 S    
O20   Cr4   2.049022 S    
C41   C42   1.410945 A    
C20   C22   1.207294 T    
C44   H15   1.076263 S    
C39   N2    1.433789 S    
C58   O22   1.263756 A    
C49   C50   1.373313 A    
C24   C27   1.448779 S    
C9    C13   1.393921 A    
O1    Cr1   2.038773 S    
C47   H19   1.083841 S    
C39   C40   1.396543 A    
C7    C14   1.399868 A    
O10   Cr2   1.909002 S    
C12   C16   1.404904 A    
Cr1   O13   1.978482 S    
O1    C3    1.265570 A    
C54   H20   1.083670 S    
C61   H26   1.107899 S    
O14   C57   1.271525 A    
C43   H13   1.084179 S    
O17   Cr5   1.950158 S    
O6    C3    1.276160 A    
C62   H30   1.109404 S    
C17   C21   1.207362 T    
C45   C52   1.405325 A    
C9    C10   1.379545 A    
C50   C54   1.399739 A    
O12   Cr3   1.949156 S    
C37   H14   1.080118 S    
C29   C59   1.435347 S    
C36   C38   1.403155 A    
O24   Cr6   2.020861 S    
C18   H8    1.086685 S    
C36   C39   1.411235 A    
C13   C14   1.378079 A    
C15   C16   1.399968 A    
C35   C42   1.410115 A    
O7    Cr1   2.052919 S    
C40   C44   1.394692 A    
C2    C8    1.458127 S    
O12   C6    1.279179 A    
C15   H2    1.082869 S    
C17   C55   1.436846 S    
N2    H27   1.031671 S    
C35   C43   1.400785 A    
C9    H3    1.084286 S    
C18   C19   1.342009 D    
O22   Cr5   2.066524 S    
O14   Cr4   2.044766 S    
C50   C51   1.408439 A    
C30   H12   1.085504 S    
O20   C60   1.273504 A    
C1    O3    1.268586 A    
C11   C12   1.396056 A    
Cr6   O26   1.980581 S    
C53   H18   1.082986 S    
C37   C41   1.401278 A    
C24   C25   1.343949 D    
C3    C22   1.436603 S    
O9    Cr2   2.060736 S    
O2    Cr1   1.933002 S    
O19   Cr6   1.906426 S    
Cr2   O13   1.980624 S    
C35   C58   1.460969 S    
O6    Cr3   1.905457 S    
O18   Cr6   2.068063 S    
C23   C27   1.210446 T    
C1    C28   1.441622 S    
C10   H5    1.083242 S    
C31   H11   1.086769 S    
C2    O5    1.267764 A    
C42   N1    1.424439 S    
C30   C33   1.442538 S    
C48   H21   1.083257 S    
O2    C1    1.282256 A    
C43   C44   1.368326 A    
O5    Cr3   2.069653 S    
C61   H24   1.108935 S    
C47   C51   1.404268 A    
C46   C49   1.401873 A    
C6    C36   1.457709 S    
C31   C32   1.443258 S    
O7    C6    1.265912 A    
C25   H9    1.086582 S    
O19   C57   1.271980 A    
Cr4   O26   1.975514 S    
C37   C38   1.384038 A    
O15   C55   1.272553 A    
N2    C62   1.453008 S    
C45   C53   1.397155 A    
C47   C48   1.391414 A    
O3    Cr2   2.027926 S    
C7    C56   1.463702 S    
C4    O9    1.258748 A    
C25   C26   1.449071 S    
O21   C58   1.277020 A    
C19   H7    1.086582 S    
O10   C5    1.273177 A    
O25   C60   1.265702 A    
C45   C60   1.444570 S    
N1    H23   1.031032 S    
O8    C4    1.274344 A    
C7    C15   1.404870 A    
