data_mof_unit_36738.cif
_audit_creation_date              2012-10-26T20:00:11-0400
_audit_creation_method            fapswitch 2.2
_symmetry_space_group_name_H-M    P1
_symmetry_Int_Tables_number       1
_space_group_crystal_system       triclinic
_cell_length_a                    23.505974
_cell_length_b                    10.901747
_cell_length_c                    9.754409
_cell_angle_alpha                 90.930832
_cell_angle_beta                  90.871319
_cell_angle_gamma                 90.61008
_cell_volume                      2498.86035858

loop_
_atom_site_label
_atom_site_type_symbol
_atom_type_description
_atom_site_fract_x
_atom_site_fract_y
_atom_site_fract_z
_atom_type_partial_charge
C1    C     C_R   0.501726 0.265461 0.498584 0.591084
C2    C     C_R   0.120365 0.606646 0.468134 0.414957
C3    C     C_R   0.242252 0.584149 0.597111 -0.043167
C4    C     C_R   0.391191 0.500065 0.499521 0.555088
C5    C     C_R   0.301511 0.582040 0.592984 -0.125141
C6    C     C_R   0.328898 0.503287 0.500510 0.024828
C7    C     C_R   0.296361 0.424980 0.414302 -0.110935
C8    C     C_R   0.237108 0.427004 0.418467 -0.051914
C9    C     C_R   0.209850 0.506673 0.509786 0.237932
C10   C     C_R   0.760817 0.497182 0.632784 -0.043405
C11   C     C_R   0.701540 0.495347 0.629521 -0.127678
C12   C     C_R   0.969891 0.316632 0.648473 0.301592
C13   C     C_R   0.671688 0.500822 0.503798 0.020636
C14   C     C_R   0.702322 0.507678 0.381402 -0.105091
C15   C     C_R   0.761691 0.509846 0.384991 -0.040657
C16   C     C_R   0.501678 0.734609 0.501310 0.547307
C17   C     C_R   0.791130 0.504800 0.510717 0.227067
C18   C     C_2   0.517503 0.930704 0.393175 -0.107681
C19   C     C_2   0.508117 0.866745 0.506639 -0.150898
C20   C     C_2   0.526295 0.064037 0.397277 0.246230
C21   C     C_2   0.500655 0.132718 0.494649 -0.085154
C22   C     C_2   0.484754 0.407861 0.920763 0.023717
C23   C     C_R   0.029452 0.310058 0.637418 0.091082
C24   C     C_2   0.469969 0.426389 0.068120 0.411862
C25   C     C_R   0.608996 0.500171 0.500947 0.562805
C26   C     C_R   0.880424 0.611243 0.476846 0.439878
C27   C     C_R   0.880463 0.406657 0.559001 0.445044
C28   C     C_R   0.939933 0.410656 0.579642 0.001786
C29   C     C_R   0.970352 0.511360 0.525710 -0.106322
C30   C     C_R   0.940575 0.613693 0.471439 0.027186
C31   C     C_R   0.060583 0.407436 0.576953 0.001337
C32   C     C_R   0.030576 0.509553 0.525635 -0.059572
C33   C     C_R   0.060855 0.609411 0.471535 -0.003650
C34   C     C_R   0.031607 0.709631 0.419174 -0.079573
C35   C     C_R   0.972280 0.713247 0.415763 0.249554
C36   C     C_R   0.120899 0.408956 0.568912 0.412388
Cu1   Cu    Cu3+1 0.500010 0.500020 0.638630 0.984497
Cu2   Cu    Cu3+1 0.499990 0.499980 0.361370 1.161220
H1    H     H_    0.679178 0.489804 0.725504 0.144129
H2    H     H_    0.221457 0.645258 0.668692 0.148583
H3    H     H_    0.326013 0.642260 0.661375 0.140226
H4    H     H_    0.316561 0.359869 0.346819 0.193096
H5    H     H_    0.212317 0.365952 0.351725 0.150436
H6    H     H_    0.783313 0.493347 0.730315 0.158251
H7    H     H_    0.860709 0.222458 0.891432 0.379462
H8    H     H_    0.634553 0.053150 0.132972 0.375962
H9    H     H_    0.320662 0.448440 0.105993 0.361442
H10   H     H_    0.077963 0.158127 0.607843 0.284738
H11   H     H_    0.084854 0.226640 0.768300 0.293087
H12   H     H_    0.680499 0.511861 0.283035 0.157125
H13   H     H_    0.550058 0.623150 0.064253 0.219951
H14   H     H_    0.574262 0.471699 0.053605 0.237041
H15   H     H_    0.876476 0.866555 0.176315 0.385840
H16   H     H_    0.784880 0.515275 0.290165 0.153474
H17   H     H_    0.521174 0.883788 0.294619 0.197634
H18   H     H_    0.508789 0.910373 0.607426 0.115050
H19   H     H_    0.474828 0.090714 0.572568 0.068983
H20   H     H_    0.477263 0.318862 0.872357 0.187646
H21   H     H_    0.495699 0.584609 0.890590 0.217505
H22   H     H_    0.055486 0.785511 0.377739 0.211577
N1    N     N_R   0.852241 0.507525 0.514979 -0.418503
N2    N     N_R   0.148881 0.507395 0.515556 -0.390418
N3    N     N_2   0.499380 0.498660 0.846910 -0.390843
N4    N     N_2   0.499370 0.498630 0.153040 -0.156209
N5    N     N_3   0.056867 0.202388 0.687852 -0.504959
N6    N     N_3   0.553163 0.538292 0.111631 -0.502727
O1    O     O_R   0.500010 0.321960 0.617040 -0.517130
O2    O     O_R   0.582130 0.500060 0.617050 -0.506149
O3    O     O_R   0.582110 0.500020 0.382900 -0.455725
O4    O     O_2   0.849708 0.710975 0.446818 -0.380875
O5    O     O_2   0.912742 0.105015 0.684493 -0.166613
O6    O     O_2   0.975418 0.173047 0.873990 -0.221370
O7    O     O_3   0.880868 0.287239 0.840535 -0.497878
O8    O     O_2   0.535715 0.178623 0.157546 -0.267479
O9    O     O_2   0.609609 0.223596 0.332474 -0.276326
O10   O     O_3   0.611723 0.013035 0.204423 -0.516484
O11   O     O_2   0.380501 0.284954 0.993507 -0.303509
O12   O     O_2   0.850878 0.301581 0.576055 -0.378099
O13   O     O_2   0.407881 0.283085 0.235347 -0.259683
O14   O     O_3   0.358252 0.478320 0.140474 -0.534382
O15   O     O_2   0.911753 0.920217 0.435818 -0.166918
O16   O     O_2   0.986399 0.917433 0.264204 -0.254220
O17   O     O_3   0.894555 0.791339 0.211255 -0.468378
O18   O     O_2   0.151936 0.314468 0.614897 -0.497290
O19   O     O_2   0.149690 0.701873 0.416054 -0.470812
O20   O     O_R   0.499990 0.321920 0.382900 -0.394089
O21   O     O_R   0.417890 0.499980 0.617100 -0.496838
O22   O     O_R   0.417870 0.499940 0.382950 -0.422301
O23   O     O_R   0.500010 0.678080 0.617100 -0.504535
O24   O     O_R   0.499990 0.678040 0.382960 -0.489600
S1    S     S_3+6 0.935078 0.215159 0.763747 0.111400
S2    S     S_3+6 0.571430 0.125364 0.270472 0.039412
S3    S     S_3+6 0.403385 0.362292 0.111460 0.046432
S4    S     S_3+6 0.941519 0.841261 0.332103 0.093624

loop_
_geom_bond_atom_site_label_1
_geom_bond_atom_site_label_2
_ccdc_geom_bond_type
C19   H18   S    
C16   O24   A    
O16   S4    D    
C12   S1    S    
C8    H5    S    
C27   O12   S    
H8    O10   S    
C7    C8    A    
C4    O21   A    
C1    C21   S    
C20   S2    S    
C12   C23   A    
Cu1   Cu2   S    
H11   N5    S    
C30   C35   A    
Cu2   O20   S    
C28   C29   A    
C26   N1    A    
O13   S3    D    
C29   C32   A    
C5    C6    A    
C10   C17   A    
Cu1   O2    S    
C2    O19   S    
H7    O7    S    
C34   C35   A    
C7    H4    S    
O8    S2    D    
C27   N1    A    
C17   N1    S    
C22   N3    D    
C8    C9    A    
H10   N5    S    
Cu2   O3    S    
C16   O23   A    
C24   N4    D    
C13   C14   A    
C34   H22   S    
C13   C25   S    
C25   O2    A    
H9    O14   S    
C36   N2    A    
Cu1   N3    S    
Cu2   N4    S    
C10   H6    S    
C9    N2    S    
C15   H16   S    
O7    S1    S    
C4    C6    S    
O6    S1    D    
C18   C19   D    
O17   S4    S    
Cu2   O22   S    
H13   N6    S    
C23   C31   A    
C21   H19   S    
C29   C30   A    
C3    C9    A    
C31   C32   A    
C33   C34   A    
C11   H1    S    
C18   H17   S    
O10   S2    S    
O9    S2    D    
C2    C33   A    
C12   C28   A    
C3    H2    S    
C26   C30   A    
C26   O4    S    
C22   C24   S    
C25   O3    A    
H14   N6    S    
C35   S4    S    
C1    O20   A    
C15   C17   A    
C5    H3    S    
C31   C36   A    
Cu1   O21   S    
C3    C5    A    
C22   H20   S    
C6    C7    A    
C4    O22   A    
Cu2   O24   S    
H21   N3    S    
Cu1   O23   S    
H15   O17   S    
C32   C33   A    
C23   N5    S    
C24   S3    S    
O15   S4    D    
C11   C13   A    
C14   H12   S    
C36   O18   S    
C16   C19   S    
Cu1   O1    S    
O11   S3    D    
C1    O1    A    
C18   C20   S    
C10   C11   A    
O5    S1    D    
C20   C21   D    
C27   C28   A    
C14   C15   A    
O14   S3    S    
C2    N2    A    
N4    N6    S    
