data_mof_unit_39590.cif
_audit_creation_date              2012-12-10T18:29:38-0500
_audit_creation_method            fapswitch 2.2
_symmetry_space_group_name_H-M    P1
_symmetry_Int_Tables_number       1
_space_group_crystal_system       triclinic
_cell_length_a                    11.500561
_cell_length_b                    15.008876
_cell_length_c                    15.169428
_cell_angle_alpha                 80.189658
_cell_angle_beta                  89.592258
_cell_angle_gamma                 104.252841
_cell_volume                      2497.39232184

loop_
_atom_site_label
_atom_site_type_symbol
_atom_type_description
_atom_site_fract_x
_atom_site_fract_y
_atom_site_fract_z
_atom_type_partial_charge
C1    C     C_R   0.475485 0.439816 0.662939 0.937602
C2    C     C_R   0.515133 0.559813 0.336948 0.977798
C3    C     C_R   0.424418 0.344620 0.945268 -0.185812
C4    C     C_R   0.519484 0.656249 0.055208 -0.178050
C5    C     C_R   0.452993 0.511018 0.953888 0.059296
C6    C     C_R   0.444271 0.489389 0.047325 0.071898
C7    C     C_R   0.435388 0.396101 0.089069 -0.306074
C8    C     C_R   0.499651 0.604770 0.911941 -0.298681
C9    C     C_R   0.432728 0.323941 0.039480 0.495468
C10   C     C_R   0.531025 0.678276 0.960476 0.492937
C11   C     C_R   0.723566 0.851627 0.594917 0.408468
C12   C     C_R   0.276598 0.146062 0.408561 0.410246
C13   C     C_R   0.678667 0.759833 0.581264 -0.246828
C14   C     C_R   0.319771 0.237960 0.422507 -0.242131
C15   C     C_R   0.494059 0.791163 0.535489 0.543664
C16   C     C_R   0.509940 0.211535 0.458968 0.557329
C17   C     C_R   0.544522 0.887701 0.527776 -0.149314
C18   C     C_R   0.463251 0.114912 0.465288 -0.159067
C19   C     C_R   0.655038 0.916102 0.567528 -0.036323
C20   C     C_R   0.351667 0.084894 0.427434 -0.044493
C21   C     C_R   0.486928 0.955885 0.485892 -0.018426
C22   C     C_R   0.525045 0.048217 0.504120 -0.032360
C23   C     C_R   0.717775 0.501038 0.499855 0.886040
C24   C     C_R   0.282276 0.499095 0.499872 0.877671
C25   C     C_R   0.618544 0.069740 0.564337 0.507639
C26   C     C_R   0.395917 0.935121 0.423831 0.516760
C27   C     C_R   0.690148 0.006070 0.586746 -0.326636
C28   C     C_R   0.321132 0.996723 0.403596 -0.283630
C29   C     C_1   0.838992 0.502566 0.499935 -0.156497
C30   C     C_1   0.161207 0.497841 0.499293 -0.187625
C31   C     C_1   0.941079 0.501463 0.499672 0.017723
C32   C     C_1   0.059176 0.499045 0.499299 0.000244
C33   C     C_R   0.440485 0.398875 0.757617 -0.359396
C34   C     C_R   0.510995 0.599683 0.242157 -0.327765
C35   C     C_R   0.416784 0.275967 0.889445 0.405135
C36   C     C_R   0.570264 0.722002 0.110721 0.412040
C37   C     C_R   0.431967 0.304406 0.795421 0.291396
C38   C     C_R   0.579679 0.689642 0.203004 0.278890
C39   C     C_R   0.411194 0.456649 0.811922 0.365949
C40   C     C_R   0.436211 0.545074 0.189495 0.350405
C41   C     C_R   0.427856 0.437782 0.904020 -0.147643
C42   C     C_R   0.463086 0.563073 0.096944 -0.142068
H1    H     H_    0.442049 0.381144 0.160298 0.196826
H2    H     H_    0.524887 0.620384 0.841447 0.196633
H3    H     H_    0.768270 0.022734 0.625687 0.173929
H4    H     H_    0.243281 0.979552 0.364451 0.176768
H5    H     H_    0.264252 0.286649 0.409809 0.186491
H6    H     H_    0.733543 0.710616 0.593389 0.175771
N1    N     N_R   0.566020 0.731700 0.552730 -0.144308
N2    N     N_R   0.433980 0.268300 0.447270 -0.151894
O1    O     O_R   0.466720 0.383110 0.605620 -0.601388
O2    O     O_R   0.533280 0.616890 0.394380 -0.605765
O3    O     O_R   0.509090 0.531900 0.639510 -0.553060
O4    O     O_R   0.490910 0.468100 0.360490 -0.548137
O5    O     O_R   0.644370 0.425610 0.483050 -0.545894
O6    O     O_R   0.355630 0.574390 0.516950 -0.540420
O7    O     O_R   0.686740 0.574390 0.516930 -0.635833
O8    O     O_R   0.313260 0.425610 0.483070 -0.646145
Zn1   Zn    Zn3+2 0.471710 0.400660 0.477370 0.992115
Zn2   Zn    Zn3+2 0.528290 0.599340 0.522630 0.991921
O9    O     O_3   0.435178 0.232950 0.079171 -0.584254
C43   C     C_3   0.479859 0.224625 0.166066 0.116119
H7    H     H_    0.411823 0.230643 0.215745 0.161082
H8    H     H_    0.566138 0.277778 0.168177 0.151112
C44   C     C_3   0.503833 0.128637 0.192773 -0.794113
H9    H     H_    0.569553 0.118599 0.143844 0.256919
H10   H     H_    0.541293 0.122502 0.260199 0.224277
H11   H     H_    0.419038 0.073306 0.195139 0.242484
O10   O     O_3   0.585289 0.769143 0.917218 -0.575152
C45   C     C_3   0.525633 0.795484 0.839079 0.074106
H12   H     H_    0.426009 0.770323 0.849580 0.137651
H13   H     H_    0.556046 0.768061 0.781845 0.149796
C46   C     C_3   0.557048 0.901420 0.812646 -0.808678
H14   H     H_    0.656094 0.929809 0.806112 0.258748
H15   H     H_    0.518777 0.921228 0.747349 0.224240
H16   H     H_    0.518328 0.932614 0.863317 0.247791
O11   O     O_3   0.626161 0.147242 0.606268 -0.585812
C47   C     C_3   0.736267 0.176961 0.646532 0.148269
H17   H     H_    0.813827 0.186705 0.598323 0.142498
H18   H     H_    0.742367 0.126215 0.707931 0.123091
C48   C     C_3   0.742566 0.270316 0.675016 -0.726685
H19   H     H_    0.674133 0.261658 0.729743 0.280780
H20   H     H_    0.832765 0.297726 0.699683 0.168410
H21   H     H_    0.726597 0.321410 0.617488 0.280290
O12   O     O_3   0.392753 0.859607 0.379952 -0.630582
C49   C     C_3   0.285779 0.830129 0.335957 0.136552
H22   H     H_    0.281830 0.882363 0.275194 0.122584
H23   H     H_    0.205358 0.818030 0.381998 0.178644
C50   C     C_3   0.284107 0.738114 0.305883 -0.834108
H24   H     H_    0.294575 0.685148 0.363913 0.290288
H25   H     H_    0.197391 0.711953 0.275734 0.204723
H26   H     H_    0.358035 0.748161 0.254973 0.205456
O13   O     O_3   0.345900 0.469211 0.230179 -0.596167
C51   C     C_3   0.233326 0.486259 0.208613 0.091891
H27   H     H_    0.219369 0.488567 0.135786 0.146232
H28   H     H_    0.225249 0.553134 0.227588 0.132391
C52   C     C_3   0.134833 0.407399 0.260516 -0.800606
H29   H     H_    0.144813 0.404533 0.333615 0.251922
H30   H     H_    0.045460 0.419323 0.243616 0.217746
H31   H     H_    0.140375 0.339558 0.243080 0.259872
O14   O     O_3   0.367374 0.531872 0.773604 -0.583093
C53   C     C_3   0.244572 0.513462 0.800312 0.068935
H32   H     H_    0.233703 0.515920 0.872752 0.144430
H33   H     H_    0.193378 0.443948 0.787160 0.117312
C54   C     C_3   0.190665 0.587519 0.747287 -0.736951
H34   H     H_    0.193752 0.582979 0.675086 0.288413
H35   H     H_    0.095545 0.576128 0.770626 0.186086
H36   H     H_    0.241620 0.658144 0.756691 0.263524
O15   O     O_3   0.672985 0.735885 0.248773 -0.572690
C55   C     C_3   0.641440 0.809280 0.282321 0.158285
H37   H     H_    0.553118 0.785301 0.320266 0.191915
H38   H     H_    0.640022 0.867970 0.227658 0.165572
C56   C     C_3   0.736476 0.846748 0.345047 -0.794600
H39   H     H_    0.824729 0.876202 0.307595 0.253040
H40   H     H_    0.711363 0.902727 0.374374 0.210407
H41   H     H_    0.744813 0.789577 0.399609 0.268769
O16   O     O_3   0.444613 0.240203 0.742581 -0.552846
C57   C     C_3   0.332150 0.199449 0.709948 0.194180
H42   H     H_    0.327371 0.231644 0.639096 0.165732
H43   H     H_    0.252767 0.207716 0.747352 0.057282
C58   C     C_3   0.320699 0.095819 0.712320 -0.814277
H44   H     H_    0.327564 0.060289 0.781727 0.261948
H45   H     H_    0.232548 0.063252 0.687436 0.191028
H46   H     H_    0.393131 0.086193 0.668997 0.280147
O17   O     O_3   0.409630 0.183349 0.924983 -0.533640
C59   C     C_3   0.288167 0.136699 0.949620 0.183798
H47   H     H_    0.232670 0.134847 0.890203 0.097768
H48   H     H_    0.248376 0.170727 0.997723 0.150071
C60   C     C_3   0.280741 0.036398 0.993828 -0.820374
H49   H     H_    0.330765 0.035362 0.056071 0.265308
H50   H     H_    0.185422 0.998373 0.011098 0.205363
H51   H     H_    0.319858 0.000248 0.947622 0.237588
O18   O     O_3   0.627519 0.813309 0.074473 -0.533917
C61   C     C_3   0.541146 0.866720 0.066668 0.115199
H52   H     H_    0.489392 0.858508 0.131152 0.081733
H53   H     H_    0.475635 0.845743 0.015853 0.162522
C62   C     C_3   0.605087 0.969465 0.038229 -0.791333
H54   H     H_    0.661641 0.979804 0.975916 0.275491
H55   H     H_    0.538150 0.011687 0.025860 0.228612
H56   H     H_    0.663533 0.993962 0.091700 0.236828
Cl1   Cl    Cl    0.664847 0.260214 0.432762 -0.626931
Cl2   Cl    Cl    0.337217 0.746357 0.552353 -0.629939
O19   O     O_3   0.838649 0.882426 0.623653 -0.615593
C63   C     C_3   0.855600 0.826136 0.704785 0.094670
H57   H     H_    0.876759 0.761182 0.691297 0.147532
H58   H     H_    0.775385 0.807783 0.752226 0.156669
C64   C     C_3   0.961487 0.879720 0.749845 -0.802426
H59   H     H_    0.942851 0.944947 0.764808 0.243003
H60   H     H_    0.976613 0.836141 0.813481 0.215598
H61   H     H_    0.043989 0.897926 0.705175 0.258754
O20   O     O_3   0.165383 0.116107 0.373413 -0.612677
C65   C     C_3   0.073002 0.130776 0.426961 0.085784
H62   H     H_    0.066803 0.204406 0.409438 0.147487
H63   H     H_    0.087238 0.113962 0.500029 0.136376
C66   C     C_3   0.953531 0.067719 0.408630 -0.754254
H64   H     H_    0.954927 0.993258 0.428454 0.265491
H65   H     H_    0.879737 0.081210 0.447757 0.222228
H66   H     H_    0.936250 0.081783 0.336274 0.251466

loop_
_geom_bond_atom_site_label_1
_geom_bond_atom_site_label_2
_ccdc_geom_bond_type
C21   C26   A    
C4    C36   A    
O13   C51   S    
O5    Zn1   S    
C66   H65   S    
C11   C13   A    
C46   H14   S    
C64   H59   S    
C40   O13   S    
C36   O18   S    
C48   H21   S    
C61   C62   S    
C52   H29   S    
C1    C33   S    
C39   C41   A    
O11   C47   S    
C54   H35   S    
C11   C19   A    
C33   C39   A    
N1    Zn2   S    
C9    O9    S    
N2    Zn1   S    
C23   C29   S    
C64   H60   S    
C16   N2    A    
C56   H39   S    
O10   C45   S    
C26   O12   S    
C5    C6    A    
C49   H23   S    
O19   C63   S    
C53   C54   S    
C15   C17   A    
C35   O17   S    
C1    O3    A    
C55   H37   S    
C25   O11   S    
C58   H46   S    
C43   H8    S    
O2    Zn2   S    
C52   H30   S    
C57   H42   S    
C44   H10   S    
C22   C25   A    
O20   C65   S    
C45   H12   S    
C7    H1    S    
C50   H25   S    
C19   C27   A    
C18   C20   A    
C56   H41   S    
C27   H3    S    
C40   C42   A    
O17   C59   S    
C24   O8    A    
C34   C38   A    
C21   C22   A    
C66   H66   S    
C46   H15   S    
C12   O20   S    
C51   H27   S    
C63   C64   S    
C48   H20   S    
O3    Zn2   S    
C39   O14   S    
C6    C7    A    
C57   H43   S    
O4    Zn1   S    
C54   H36   S    
C53   H32   S    
O14   C53   S    
C64   H61   S    
C63   H58   S    
C2    O4    A    
C49   H22   S    
O7    Zn2   S    
C61   H53   S    
C20   C28   A    
C59   C60   S    
O8    Zn1   S    
O12   C49   S    
C33   C37   A    
O6    Zn2   S    
C38   O15   S    
C57   C58   S    
C53   H33   S    
C43   H7    S    
C3    C9    A    
C5    C8    A    
C15   Cl2   S    
C62   H55   S    
C31   C32   S    
C65   C66   S    
C3    C35   A    
C44   H11   S    
C28   H4    S    
C12   C20   A    
C45   C46   S    
C50   H26   S    
C51   H28   S    
C1    O1    A    
C55   C56   S    
C58   H44   S    
C61   H52   S    
C2    O2    A    
C13   N1    A    
C16   C18   A    
C65   H63   S    
O18   C61   S    
C46   H16   S    
C34   C40   A    
C24   C30   S    
O1    Zn1   S    
C4    C10   A    
C52   H31   S    
C60   H49   S    
C54   H34   S    
C23   O7    A    
C5    C41   A    
C3    C41   A    
C59   H48   S    
C43   C44   S    
C35   C37   A    
C18   C22   A    
C8    C10   A    
C8    H2    S    
C12   C14   A    
C63   H57   S    
C49   C50   S    
C13   H6    S    
C23   O5    A    
C14   H5    S    
C24   O6    A    
C62   H54   S    
C26   C28   A    
C51   C52   S    
C60   H51   S    
C36   C38   A    
C16   Cl1   S    
C29   C31   T    
O16   C57   S    
C30   C32   T    
C47   H17   S    
C47   C48   S    
C2    C34   S    
C14   N2    A    
C4    C42   A    
C59   H47   S    
C62   H56   S    
C17   C19   A    
C47   H18   S    
C15   N1    A    
O9    C43   S    
C55   H38   S    
C58   H45   S    
C10   O10   S    
C7    C9    A    
C37   O16   S    
C65   H62   S    
C48   H19   S    
C44   H9    S    
C6    C42   A    
C66   H64   S    
C45   H13   S    
C60   H50   S    
C50   H24   S    
O15   C55   S    
C11   O19   S    
C56   H40   S    
C25   C27   A    
C17   C21   A    
