data_mof_unit_44742.cif
_audit_creation_date              2012-12-10T20:26:28-0500
_audit_creation_method            fapswitch 2.2
_symmetry_space_group_name_H-M    P1
_symmetry_Int_Tables_number       1
_space_group_crystal_system       triclinic
_cell_length_a                    10.685659
_cell_length_b                    10.675517
_cell_length_c                    9.884477
_cell_angle_alpha                 89.513526
_cell_angle_beta                  91.164714
_cell_angle_gamma                 90.452292
_cell_volume                      1127.26384318

loop_
_atom_site_label
_atom_site_type_symbol
_atom_type_description
_atom_site_fract_x
_atom_site_fract_y
_atom_site_fract_z
_atom_type_partial_charge
C1    C     C_R   0.504771 0.259947 0.500468 0.864351
C2    C     C_R   0.527470 0.128811 0.500877 -0.142923
C3    C     C_R   0.544152 0.066147 0.378249 -0.211444
C4    C     C_R   0.544255 0.936649 0.377720 -0.207098
C5    C     C_R   0.527516 0.871373 0.499737 -0.083378
C6    C     C_R   0.536284 0.934869 0.622116 0.024100
C7    C     C_3   0.457359 0.923724 0.745044 -0.514169
C8    C     C_3   0.456475 0.065889 0.746097 0.395468
C9    C     C_R   0.444165 0.404663 0.069732 0.074133
C10   C     C_R   0.567822 0.587419 0.073998 0.568040
C11   C     C_R   0.564763 0.588201 0.928209 -0.282090
C12   C     C_R   0.262468 0.500147 0.498769 0.921382
C13   C     C_R   0.446432 0.403535 0.927969 0.246157
C14   C     C_3   0.314629 0.359052 0.914170 -0.441592
C15   C     C_3   0.309490 0.361225 0.067541 -0.126969
C16   C     C_R   0.504839 0.740032 0.499631 0.881884
C17   C     C_R   0.737406 0.507109 0.501326 0.928144
C18   C     C_2   0.931733 0.550967 0.392774 -0.148802
C19   C     C_2   0.868522 0.530939 0.505969 -0.341398
C20   C     C_2   0.066707 0.558421 0.398492 -0.190810
C21   C     C_2   0.130041 0.497624 0.496095 -0.331694
C22   C     C_R   0.537388 0.063031 0.622783 0.016592
H1    H     H_    0.885158 0.558111 0.294356 0.182217
H2    H     H_    0.611864 0.660833 0.871542 0.164417
H3    H     H_    0.253129 0.428686 0.862068 0.211966
H4    H     H_    0.307041 0.263136 0.872839 0.193518
H5    H     H_    0.296184 0.266695 0.113831 0.170522
H6    H     H_    0.912823 0.535612 0.605653 0.152355
H7    H     H_    0.114333 0.609123 0.318596 0.159384
H8    H     H_    0.085678 0.443238 0.575212 0.142058
H9    H     H_    0.547226 0.115803 0.282296 0.180703
H10   H     H_    0.547277 0.888984 0.281604 0.211954
H11   H     H_    0.363672 0.881695 0.722921 0.170248
H12   H     H_    0.509039 0.880540 0.832079 0.215504
H13   H     H_    0.362052 0.104212 0.722400 0.070130
N1    N     N_R   0.499170 0.499140 0.142800 -0.161924
N2    N     N_R   0.499170 0.499180 0.857150 -0.130928
O1    O     O_R   0.500020 0.316790 0.614690 -0.610215
O2    O     O_R   0.500000 0.316760 0.385350 -0.622322
O3    O     O_R   0.319080 0.500020 0.614640 -0.621435
O4    O     O_R   0.319070 0.499980 0.385300 -0.629188
O5    O     O_R   0.500000 0.683240 0.614650 -0.620981
O6    O     O_R   0.499980 0.683210 0.385310 -0.576984
O7    O     O_R   0.680930 0.500020 0.614700 -0.628950
O8    O     O_R   0.680920 0.499980 0.385360 -0.583695
Zn1   Zn    Zn3+2 0.500010 0.500020 0.653130 0.941939
Zn2   Zn    Zn3+2 0.499990 0.499980 0.346870 0.974784
O9    O     O_3   0.507912 0.116685 0.868491 -0.601997
C23   C     C_3   0.640013 0.124322 0.872758 -0.276757
H14   H     H_    0.674053 0.195612 0.799324 0.178750
H15   H     H_    0.683353 0.031761 0.854884 0.152365
H16   H     H_    0.670376 0.155136 0.975252 0.171037
O10   O     O_3   0.629440 0.678958 0.149932 -0.577093
C24   C     C_3   0.740813 0.721480 0.089869 -0.397538
H17   H     H_    0.799889 0.767313 0.168963 0.199382
H18   H     H_    0.719892 0.793495 0.011012 0.165030
H19   H     H_    0.796287 0.643256 0.048283 0.156845
N3    N     N_3   0.218420 0.453677 0.110923 -0.451107
H20   H     H_    0.176322 0.419175 0.198133 0.213593
H21   H     H_    0.261169 0.539739 0.132830 0.214530

loop_
_geom_bond_atom_site_label_1
_geom_bond_atom_site_label_2
_ccdc_geom_bond_type
C2    C22   A    
C9    N1    A    
C8    C22   S    
C8    O9    S    
C12   O3    A    
C6    C7    S    
C13   C14   S    
C21   H8    S    
C15   H5    S    
N2    Zn1   S    
C23   H16   S    
C20   C21   D    
C13   N2    A    
C2    C3    A    
O4    Zn2   S    
C17   O7    A    
C7    C8    S    
C4    H10   S    
O10   C24   S    
C14   H4    S    
C3    H9    S    
C19   H6    S    
C7    H11   S    
C16   O6    A    
C12   O4    A    
C1    O1    A    
O9    C23   S    
C17   C19   S    
O7    Zn1   S    
C1    C2    S    
C18   C20   S    
C20   H7    S    
O8    Zn2   S    
C14   H3    S    
C9    C15   S    
C5    C6    A    
C15   N3    S    
C24   H18   S    
O1    Zn1   S    
C10   C11   A    
O3    Zn1   S    
N3    H21   S    
C18   H1    S    
C6    C22   A    
C16   O5    A    
C11   H2    S    
C7    H12   S    
N1    Zn2   S    
O2    Zn2   S    
C23   H14   S    
O5    Zn1   S    
C11   N2    A    
C10   O10   S    
C1    O2    A    
C24   H17   S    
C18   C19   D    
C5    C16   S    
C9    C13   A    
C23   H15   S    
N3    H20   S    
C14   C15   S    
O6    Zn2   S    
C12   C21   S    
C24   H19   S    
C3    C4    A    
C17   O8    A    
C4    C5    A    
C10   N1    A    
C8    H13   S    
