data_mof_unit_42668.cif
_audit_creation_date              2012-12-10T17:39:24-0500
_audit_creation_method            fapswitch 2.2
_symmetry_space_group_name_H-M    P1
_symmetry_Int_Tables_number       1
_space_group_crystal_system       triclinic
_cell_length_a                    12.311002
_cell_length_b                    13.080119
_cell_length_c                    27.828927
_cell_angle_alpha                 77.724848
_cell_angle_beta                  100.911813
_cell_angle_gamma                 116.237985
_cell_volume                      3904.36391853

loop_
_atom_site_label
_atom_site_type_symbol
_atom_type_description
_atom_site_fract_x
_atom_site_fract_y
_atom_site_fract_z
_atom_type_partial_charge
C1    C     C_R   0.854978 0.285526 0.504138 0.773470
C2    C     C_R   0.074992 0.456260 0.731054 -0.105089
C3    C     C_R   0.999484 0.493025 0.747412 0.335469
C4    C     C_R   0.002291 0.487328 0.899819 -0.045885
C5    C     C_R   0.899876 0.410987 0.873223 -0.021247
C6    C     C_R   0.798379 0.334156 0.897492 -0.149159
C7    C     C_R   0.104169 0.564908 0.875045 -0.022020
C8    C     C_R   0.997580 0.499118 0.645613 -0.039935
C9    C     C_R   0.001525 0.498271 0.354968 -0.037122
C10   C     C_R   0.904002 0.400633 0.027556 0.018755
C11   C     C_R   0.101658 0.570601 0.027200 0.052825
C12   C     C_R   0.999281 0.500167 0.592465 0.817604
C13   C     C_R   0.002435 0.485564 0.052674 0.066631
C14   C     C_R   0.812018 0.313234 0.055200 -0.261455
C15   C     C_R   0.811915 0.311958 0.105463 0.179698
C16   C     C_R   0.906081 0.399560 0.130225 -0.024897
C17   C     C_R   0.001703 0.485830 0.103739 -0.093013
C18   C     C_R   0.096924 0.572942 0.128356 -0.007438
C19   C     C_R   0.094987 0.573742 0.178435 0.529083
C20   C     C_R   0.908929 0.403799 0.180840 0.552964
C21   C     C_R   0.913519 0.516196 0.269523 -0.103760
C22   C     C_R   0.913128 0.518738 0.319314 -0.221655
C23   C     C_R   0.144780 0.713883 0.492869 0.804104
C24   C     C_R   0.090395 0.475535 0.339857 -0.218831
C25   C     C_R   0.090489 0.472943 0.290052 -0.104401
C26   C     C_R   0.002032 0.493130 0.254728 0.353095
C27   C     C_R   0.900902 0.404882 0.975844 0.054880
C28   C     C_R   0.002692 0.486343 0.951034 0.068017
C29   C     C_R   0.104729 0.567088 0.976800 0.040273
C30   C     C_R   0.798478 0.331195 0.947683 -0.205461
C31   C     C_R   0.206258 0.640455 0.901224 -0.146096
C32   C     C_R   0.194102 0.657526 0.053030 -0.207132
C33   C     C_R   0.191610 0.658388 0.102526 -0.144676
C34   C     C_R   0.000625 0.499823 0.407637 0.791136
C35   C     C_R   0.206902 0.641533 0.951070 -0.206465
C36   C     C_R   0.273746 0.026630 0.437102 -0.176270
C37   C     C_R   0.226870 0.836104 0.483311 -0.051191
C38   C     C_R   0.814553 0.075063 0.530341 -0.019219
C39   C     C_R   0.732620 0.960014 0.537972 -0.176349
C40   C     C_R   0.609571 0.927301 0.523381 -0.198141
C41   C     C_R   0.564462 0.008684 0.498064 0.083700
C42   C     C_R   0.648932 0.123879 0.484606 0.073833
C43   C     C_R   0.438023 0.977854 0.484115 0.078763
C44   C     C_R   0.398369 0.057588 0.452130 0.161588
C45   C     C_R   0.900979 0.413992 0.822589 0.536633
C46   C     C_R   0.483724 0.165732 0.434242 -0.234028
C47   C     C_R   0.606973 0.197764 0.449530 -0.180383
C48   C     C_R   0.349541 0.869535 0.501093 -0.244274
C49   C     C_R   0.188337 0.915731 0.452135 -0.182243
C50   C     C_R   0.773257 0.160421 0.505333 -0.159414
C51   C     C_R   0.352098 0.336320 0.581936 -0.276911
C52   C     C_R   0.758819 0.644823 0.432679 0.072120
C53   C     C_R   0.661575 0.675731 0.417751 -0.247334
C54   C     C_R   0.558114 0.620700 0.442890 -0.192302
C55   C     C_R   0.550813 0.533720 0.483644 -0.009874
C56   C     C_R   0.101604 0.564993 0.824396 0.536286
C57   C     C_R   0.653169 0.505277 0.497712 0.291772
C58   C     C_R   0.446975 0.474980 0.511288 -0.036467
C59   C     C_R   0.449445 0.391795 0.552960 0.162776
C60   C     C_R   0.549367 0.364890 0.565812 -0.283741
C61   C     C_R   0.648398 0.419730 0.538663 -0.159242
C62   C     C_R   0.340157 0.495000 0.499793 0.014501
C63   C     C_R   0.251608 0.362223 0.569403 0.105821
C64   C     C_R   0.923035 0.533073 0.713109 -0.159569
C65   C     C_R   0.921346 0.536745 0.662305 0.117689
C66   C     C_R   0.074111 0.459217 0.680685 -0.269503
Cu1   Cu    Cu3+1 0.098270 0.475420 0.511360 0.946806
Cu2   Cu    Cu3+1 0.901730 0.524580 0.488640 0.936400
H1    H     H_    0.133291 0.429506 0.669277 0.167935
H2    H     H_    0.865244 0.562207 0.725980 0.142144
H3    H     H_    0.286630 0.699600 0.883241 0.186636
H4    H     H_    0.268797 0.728393 0.035803 0.138005
H5    H     H_    0.159670 0.459456 0.366459 0.157541
H6    H     H_    0.264781 0.727111 0.120495 0.184438
H7    H     H_    0.159014 0.454814 0.278861 0.140780
H8    H     H_    0.290417 0.700588 0.968565 0.139839
H9    H     H_    0.093325 0.891129 0.438011 0.150303
H10   H     H_    0.455246 0.225717 0.407973 0.148215
H11   H     H_    0.242861 0.086947 0.412427 0.138006
H12   H     H_    0.134194 0.424966 0.757489 0.148927
H13   H     H_    0.373570 0.808329 0.528005 0.151172
H14   H     H_    0.552926 0.836306 0.530608 0.139258
H15   H     H_    0.763894 0.894435 0.556398 0.148562
H16   H     H_    0.668525 0.279411 0.431599 0.179390
H17   H     H_    0.177441 0.321808 0.592279 0.138256
H18   H     H_    0.551392 0.300713 0.597449 0.162424
H19   H     H_    0.354170 0.273983 0.614318 0.149235
H20   H     H_    0.329666 0.555548 0.468428 0.124152
H21   H     H_    0.838709 0.687991 0.412930 0.125584
H22   H     H_    0.717652 0.275843 0.877699 0.186164
H23   H     H_    0.485896 0.648533 0.429920 0.140200
H24   H     H_    0.666455 0.742668 0.386607 0.153868
H25   H     H_    0.719890 0.392663 0.551676 0.209572
H26   H     H_    0.843593 0.536544 0.329832 0.157749
H27   H     H_    0.845123 0.532262 0.242356 0.141703
H28   H     H_    0.739122 0.241922 0.039174 0.137881
H29   H     H_    0.715025 0.271742 0.962947 0.139916
N1    N     N_R   0.000846 0.490390 0.799288 -0.461977
N2    N     N_R   0.002021 0.490126 0.203484 -0.476405
N3    N     N_R   0.246290 0.438210 0.528570 -0.184259
N4    N     N_R   0.754320 0.561170 0.471730 -0.205887
O1    O     O_R   0.972510 0.318140 0.514280 -0.562946
O2    O     O_2   0.820241 0.322471 0.207534 -0.499631
O3    O     O_2   0.198455 0.639823 0.800279 -0.539532
O4    O     O_2   0.184896 0.658100 0.201924 -0.542849
O5    O     O_R   0.806530 0.359640 0.495100 -0.607525
O6    O     O_R   0.082990 0.479270 0.579320 -0.595875
O7    O     O_R   0.917010 0.520770 0.560140 -0.561356
O8    O     O_R   0.193470 0.640360 0.504900 -0.586348
O9    O     O_R   0.027490 0.681860 0.485720 -0.582773
O10   O     O_R   0.082990 0.479230 0.439860 -0.585514
O11   O     O_R   0.917010 0.520730 0.420680 -0.597636
O12   O     O_2   0.803401 0.340723 0.796874 -0.544128
C67   C     C_1   0.940193 0.099590 0.548355 0.267982
N5    N     N_1   0.040380 0.116995 0.562815 -0.301837
N6    N     N_3   0.714871 0.220279 0.130844 -0.507363
H30   H     H_    0.714814 0.142095 0.127536 0.217478
H31   H     H_    0.632377 0.221310 0.113173 0.218110
N7    N     N_3   0.843379 0.580106 0.628169 -0.565886
H32   H     H_    0.867150 0.664323 0.633723 0.219851
H33   H     H_    0.753824 0.529914 0.636559 0.223953

loop_
_geom_bond_atom_site_label_1
_geom_bond_atom_site_label_2
_ccdc_geom_bond_type
C10   C27   A    
C58   C62   A    
C21   C26   A    
C8    C66   A    
C34   O11   A    
C41   C42   A    
C56   N1    A    
C67   N5    T    
C32   H4    S    
C20   O2    S    
C53   C54   A    
N6    H30   S    
C30   H29   S    
C28   C29   A    
C45   N1    A    
C5    C6    A    
C38   C67   S    
C61   H25   S    
C9    C22   A    
C66   H1    S    
C15   C16   A    
C48   H13   S    
C18   C19   A    
Cu2   O11   S    
C52   N4    A    
C46   C47   A    
Cu1   O8    S    
C49   H9    S    
C16   C17   A    
C64   H2    S    
C43   C48   A    
C16   C20   A    
C26   N2    S    
C31   H3    S    
C59   C60   A    
C21   C22   A    
C63   H17   S    
C27   C30   A    
C34   O10   A    
C41   C43   A    
C52   H21   S    
Cu2   O5    S    
C7    C56   A    
C4    C7    A    
C14   H28   S    
C4    C28   A    
C44   C46   A    
N7    H33   S    
C23   O8    A    
C35   H8    S    
C7    C31   A    
Cu1   Cu2   S    
C40   H14   S    
C51   C63   A    
C24   C25   A    
C56   O3    S    
C10   C14   A    
C51   H19   S    
C39   C40   A    
C46   H10   S    
C60   H18   S    
C21   H27   S    
C58   C59   A    
C6    H22   S    
C62   H20   S    
C36   H11   S    
C22   H26   S    
C60   C61   A    
C25   H7    S    
C43   C44   A    
C63   N3    A    
C37   C49   A    
C8    C12   S    
C53   H24   S    
C17   C18   A    
C65   N7    S    
Cu2   O9    S    
C47   H16   S    
Cu2   N4    S    
C37   C48   A    
Cu1   N3    S    
C42   C50   A    
C62   N3    A    
C19   O4    S    
Cu1   O10   S    
C40   C41   A    
C6    C30   A    
C11   C32   A    
C55   C57   A    
C9    C34   S    
C1    O5    A    
C31   C35   A    
C36   C44   A    
C51   C59   A    
C52   C53   A    
C12   O7    A    
C1    C50   S    
C23   O9    A    
C54   C55   A    
C19   N2    A    
C15   N6    S    
C4    C5    A    
C2    C66   A    
C10   C13   A    
C12   O6    A    
N7    H32   S    
C9    C24   A    
C57   C61   A    
C38   C50   A    
C57   N4    A    
C29   C35   A    
C13   C17   A    
C64   C65   A    
C2    C3    A    
C25   C26   A    
C39   H15   S    
C54   H23   S    
C23   C37   S    
C32   C33   A    
C11   C13   A    
C3    N1    S    
Cu1   O6    S    
C38   C39   A    
C20   N2    A    
C5    C45   A    
N6    H31   S    
C42   C47   A    
C3    C64   A    
C24   H5    S    
C18   C33   A    
C2    H12   S    
C45   O12   S    
C33   H6    S    
C8    C65   A    
C11   C29   A    
C55   C58   A    
C27   C28   A    
C14   C15   A    
Cu2   O7    S    
C1    O1    A    
C36   C49   A    
Cu1   O1    S    
