data_mof_unit_40330.cif
_audit_creation_date              2012-12-11T16:24:14-0500
_audit_creation_method            fapswitch 2.2
_symmetry_space_group_name_H-M    P1
_symmetry_Int_Tables_number       1
_space_group_crystal_system       triclinic
_cell_length_a                    14.738739
_cell_length_b                    14.75089
_cell_length_c                    33.295806
_cell_angle_alpha                 96.019121
_cell_angle_beta                  96.173884
_cell_angle_gamma                 61.239718
_cell_volume                      6297.31458317

loop_
_atom_site_label
_atom_site_type_symbol
_atom_type_description
_atom_site_fract_x
_atom_site_fract_y
_atom_site_fract_z
_atom_type_partial_charge
C1    C     C_R   0.391273 0.698947 0.445886 0.545285
C2    C     C_R   0.331626 0.349212 0.308477 0.041623
C3    C     C_R   0.413195 0.266266 0.328140 -0.106473
C4    C     C_R   0.432648 0.274929 0.369907 -0.117196
C5    C     C_R   0.394710 0.253229 0.165658 -0.107018
C6    C     C_R   0.385301 0.234422 0.123901 -0.122823
C7    C     C_R   0.210216 0.378267 0.121703 -0.124524
C8    C     C_R   0.219835 0.396779 0.163506 -0.105117
C9    C     C_R   0.310900 0.332270 0.185585 0.043410
C10   C     C_1   0.315788 0.341266 0.228872 -0.012241
C11   C     C_1   0.321369 0.345633 0.265201 -0.013295
C12   C     C_R   0.405980 0.386488 0.433935 0.544641
C13   C     C_R   0.291542 0.294403 0.101724 0.019306
C14   C     C_R   0.752204 0.376575 0.408693 0.024546
C15   C     C_R   0.766914 0.449005 0.389810 -0.136130
C16   C     C_R   0.788096 0.434066 0.349028 0.095866
C17   C     C_R   0.795732 0.344387 0.326734 0.041153
C18   C     C_R   0.793069 0.266462 0.346478 -0.128167
C19   C     C_R   0.771509 0.281399 0.387416 0.086356
C20   C     C_R   0.810488 0.319774 0.201178 0.331612
C21   C     C_R   0.799901 0.334520 0.282551 0.354768
C22   C     C_R   0.814656 0.399250 0.137543 0.093218
C23   C     C_R   0.700515 0.410148 0.447286 0.557866
C24   C     C_R   0.852466 0.383121 0.099344 -0.074340
C25   C     C_R   0.906842 0.200016 0.098910 -0.144490
C26   C     C_R   0.869532 0.214838 0.137012 -0.140632
C27   C     C_R   0.827412 0.313098 0.157720 0.042436
C28   C     C_R   0.902986 0.283268 0.080681 -0.007990
C29   C     C_R   0.373304 0.748750 0.407679 0.022181
C30   C     C_R   0.285936 0.763924 0.381872 -0.128849
C31   C     C_R   0.281703 0.782961 0.341542 -0.118413
C32   C     C_R   0.363717 0.789069 0.326500 0.041132
C33   C     C_R   0.446308 0.784192 0.353041 -0.112931
C34   C     C_R   0.393338 0.701619 0.561172 0.543076
C35   C     C_R   0.451420 0.763517 0.393424 -0.129400
C36   C     C_R   0.361509 0.803840 0.201886 0.399317
C37   C     C_R   0.365466 0.792938 0.282815 0.338133
C38   C     C_R   0.250534 0.842793 0.137170 0.058163
C39   C     C_R   0.228367 0.878728 0.098461 -0.165178
C40   C     C_R   0.397018 0.870811 0.099666 0.087891
C41   C     C_R   0.421045 0.832658 0.138820 0.074365
C42   C     C_R   0.345717 0.823374 0.158388 0.092322
C43   C     C_R   0.297892 0.898594 0.080269 0.022962
C44   C     C_R   0.368990 0.366712 0.583845 -0.019076
C45   C     C_R   0.407150 0.388635 0.548902 0.546078
C46   C     C_R   0.273617 0.439297 0.598932 -0.119924
C47   C     C_R   0.246076 0.428193 0.636468 0.074771
C48   C     C_R   0.316190 0.343685 0.659519 0.098740
C49   C     C_R   0.408574 0.266483 0.642747 0.070862
C50   C     C_R   0.433505 0.278292 0.605042 -0.137489
C51   C     C_R   0.290170 0.337251 0.782837 0.333742
C52   C     C_R   0.299005 0.341792 0.702263 0.366851
C53   C     C_R   0.205840 0.403647 0.849129 0.105520
C54   C     C_R   0.204395 0.386159 0.889674 -0.111853
C55   C     C_R   0.373049 0.234006 0.885981 -0.137571
C56   C     C_R   0.702252 0.413115 0.562499 0.561148
C57   C     C_R   0.375070 0.250443 0.845858 -0.138969
C58   C     C_R   0.290515 0.332533 0.826690 0.068827
C59   C     C_R   0.285580 0.298683 0.907657 -0.000292
C60   C     C_R   0.757593 0.378141 0.602325 0.029856
C61   C     C_R   0.807922 0.429154 0.625526 0.135573
C62   C     C_R   0.839997 0.407555 0.666451 0.112102
C63   C     C_R   0.822341 0.334708 0.683766 0.024490
C64   C     C_R   0.779537 0.279434 0.659988 -0.143172
C65   C     C_R   0.747929 0.300454 0.619663 -0.171494
C66   C     C_R   0.912437 0.202907 0.820904 0.112605
C67   C     C_R   0.370761 0.367079 0.392344 0.019808
C68   C     C_R   0.934306 0.194717 0.862797 -0.140875
C69   C     C_R   0.863143 0.381675 0.872927 0.085931
C70   C     C_R   0.840424 0.389762 0.831105 -0.138751
C71   C     C_R   0.867645 0.301019 0.805169 0.050247
C72   C     C_1   0.852822 0.311514 0.762290 0.005246
C73   C     C_1   0.840498 0.321110 0.726440 -0.019956
C74   C     C_R   0.914008 0.282895 0.888967 0.037295
C75   C     C_R   0.375414 0.756785 0.601549 0.018509
C76   C     C_R   0.279474 0.793183 0.618386 -0.120831
C77   C     C_R   0.268908 0.824762 0.659368 -0.103654
C78   C     C_R   0.284551 0.447268 0.372612 -0.127299
C79   C     C_R   0.353795 0.820679 0.683900 0.038992
C80   C     C_R   0.447674 0.790789 0.666977 -0.107690
C81   C     C_R   0.458438 0.759346 0.625932 -0.127453
C82   C     C_R   0.393532 0.892013 0.831836 0.087629
C83   C     C_R   0.374292 0.916921 0.872968 -0.119590
C84   C     C_R   0.226219 0.885621 0.862223 -0.122350
C85   C     C_R   0.244101 0.860693 0.820990 0.085590
C86   C     C_R   0.326502 0.866487 0.805713 0.097003
C87   C     C_1   0.338913 0.851003 0.762837 0.044128
C88   C     C_1   0.346620 0.838438 0.726859 -0.002870
C89   C     C_R   0.265420 0.438415 0.330816 -0.109400
C90   C     C_R   0.288917 0.917010 0.888174 -0.022855
C91   C     C_R   0.963005 0.264358 0.045365 0.544246
C92   C     C_R   0.272741 0.259446 0.060033 0.542653
C93   C     C_R   0.259526 0.959023 0.043716 0.571134
C94   C     C_R   0.962677 0.267571 0.930676 0.567184
C95   C     C_R   0.270356 0.263497 0.944960 0.543217
C96   C     C_R   0.255862 0.965558 0.928816 0.544179
Cr1   Cr    Cr6+3 0.576280 0.580550 0.506370 1.024659
Cr2   Cr    Cr6+3 0.346780 0.572400 0.496520 1.012059
Cr3   Cr    Cr6+3 0.576960 0.347070 0.497150 1.032375
Cr4   Cr    Cr6+3 0.087320 0.083240 0.984860 1.011816
Cr5   Cr    Cr6+3 0.087720 0.316210 0.996740 1.027447
Cr6   Cr    Cr6+3 0.317350 0.090340 0.995890 1.035800
H1    H     H_    0.847150 0.448594 0.085212 0.151748
H2    H     H_    0.878637 0.147848 0.151181 0.134890
H3    H     H_    0.224120 0.753771 0.391964 0.130341
H4    H     H_    0.519555 0.752553 0.412690 0.126170
H5    H     H_    0.152598 0.897636 0.083810 0.138302
H6    H     H_    0.216067 0.788800 0.321708 0.133478
H7    H     H_    0.509989 0.789551 0.342025 0.136753
H8    H     H_    0.222171 0.506776 0.582242 0.128345
H9    H     H_    0.507043 0.220769 0.593655 0.133061
H10   H     H_    0.136491 0.436760 0.906167 0.126521
H11   H     H_    0.464599 0.196782 0.310968 0.119077
H12   H     H_    0.441445 0.196238 0.829216 0.142628
H13   H     H_    0.973534 0.118344 0.874560 0.130096
H14   H     H_    0.423243 0.941065 0.892652 0.130197
H15   H     H_    0.160127 0.885419 0.873558 0.130368
H16   H     H_    0.235596 0.519326 0.388994 0.127041
H17   H     H_    0.154708 0.458330 0.178790 0.119712
H18   H     H_    0.136990 0.425746 0.105502 0.132661
H19   H     H_    0.201939 0.502867 0.315743 0.115700
N1    N     N_R   0.748241 0.411277 0.220617 -0.235121
N2    N     N_R   0.258371 0.431001 0.726127 -0.180926
N3    N     N_R   0.333549 0.250515 0.719429 -0.185781
N4    N     N_R   0.329337 0.248274 0.758946 -0.232584
N5    N     N_R   0.742970 0.418566 0.260490 -0.166480
N6    N     N_R   0.859209 0.241868 0.263129 -0.239264
N7    N     N_R   0.864777 0.234855 0.223206 -0.231757
N8    N     N_R   0.316894 0.754122 0.217027 -0.178051
N9    N     N_R   0.318703 0.748880 0.256690 -0.225029
N10   N     N_R   0.413175 0.839869 0.267821 -0.228228
N11   N     N_R   0.410442 0.845927 0.228056 -0.191638
N12   N     N_R   0.253527 0.428892 0.765681 -0.176918
O1    O     O_R   0.679450 0.499830 0.463150 -0.530474
O2    O     O_R   0.356040 0.477400 0.534170 -0.500200
O3    O     O_R   0.495910 0.323070 0.537100 -0.521928
O4    O     O_R   0.663920 0.359620 0.542290 -0.515848
O5    O     O_3   0.500010 0.500010 0.500010 -0.243940
O6    O     O_R   0.170070 0.978950 0.027680 -0.532375
O7    O     O_R   0.001760 0.175230 0.026640 -0.499747
O8    O     O_R   0.984760 0.333570 0.037150 -0.519135
O9    O     O_R   0.183410 0.309240 0.041890 -0.502952
O10   O     O_R   0.340240 0.172500 0.045430 -0.511321
O11   O     O_R   0.309670 0.000990 0.032050 -0.453479
O12   O     O_R   0.480650 0.664000 0.464630 -0.501852
O13   O     O_R   0.168330 0.982130 0.939200 -0.520450
O14   O     O_R   0.000140 0.178170 0.944610 -0.516204
O15   O     O_R   0.983010 0.336750 0.948660 -0.472332
O16   O     O_R   0.181800 0.312190 0.959860 -0.504019
O17   O     O_R   0.338500 0.175680 0.956950 -0.518900
O18   O     O_R   0.308050 0.003930 0.950020 -0.500468
O19   O     O_3   0.164130 0.163270 0.992500 -0.247597
O20   O     O_R   0.323930 0.675950 0.455370 -0.520972
O21   O     O_R   0.354700 0.475360 0.451930 -0.505145
O22   O     O_R   0.494470 0.320860 0.448390 -0.502277
O23   O     O_R   0.662580 0.357570 0.460050 -0.458029
O24   O     O_R   0.680900 0.502040 0.551870 -0.476960
O25   O     O_R   0.481990 0.666040 0.546870 -0.502573
O26   O     O_R   0.325370 0.678160 0.544080 -0.517279
H20   H     H_    0.449299 0.169349 0.109422 0.130487
N13   N     N_3   0.764667 0.202395 0.406740 -0.592804
H21   H     H_    0.826190 0.173836 0.428795 0.223238
H22   H     H_    0.775299 0.139988 0.386162 0.216726
N14   N     N_3   0.799176 0.510857 0.329859 -0.591248
H23   H     H_    0.786496 0.574505 0.350031 0.219097
H24   H     H_    0.876239 0.477605 0.322317 0.231892
H25   H     H_    0.802110 0.196232 0.329395 0.126794
N15   N     N_3   0.770275 0.502763 0.155619 -0.638028
H26   H     H_    0.693963 0.526163 0.162022 0.266153
H27   H     H_    0.814308 0.504484 0.182192 0.260578
H28   H     H_    0.944693 0.122130 0.084976 0.133925
H29   H     H_    0.465625 0.203168 0.182620 0.117178
N16   N     N_3   0.172348 0.833453 0.155794 -0.597186
H30   H     H_    0.154002 0.781541 0.137592 0.234292
H31   H     H_    0.105781 0.905787 0.156531 0.232605
N17   N     N_3   0.471933 0.883176 0.079929 -0.604711
H32   H     H_    0.491690 0.934421 0.097858 0.228614
H33   H     H_    0.538306 0.811295 0.076926 0.224876
N18   N     N_3   0.521276 0.804006 0.159084 -0.608883
H34   H     H_    0.577793 0.745386 0.141445 0.238406
H35   H     H_    0.533795 0.868435 0.162157 0.236917
N19   N     N_3   0.148390 0.503693 0.651765 -0.593755
H36   H     H_    0.107784 0.562905 0.631859 0.224362
H37   H     H_    0.103587 0.466577 0.652771 0.233394
N20   N     N_3   0.481303 0.179393 0.665051 -0.596704
H38   H     H_    0.493279 0.111851 0.647583 0.233095
H39   H     H_    0.551874 0.181025 0.669063 0.229693
N21   N     N_3   0.118541 0.488281 0.829970 -0.593689
H40   H     H_    0.066347 0.537013 0.851348 0.218123
H41   H     H_    0.079359 0.456941 0.810154 0.231797
H42   H     H_    0.437081 0.166294 0.899044 0.138152
N22   N     N_3   0.938756 0.111897 0.794171 -0.618971
H43   H     H_    0.965457 0.046369 0.810763 0.220127
H44   H     H_    0.000721 0.100751 0.778009 0.228575
H45   H     H_    0.766413 0.222848 0.673115 0.130566
H46   H     H_    0.710179 0.259621 0.602754 0.139409
N23   N     N_3   0.824387 0.504223 0.607865 -0.595251
H47   H     H_    0.903897 0.480542 0.610428 0.239562
H48   H     H_    0.786576 0.575066 0.624485 0.246597
H49   H     H_    0.804327 0.465447 0.818763 0.108057
N24   N     N_3   0.836877 0.473676 0.898751 -0.600776
H50   H     H_    0.756885 0.522004 0.894760 0.227720
H51   H     H_    0.874122 0.511974 0.889252 0.224097
H52   H     H_    0.499609 0.211908 0.384180 0.140111
N25   N     N_3   0.887438 0.462387 0.690181 -0.645578
H53   H     H_    0.841647 0.503531 0.714378 0.233376
H54   H     H_    0.960167 0.408078 0.701946 0.240711
N26   N     N_3   0.478016 0.896936 0.816051 -0.618600
H55   H     H_    0.516294 0.922953 0.838772 0.223350
H56   H     H_    0.531769 0.821361 0.806953 0.226858
H57   H     H_    0.513790 0.787418 0.685823 0.120386
H58   H     H_    0.533443 0.731341 0.613939 0.133361
H59   H     H_    0.214129 0.792202 0.600432 0.130975
N27   N     N_3   0.177208 0.832362 0.794255 -0.607075
H60   H     H_    0.123607 0.826592 0.810577 0.232936
H61   H     H_    0.134352 0.892614 0.774977 0.222989
H62   H     H_    0.195888 0.847962 0.672283 0.121345
H63   H     H_    0.755706 0.520808 0.406087 0.131581

loop_
_geom_bond_atom_site_label_1
_geom_bond_atom_site_label_2
_ccdc_geom_bond_type
C66   C68   A    
C87   C88   T    
Cr2   O21   S    
Cr5   O15   S    
C69   N24   S    
C55   C59   A    
C49   N20   S    
C52   N3    A    
N24   H50   S    
C74   C94   S    
C36   C42   S    
C82   N26   S    
N13   H21   S    
C57   C58   A    
C7    C8    A    
N16   H30   S    
C16   N14   S    
C25   C28   A    
C39   H5    S    
C26   C27   A    
C29   C30   A    
C84   C90   A    
N2    N12   A    
Cr6   O18   S    
N14   H23   S    
C78   H16   S    
C53   N21   S    
C20   N7    A    
C69   C70   A    
C36   N11   A    
C19   N13   S    
C5    C6    A    
C52   N2    A    
N27   H61   S    
N20   H39   S    
C16   C17   A    
Cr4   O14   S    
C68   C74   A    
C15   C16   A    
C64   H45   S    
C37   N9    A    
N21   H41   S    
C18   C19   A    
C41   C42   A    
Cr5   O16   S    
N23   H48   S    
C92   O10   A    
N19   H36   S    
Cr4   O7    S    
C26   H2    S    
Cr5   O8    S    
C76   H59   S    
C40   C43   A    
C66   C71   A    
Cr4   O13   S    
C8    C9    A    
C66   N22   S    
C14   C19   A    
Cr3   O5    S    
C70   C71   A    
C95   O16   A    
N22   H43   S    
C21   N6    A    
C92   O9    A    
C9    C10   S    
C62   N25   S    
C20   N1    A    
C34   C75   S    
C72   C73   T    
C65   H46   S    
C22   N15   S    
C34   O26   A    
C25   H28   S    
N15   H27   S    
Cr2   O20   S    
C23   O23   A    
N14   H24   S    
N24   H51   S    
C61   C62   A    
C67   C78   A    
Cr6   O11   S    
Cr1   O1    S    
C47   N19   S    
C2    C11   S    
C83   H14   S    
C79   C88   S    
N13   H22   S    
C44   C46   A    
C54   C59   A    
N25   H54   S    
C78   C89   A    
C94   O15   A    
C12   C67   S    
C45   O2    A    
C51   N4    A    
C84   C85   A    
C55   H42   S    
C3    H11   S    
C61   N23   S    
C40   N17   S    
C86   C87   S    
C75   C81   A    
C38   N16   S    
C39   C43   A    
C95   O17   A    
C63   C73   S    
C25   C26   A    
C85   C86   A    
C96   O18   A    
Cr2   O2    S    
C17   C21   S    
N18   H34   S    
Cr3   O22   S    
C60   C61   A    
Cr2   O5    S    
Cr1   O24   S    
C14   C23   S    
N1    N5    A    
C2    C89   A    
C1    O20   A    
C75   C76   A    
C5    C9    A    
C56   O24   A    
C93   O6    A    
Cr4   O6    S    
Cr5   O9    S    
C47   C48   A    
C7    C13   A    
C30   C31   A    
C18   H25   S    
Cr3   O23   S    
C62   C63   A    
C1    C29   S    
C17   C18   A    
C77   C79   A    
C54   H10   S    
C69   C74   A    
Cr4   O19   S    
C51   C58   S    
C32   C37   S    
C76   C77   A    
C15   H63   S    
C90   C96   S    
C91   O7    A    
C93   O11   A    
N26   H55   S    
N16   H31   S    
C59   C95   S    
C80   H57   S    
C34   O25   A    
N15   H26   S    
Cr6   O17   S    
C60   C65   A    
C49   C50   A    
C22   C27   A    
C55   C57   A    
C30   H3    S    
C22   C24   A    
C79   C80   A    
C33   H7    S    
C1    O12   A    
C12   O22   A    
C3    C4    A    
C31   H6    S    
Cr1   O5    S    
C44   C45   S    
N8    N9    A    
C44   C50   A    
C94   O14   A    
C83   C90   A    
N25   H53   S    
C46   C47   A    
N17   H32   S    
C45   O3    A    
C70   H49   S    
C23   O1    A    
N27   H60   S    
Cr1   O12   S    
C7    H18   S    
C41   N18   S    
C31   C32   A    
Cr3   O4    S    
C24   C28   A    
C12   O21   A    
C80   C81   A    
N10   N11   A    
C4    C67   A    
C6    H20   S    
C53   C58   A    
C53   C54   A    
C57   H12   S    
C20   C27   S    
C96   O13   A    
C29   C35   A    
Cr5   O19   S    
C43   C93   S    
C24   H1    S    
C32   C33   A    
C46   H8    S    
C2    C3    A    
C71   C72   S    
C13   C92   S    
C35   H4    S    
C82   C86   A    
C36   N8    A    
Cr1   O25   S    
C6    C13   A    
C56   O4    A    
C51   N12   A    
C77   H62   S    
N20   H38   S    
C38   C39   A    
C89   H19   S    
C48   C49   A    
C64   C65   A    
N17   H33   S    
C50   H9    S    
C33   C35   A    
C5    H29   S    
Cr3   O3    S    
C28   C91   S    
N23   H47   S    
N19   H37   S    
C4    H52   S    
C10   C11   T    
C84   H15   S    
C68   H13   S    
C63   C64   A    
C38   C42   A    
C37   N10   A    
C48   C52   S    
C81   H58   S    
C56   C60   S    
Cr2   O26   S    
N26   H56   S    
C82   C83   A    
Cr6   O10   S    
C14   C15   A    
N21   H40   S    
C40   C41   A    
C91   O8    A    
C21   N5    A    
C85   N27   S    
N6    N7    A    
C8    H17   S    
Cr6   O19   S    
N3    N4    A    
N18   H35   S    
N22   H44   S    
