data_mof_unit_9545.cif
_audit_creation_date              2012-10-26T20:51:10-0400
_audit_creation_method            fapswitch 2.2
_symmetry_space_group_name_H-M    P1
_symmetry_Int_Tables_number       1
_space_group_crystal_system       triclinic
_cell_length_a                    13.006746
_cell_length_b                    10.877182
_cell_length_c                    9.588764
_cell_angle_alpha                 90.438001
_cell_angle_beta                  95.715657
_cell_angle_gamma                 92.270496
_cell_volume                      1348.69131725

loop_
_atom_site_label
_atom_site_type_symbol
_atom_type_description
_atom_site_fract_x
_atom_site_fract_y
_atom_site_fract_z
_atom_type_partial_charge
C1    C     C_R   0.495963 0.262755 0.499038 0.548685
C2    C     C_R   0.451323 0.932825 0.382650 -0.172218
C3    C     C_R   0.498982 0.871554 0.499367 0.011270
C4    C     C_R   0.300489 0.503910 0.474713 0.553940
C5    C     C_R   0.550872 0.942256 0.608942 0.036868
C6    C     C_3   0.545814 0.936054 0.763588 -0.260870
C7    C     C_3   0.529549 0.073238 0.764144 -0.143279
C8    C     C_R   0.581986 0.551198 0.084000 0.143812
C9    C     C_R   0.426308 0.434736 0.062318 0.313870
C10   C     C_R   0.424782 0.438637 0.914199 -0.004582
C11   C     C_R   0.585048 0.543254 0.937573 0.123801
C12   C     C_R   0.024835 0.474773 0.565069 0.060315
C13   C     C_3   0.635609 0.666534 0.929152 0.146517
C14   C     C_3   0.625440 0.682457 0.085842 0.210030
C15   C     C_R   0.499134 0.737689 0.500306 0.558520
C16   C     C_R   0.698093 0.487135 0.525514 0.582593
C17   C     C_R   0.809251 0.463737 0.538514 -0.008248
C18   C     C_R   0.186788 0.504751 0.461529 -0.003889
C19   C     C_R   0.025040 0.494409 0.310452 -0.010753
C20   C     C_R   0.132853 0.498308 0.327674 -0.092760
C21   C     C_R   0.131154 0.507369 0.581058 0.016054
C22   C     C_3   0.420145 0.101447 0.798866 -0.372238
C23   C     C_R   0.970380 0.482229 0.430354 0.016036
C24   C     C_3   0.550021 0.782929 0.111822 -0.349973
C25   C     C_3   0.807725 0.351957 0.773052 -0.314552
C26   C     C_3   0.971233 0.498321 0.163763 -0.345023
C27   C     C_3   0.177864 0.570390 0.715598 -0.320548
C28   C     C_R   0.862699 0.480708 0.420012 -0.126970
C29   C     C_R   0.862875 0.420342 0.663026 0.034762
C30   C     C_R   0.971657 0.431254 0.678245 0.248884
C31   C     C_R   0.542701 0.068204 0.610942 0.029634
C32   C     C_R   0.494635 0.129925 0.497699 0.014579
C33   C     C_R   0.452399 0.061404 0.379689 -0.138545
Cl1   Cl    Cl    0.332667 0.338050 0.129977 -0.602486
Cl2   Cl    Cl    0.764384 0.660337 0.879772 -0.561226
Cl3   Cl    Cl    0.744382 0.704199 0.195623 -0.572859
Cl4   Cl    Cl    0.040515 0.369917 0.829336 -0.650280
Cu1   Cu    Cu3+1 0.499990 0.499980 0.640670 0.954454
Cu2   Cu    Cu3+1 0.500010 0.500020 0.359330 1.047142
H1    H     H_    0.819800 0.495011 0.319728 0.188994
H2    H     H_    0.412319 0.079452 0.910315 0.154758
H3    H     H_    0.405522 0.199706 0.783593 0.176408
H4    H     H_    0.360330 0.046648 0.731362 0.155951
H5    H     H_    0.468106 0.748825 0.093207 0.101861
H6    H     H_    0.567595 0.819341 0.219359 0.204624
H7    H     H_    0.561795 0.862983 0.043646 0.105671
H8    H     H_    0.726590 0.324177 0.737000 0.133094
H9    H     H_    0.845463 0.263901 0.797760 0.171986
H10   H     H_    0.810755 0.407922 0.870588 0.201745
H11   H     H_    0.027280 0.504407 0.083910 0.196635
H12   H     H_    0.622464 0.915737 0.818430 0.161100
H13   H     H_    0.921146 0.414008 0.141490 0.159250
H14   H     H_    0.924116 0.580826 0.152028 0.220045
H15   H     H_    0.229114 0.650158 0.692253 0.125619
H16   H     H_    0.117183 0.608929 0.774901 0.170577
H17   H     H_    0.222011 0.505003 0.783322 0.193027
H18   H     H_    0.592493 0.127867 0.826256 0.154281
H19   H     H_    0.363132 0.390654 0.849454 0.151616
H20   H     H_    0.586066 0.723036 0.859115 0.118120
H21   H     H_    0.174902 0.500417 0.235700 0.185586
H22   H     H_    0.415749 0.106554 0.288657 0.183293
H23   H     H_    0.410885 0.881477 0.295320 0.128563
H24   H     H_    0.478932 0.878007 0.792512 0.133809
N1    N     N_R   0.500660 0.500930 0.148010 -0.246363
N2    N     N_R   0.500660 0.500890 0.852110 -0.300834
O1    O     O_R   0.500000 0.319640 0.618810 -0.526159
O2    O     O_R   0.500010 0.319680 0.381230 -0.466126
O3    O     O_R   0.348990 0.499960 0.599490 -0.524256
O4    O     O_R   0.349000 0.500000 0.361910 -0.455664
O5    O     O_R   0.499990 0.680320 0.618770 -0.510325
O6    O     O_R   0.500000 0.680360 0.381190 -0.505602
O7    O     O_R   0.651000 0.500000 0.638090 -0.463039
O8    O     O_R   0.651010 0.500040 0.400510 -0.478712

loop_
_geom_bond_atom_site_label_1
_geom_bond_atom_site_label_2
_ccdc_geom_bond_type
C6    H24   S    
C19   C23   A    
Cu1   O5    S    
C6    C7    S    
C13   H20   S    
C26   H13   S    
C6    H12   S    
C20   H21   S    
C7    C22   S    
C15   O6    A    
C9    C10   A    
C25   H8    S    
C27   H16   S    
C22   H4    S    
C16   O7    A    
Cu1   N2    S    
C15   O5    A    
C3    C5    A    
C4    C18   S    
C32   C33   A    
Cu2   O8    S    
C2    C3    A    
Cu2   O4    S    
C27   H15   S    
C24   H7    S    
Cu2   O6    S    
C23   C28   A    
C18   C21   A    
C25   C29   S    
Cu2   N1    S    
C11   C13   S    
C12   C23   A    
C22   H3    S    
C8    N1    A    
C8    C11   A    
C24   H6    S    
C2    C33   A    
C4    O4    A    
C10   H19   S    
Cu1   O3    S    
C9    Cl1   S    
C13   Cl2   S    
C18   C20   A    
C25   H9    S    
C26   H11   S    
C14   Cl3   S    
C5    C6    S    
C24   H5    S    
C31   C32   A    
Cu1   O7    S    
C22   H2    S    
C7    C31   S    
C28   H1    S    
C29   C30   A    
C16   O8    A    
C9    N1    A    
C26   H14   S    
C11   N2    A    
C17   C29   A    
Cu1   Cu2   S    
Cu1   O1    S    
C33   H22   S    
C10   N2    A    
C14   C24   S    
C4    O3    A    
C19   C26   S    
C21   C27   S    
C27   H17   S    
C3    C15   S    
C8    C14   S    
C12   C30   A    
C13   C14   S    
C17   C28   A    
Cu2   O2    S    
C12   C21   A    
C7    H18   S    
C1    C32   S    
C1    O2    A    
C19   C20   A    
C30   Cl4   S    
C2    H23   S    
C16   C17   S    
C5    C31   A    
C25   H10   S    
C1    O1    A    
