data_mof_unit_25472.cif
_audit_creation_date              2012-12-11T15:47:04-0500
_audit_creation_method            fapswitch 2.2
_symmetry_space_group_name_H-M    P1
_symmetry_Int_Tables_number       1
_space_group_crystal_system       triclinic
_cell_length_a                    11.554805
_cell_length_b                    11.529527
_cell_length_c                    19.534893
_cell_angle_alpha                 90.410669
_cell_angle_beta                  90.160002
_cell_angle_gamma                 59.937156
_cell_volume                      2252.31469677

loop_
_atom_site_label
_atom_site_type_symbol
_atom_type_description
_atom_site_fract_x
_atom_site_fract_y
_atom_site_fract_z
_atom_type_partial_charge
C1    C     C_R   0.640581 0.117345 0.599215 0.556125
C2    C     C_1   0.653248 0.149554 0.668601 0.002292
C3    C     C_R   0.673374 0.639958 0.198596 -0.011728
C4    C     C_R   0.612635 0.745769 0.598575 0.547085
C5    C     C_R   0.573028 0.632445 0.234251 0.079123
C6    C     C_R   0.566133 0.641798 0.303819 -0.012545
C7    C     C_R   0.775383 0.641034 0.307049 -0.158081
C8    C     C_R   0.781093 0.633245 0.235602 -0.159886
C9    C     C_3   0.424686 0.709917 0.224324 0.141021
C10   C     C_3   0.415873 0.721777 0.301416 -0.208145
C11   C     C_R   0.659520 0.661189 0.340533 0.008417
C12   C     C_1   0.641539 0.703638 0.667967 0.004883
C13   C     C_R   0.118260 0.209940 0.197839 0.016779
C14   C     C_R   0.104248 0.315357 0.238701 0.034831
C15   C     C_R   0.124891 0.300822 0.307981 0.027446
C16   C     C_R   0.240983 0.145271 0.598170 0.548295
C17   C     C_R   0.150272 0.080631 0.301513 -0.170960
C18   C     C_R   0.130126 0.095768 0.230559 -0.166022
C19   C     C_3   0.164951 0.402119 0.231480 -0.265836
C20   C     C_3   0.185520 0.389485 0.308101 -0.257817
C21   C     C_R   0.163385 0.177426 0.339336 0.017585
C22   C     C_R   0.660183 0.174982 0.187565 0.009515
C23   C     C_1   0.126753 0.198750 0.859341 0.001733
C24   C     C_R   0.727119 0.042824 0.211778 0.024735
C25   C     C_R   0.713066 0.014247 0.278768 0.011410
C26   C     C_R   0.553090 0.247462 0.298306 -0.159973
C27   C     C_R   0.565228 0.275876 0.230166 -0.171573
C28   C     C_R   0.621754 0.084202 0.394626 0.557542
C29   C     C_3   0.873233 0.942603 0.212089 -0.267957
C30   C     C_3   0.858102 0.913533 0.285526 -0.266684
C31   C     C_R   0.632476 0.116546 0.323982 0.017164
C32   C     C_R   0.081829 0.231118 0.928629 0.546438
C33   C     C_R   0.683760 0.604639 0.929582 0.544493
C34   C     C_1   0.171565 0.170147 0.727716 -0.030880
C35   C     C_R   0.708239 0.206636 0.930195 0.546438
C36   C     C_R   0.079858 0.237478 0.126505 0.543708
C37   C     C_R   0.684597 0.607914 0.126881 0.539393
C38   C     C_R   0.706995 0.209619 0.126055 0.551412
C39   C     C_R   0.618476 0.734721 0.404133 0.542983
C40   C     C_R   0.240129 0.142830 0.402600 0.538100
C41   C     C_1   0.670057 0.646813 0.860206 0.003499
C42   C     C_1   0.654930 0.683583 0.728451 -0.031427
C43   C     C_1   0.663277 0.666888 0.799733 -0.032178
C44   C     C_3   0.324471 0.660413 0.132485 0.038653
C45   C     C_1   0.150212 0.182195 0.798974 -0.031821
C46   C     C_3   0.172772 0.727010 0.133239 -0.297797
C47   C     C_3   0.114736 0.762927 0.061107 -0.457181
C48   C     C_1   0.195337 0.160781 0.667364 0.004110
C49   C     C_1   0.678288 0.191382 0.860826 0.003280
C50   C     C_1   0.658655 0.167179 0.729017 -0.031384
C51   C     C_1   0.665489 0.180979 0.800347 -0.031411
Cr1   Cr    Cr6+3 0.404720 0.198220 0.499960 1.022140
Cr2   Cr    Cr6+3 0.698290 0.897110 0.500380 1.023656
Cr3   Cr    Cr6+3 0.396970 0.904720 0.499610 1.019242
Cr4   Cr    Cr6+3 0.926290 0.152010 0.028150 1.004173
Cr5   Cr    Cr6+3 0.921440 0.451830 0.027490 1.018840
Cr6   Cr    Cr6+3 0.626370 0.446880 0.028730 1.006938
H1    H     H_    0.854463 0.644045 0.335299 0.122745
H2    H     H_    0.911188 0.945250 0.322060 0.155980
H3    H     H_    0.866449 0.626438 0.209400 0.128166
H4    H     H_    0.386618 0.809219 0.199247 0.081679
H5    H     H_    0.376365 0.826593 0.318600 0.123840
H6    H     H_    0.368864 0.668552 0.325774 0.158978
H7    H     H_    0.165263 0.989892 0.325417 0.120653
H8    H     H_    0.128125 0.016990 0.201273 0.116922
H9    H     H_    0.092064 0.505317 0.215223 0.128351
H10   H     H_    0.365735 0.565613 0.102527 0.166616
H11   H     H_    0.353132 0.726725 0.105009 0.138383
H12   H     H_    0.260065 0.352796 0.201907 0.144619
H13   H     H_    0.142653 0.658935 0.156988 0.162010
H14   H     H_    0.132913 0.819397 0.164513 0.154773
H15   H     H_    0.140328 0.834558 0.037421 0.154479
H16   H     H_    0.004195 0.810683 0.063346 0.156708
H17   H     H_    0.154481 0.671269 0.028710 0.143144
H18   H     H_    0.292339 0.336066 0.322111 0.162324
H19   H     H_    0.122704 0.485239 0.336128 0.130752
H20   H     H_    0.488715 0.329936 0.331777 0.140099
H21   H     H_    0.510814 0.378529 0.213245 0.192634
H22   H     H_    0.936379 0.989485 0.207227 0.156382
H23   H     H_    0.897567 0.857061 0.177076 0.129607
H24   H     H_    0.877727 0.810410 0.292718 0.129000
O1    O     O_R   0.267750 0.231960 0.575440 -0.504235
O2    O     O_R   0.596230 0.579400 0.952760 -0.514855
O3    O     O_R   0.639160 0.321170 0.958690 -0.497444
O4    O     O_R   0.527290 0.186640 0.570530 -0.488623
O5    O     O_R   0.821370 0.124220 0.104400 -0.524468
O6    O     O_R   0.037020 0.167050 0.097880 -0.509865
O7    O     O_R   0.056310 0.349620 0.102920 -0.516645
O8    O     O_R   0.797790 0.564880 0.097980 -0.504927
O9    O     O_R   0.596000 0.584270 0.104310 -0.524018
O10   O     O_R   0.638950 0.325690 0.099180 -0.504678
O11   O     O_3   0.824700 0.350240 0.028120 -0.246312
O12   O     O_R   0.685950 0.784660 0.430010 -0.516604
O13   O     O_R   0.728110 0.003450 0.576380 -0.500218
O14   O     O_R   0.682980 0.789190 0.570500 -0.494238
O15   O     O_R   0.499300 0.771880 0.575540 -0.502704
O16   O     O_R   0.285350 0.030870 0.569740 -0.491319
O17   O     O_R   0.270960 0.227070 0.423890 -0.529246
O18   O     O_R   0.530270 0.182120 0.430040 -0.510164
O19   O     O_R   0.731320 0.998570 0.424830 -0.511751
O20   O     O_3   0.374335 0.627620 0.200180 -0.580770
O21   O     O_R   0.502510 0.767000 0.423980 -0.525241
O22   O     O_R   0.288320 0.026340 0.429250 -0.509164
O23   O     O_3   0.499990 0.000020 0.499980 -0.268159
O24   O     O_R   0.821590 0.119350 0.952850 -0.508569
O25   O     O_R   0.037230 0.162540 0.957390 -0.497138
O26   O     O_R   0.056530 0.344750 0.951370 -0.506149
O27   O     O_R   0.798000 0.560370 0.957490 -0.493529

loop_
_geom_bond_atom_site_label_1
_geom_bond_atom_site_label_2
_ccdc_geom_bond_type
C25   C31   A    
C23   C45   T    
Cr6   O11   S    
Cr2   O14   S    
C10   H6    S    
C27   H21   S    
C16   C48   S    
C7    C8    A    
C36   O7    A    
C18   H8    S    
C7    C11   A    
C29   H23   S    
C26   C27   A    
C29   C30   S    
C37   O9    A    
C38   O5    A    
C9    H4    S    
Cr3   O23   S    
Cr1   O4    S    
C17   H7    S    
C40   O17   A    
C5    C6    A    
C16   O16   A    
Cr5   O7    S    
Cr2   O23   S    
C22   C38   S    
C20   H19   S    
C19   H9    S    
C1    C2    S    
C24   C29   S    
Cr5   O27   S    
C12   C42   T    
C2    C50   T    
C4    O15   A    
C39   O12   A    
C19   C20   S    
C1    O13   A    
C49   C51   T    
C32   O26   A    
C35   C49   S    
Cr6   O2    S    
Cr3   O16   S    
C4    C12   S    
C9    C10   S    
C7    H1    S    
Cr3   O15   S    
C28   O19   A    
C26   C31   A    
C36   O6    A    
C32   O25   A    
C13   C14   A    
C41   C43   T    
C10   H5    S    
C33   O27   A    
C44   C46   S    
C50   C51   S    
Cr2   O19   S    
C1    O4    A    
C15   C20   S    
C26   H20   S    
Cr6   O9    S    
Cr4   O25   S    
Cr2   O12   S    
Cr3   O22   S    
C24   C25   A    
C47   H16   S    
C13   C36   S    
C3    C8    A    
C6    C11   A    
C38   O10   A    
C17   C21   A    
C20   H18   S    
Cr1   O1    S    
Cr5   O26   S    
C5    C9    S    
Cr4   O11   S    
C35   O24   A    
C4    O14   A    
C29   H22   S    
Cr5   O11   S    
C44   O20   S    
C30   H2    S    
C16   O1    A    
C17   C18   A    
Cr6   O3    S    
C34   C45   S    
C11   C39   S    
C33   O2    A    
C46   H14   S    
C13   C18   A    
C28   O18   A    
Cr5   O8    S    
Cr4   O24   S    
C22   C27   A    
C22   C24   A    
C44   H11   S    
C34   C48   T    
C42   C43   S    
C39   O21   A    
C25   C30   S    
C46   C47   S    
Cr1   O23   S    
Cr6   O10   S    
Cr2   O13   S    
C14   C19   S    
Cr3   O21   S    
C28   C31   S    
C47   H17   S    
C3    C5    A    
C6    C10   S    
C35   O3    A    
Cr1   O18   S    
C37   O8    A    
C33   C41   S    
C23   C32   S    
C30   H24   S    
C8    H3    S    
C40   O22   A    
C21   C40   S    
Cr4   O5    S    
Cr1   O17   S    
Cr4   O6    S    
C47   H15   S    
C46   H13   S    
C19   H12   S    
C15   C21   A    
C3    C37   S    
C9    O20   S    
C14   C15   A    
C44   H10   S    
