data_mof_unit_37157.cif
_audit_creation_date              2012-12-10T18:11:40-0500
_audit_creation_method            fapswitch 2.2
_symmetry_space_group_name_H-M    P1
_symmetry_Int_Tables_number       1
_space_group_crystal_system       triclinic
_cell_length_a                    10.507757
_cell_length_b                    12.635714
_cell_length_c                    13.131586
_cell_angle_alpha                 82.070072
_cell_angle_beta                  91.411089
_cell_angle_gamma                 101.389343
_cell_volume                      1692.83649862

loop_
_atom_site_label
_atom_site_type_symbol
_atom_type_description
_atom_site_fract_x
_atom_site_fract_y
_atom_site_fract_z
_atom_type_partial_charge
C1    C     C_R   0.481580 0.438950 0.691156 0.883422
C2    C     C_3   0.059511 0.601788 0.495910 0.457283
C3    C     C_3   0.971409 0.542494 0.586664 -0.301016
C4    C     C_3   0.875390 0.495317 0.506637 -0.176915
C5    C     C_R   0.467933 0.718213 0.054488 -0.157400
C6    C     C_R   0.522901 0.596021 0.198651 -0.032021
C7    C     C_R   0.502850 0.299110 0.840415 0.417690
C8    C     C_R   0.497004 0.264636 0.946399 0.462411
C9    C     C_R   0.482220 0.338190 0.012797 -0.332325
C10   C     C_R   0.463727 0.444500 0.974253 0.012323
C11   C     C_R   0.436444 0.467813 0.869337 -0.058647
C12   C     C_R   0.741051 0.497928 0.504819 0.953158
C13   C     C_R   0.475345 0.529532 0.035498 0.075433
C14   C     C_R   0.445186 0.631999 0.994583 0.073062
C15   C     C_R   0.393008 0.644914 0.895397 0.338802
C16   C     C_R   0.385306 0.561865 0.834946 -0.185911
C17   C     C_R   0.521197 0.516385 0.135650 -0.204705
C18   C     C_R   0.508325 0.700187 0.156247 -0.244574
C19   C     C_R   0.467362 0.399285 0.801160 -0.274823
C20   C     C_R   0.311335 0.093657 0.347107 0.343754
C21   C     C_R   0.654759 0.798152 0.629989 0.052454
C22   C     C_R   0.688385 0.902329 0.656688 -0.225723
C23   C     C_R   0.518716 0.560749 0.308874 0.891652
C24   C     C_R   0.630293 0.984378 0.605778 -0.122461
C25   C     C_R   0.537543 0.962469 0.527383 0.046675
C26   C     C_R   0.507952 0.855322 0.502607 0.170555
C27   C     C_R   0.472596 0.041907 0.474056 -0.131022
C28   C     C_R   0.377037 0.013133 0.397704 -0.068885
C29   C     C_R   0.351109 0.905935 0.374029 0.526102
C30   C     C_R   0.417387 0.829326 0.425739 -0.257574
C31   C     C_R   0.498049 0.149730 0.494933 -0.008206
C32   C     C_R   0.342010 0.197885 0.372974 -0.060191
C33   C     C_R   0.258011 0.500847 0.498038 0.908796
C34   C     C_3   0.934636 0.392407 0.510975 -0.262579
C35   C     C_3   0.034559 0.440837 0.589590 -0.257351
C36   C     C_3   0.122272 0.501264 0.499146 -0.170184
C37   C     C_3   0.023610 0.453441 0.421547 0.447809
C38   C     C_3   0.963450 0.554511 0.416936 0.366222
H1    H     H_    0.068985 0.394846 0.659595 0.170752
H2    H     H_    0.552177 0.442717 0.168355 0.153530
H3    H     H_    0.485385 0.309325 0.093844 0.183990
H4    H     H_    0.341658 0.573068 0.759737 0.202792
H5    H     H_    0.293909 0.261054 0.335633 0.195461
H6    H     H_    0.568493 0.179588 0.550177 0.148091
H7    H     H_    0.699269 0.733576 0.668964 0.127665
H8    H     H_    0.878188 0.307585 0.518632 0.158946
H9    H     H_    0.659936 0.063304 0.629993 0.130802
H10   H     H_    0.758993 0.919495 0.716639 0.153724
H11   H     H_    0.393204 0.748583 0.406194 0.226458
H12   H     H_    0.943411 0.576472 0.654484 0.162945
H13   H     H_    0.521706 0.765317 0.203214 0.155825
H14   H     H_    0.451334 0.798460 0.024495 0.183545
N1    N     N_R   0.432930 0.222190 0.444670 -0.137263
N2    N     N_R   0.566370 0.776980 0.554790 -0.115902
O1    O     O_R   0.467970 0.366730 0.627150 -0.563348
O2    O     O_R   0.510820 0.544830 0.662520 -0.630650
O3    O     O_R   0.664630 0.410960 0.482340 -0.633677
O4    O     O_R   0.707470 0.589060 0.517710 -0.622514
O5    O     O_R   0.489180 0.455170 0.337480 -0.620835
O6    O     O_R   0.532030 0.633270 0.372850 -0.639644
O7    O     O_R   0.292530 0.410940 0.482290 -0.590533
O8    O     O_R   0.335370 0.589040 0.517660 -0.606289
Zn1   Zn    Zn3+2 0.471390 0.381080 0.476380 0.971159
Zn2   Zn    Zn3+2 0.528610 0.618920 0.523620 0.952503
O9    O     O_3   0.545139 0.235165 0.776015 -0.580246
C39   C     C_3   0.681769 0.264753 0.768997 -0.240918
H15   H     H_    0.728034 0.244422 0.844391 0.185990
H16   H     H_    0.714425 0.352774 0.739650 0.126486
H17   H     H_    0.716411 0.218102 0.713594 0.161181
O10   O     O_3   0.525096 0.164865 0.986256 -0.601951
C40   C     C_3   0.411486 0.084720 0.982618 -0.202753
H18   H     H_    0.377838 0.078809 0.902189 0.197700
H19   H     H_    0.332736 0.100466 0.030209 0.183926
H20   H     H_    0.433557 0.004548 0.014894 0.180303
O11   O     O_3   0.248969 0.872390 0.310172 -0.556492
C41   C     C_3   0.295252 0.842557 0.220771 -0.311318
H21   H     H_    0.302734 0.755532 0.234941 0.157067
H22   H     H_    0.388512 0.896013 0.192396 0.153411
H23   H     H_    0.222978 0.850845 0.158664 0.212669
Cl1   Cl    Cl    0.192552 0.073949 0.250363 -0.622100
O12   O     O_3   0.063252 0.410592 0.336566 -0.612560
C42   C     C_3   0.953069 0.356696 0.288032 -0.233215
H24   H     H_    0.882955 0.411078 0.265053 0.182346
H25   H     H_    0.904834 0.281994 0.338051 0.164493
H26   H     H_    0.984856 0.330915 0.216984 0.201410
O13   O     O_3   0.907221 0.605901 0.329914 -0.636147
C43   C     C_3   0.004984 0.666404 0.262562 -0.240471
H27   H     H_    0.087458 0.624347 0.255682 0.171194
H28   H     H_    0.039107 0.747273 0.287493 0.251314
H29   H     H_    0.962425 0.679829 0.184847 0.185650
O14   O     O_3   0.132294 0.709096 0.486302 -0.587459
C44   C     C_3   0.052698 0.779934 0.510324 -0.180105
H30   H     H_    0.031147 0.766905 0.594044 0.150412
H31   H     H_    0.961009 0.771105 0.465197 0.172951
H32   H     H_    0.105755 0.865141 0.490882 0.208293
Cl2   Cl    Cl    0.339720 0.764549 0.842044 -0.653685

loop_
_geom_bond_atom_site_label_1
_geom_bond_atom_site_label_2
_ccdc_geom_bond_type
C22   H10   S    
C43   H27   S    
C34   C37   S    
C39   H16   S    
C35   C36   S    
C41   H23   S    
O12   C42   S    
C7    C8    A    
C23   O5    A    
C11   C19   A    
C29   C30   A    
C38   O13   S    
C36   C37   S    
C1    O2    A    
C41   H22   S    
C21   N2    A    
C39   H17   S    
C15   C16   A    
C33   C36   S    
C8    O10   S    
C34   C35   S    
O7    Zn1   S    
O8    Zn2   S    
C33   O8    A    
O1    Zn1   S    
O2    Zn2   S    
C5    H14   S    
O10   C40   S    
C34   H8    S    
C4    C12   S    
C9    C10   A    
C12   O4    A    
C39   H15   S    
C21   C22   A    
C37   O12   S    
C26   N2    A    
C3    H12   S    
C18   H13   S    
O3    Zn1   S    
C21   H7    S    
C41   H21   S    
O4    Zn2   S    
C23   O6    A    
C6    C18   A    
C4    C34   S    
C1    C19   S    
C31   H6    S    
C20   Cl1   S    
C27   C31   A    
C24   C25   A    
O14   C44   S    
C40   H19   S    
O13   C43   S    
C8    C9    A    
C5    C18   A    
C20   C28   A    
C25   C26   A    
C44   H32   S    
C17   H2    S    
C35   H1    S    
O11   C41   S    
C37   C38   S    
C7    O9    S    
C11   C16   A    
C2    C38   S    
C3    C35   S    
C44   H31   S    
C31   N1    A    
C5    C14   A    
C12   O3    A    
C30   H11   S    
C4    C38   S    
C26   C30   A    
C42   H25   S    
C43   H28   S    
C22   C24   A    
C3    C4    S    
C16   H4    S    
C32   N1    A    
C15   Cl2   S    
C20   C32   A    
C2    C36   S    
C6    C17   A    
C28   C29   A    
C24   H9    S    
O5    Zn1   S    
C10   C13   A    
C40   H20   S    
C29   O11   S    
C9    H3    S    
C25   C27   A    
C42   H26   S    
C7    C19   A    
C13   C17   A    
O6    Zn2   S    
C2    C3    S    
C1    O1    A    
C40   H18   S    
N1    Zn1   S    
N2    Zn2   S    
C6    C23   S    
C44   H30   S    
C32   H5    S    
O9    C39   S    
C2    O14   S    
C10   C11   A    
C33   O7    A    
C42   H24   S    
C43   H29   S    
C27   C28   A    
C14   C15   A    
C13   C14   A    
