data_mof_unit_59193.cif
_audit_creation_date              2012-12-10T16:54:33-0500
_audit_creation_method            fapswitch 2.2
_symmetry_space_group_name_H-M    P1
_symmetry_Int_Tables_number       1
_space_group_crystal_system       triclinic
_cell_length_a                    15.046857
_cell_length_b                    10.917943
_cell_length_c                    9.720131
_cell_angle_alpha                 91.454635
_cell_angle_beta                  90.390822
_cell_angle_gamma                 90.61931
_cell_volume                      1596.18212569

loop_
_atom_site_label
_atom_site_type_symbol
_atom_type_description
_atom_site_fract_x
_atom_site_fract_y
_atom_site_fract_z
_atom_type_partial_charge
C1    C     C_R   0.497784 0.265606 0.498385 0.827695
C2    C     C_R   0.905685 0.599338 0.460225 0.118725
C3    C     C_R   0.952452 0.284207 0.576141 -0.203346
C4    C     C_R   0.044630 0.284797 0.575236 -0.214694
C5    C     C_R   0.093164 0.389403 0.536200 0.106175
C6    C     C_R   0.046450 0.495482 0.498348 -0.013055
C7    C     C_R   0.092862 0.603086 0.460350 0.098872
C8    C     C_R   0.043926 0.706500 0.421692 -0.193036
C9    C     C_R   0.951708 0.704349 0.421645 -0.204350
C10   C     C_R   0.186913 0.389796 0.533911 0.078567
C11   C     C_R   0.232661 0.498376 0.498600 -0.065625
C12   C     C_R   0.329234 0.499883 0.499606 0.826551
C13   C     C_R   0.186659 0.605486 0.462767 0.077890
C14   C     C_2   0.509434 0.931837 0.393067 -0.237720
C15   C     C_2   0.519917 0.866886 0.508282 0.119959
C16   C     C_2   0.517856 0.065271 0.391021 -0.187223
C17   C     C_2   0.487969 0.134245 0.495762 -0.318705
C18   C     C_2   0.442882 0.438958 0.919264 -0.073320
C19   C     C_2   0.452235 0.423821 0.072773 0.240721
C20   C     C_R   0.503891 0.734896 0.501936 0.802989
C21   C     C_R   0.670708 0.498467 0.500341 0.823532
C22   C     C_R   0.813261 0.598569 0.461283 -0.290635
C23   C     C_R   0.766728 0.494527 0.501144 -0.110636
C24   C     C_R   0.811653 0.387534 0.537813 0.191563
C25   C     C_R   0.905223 0.387739 0.537445 0.088744
C26   C     C_R   0.952487 0.494107 0.498681 0.031803
Cu1   Cu    Cu3+1 0.500020 0.500020 0.638630 0.939740
Cu2   Cu    Cu3+1 0.499980 0.499980 0.361370 0.931035
H1    H     H_    0.777046 0.679483 0.432112 0.145062
H2    H     H_    0.545795 0.106663 0.300326 0.165240
H3    H     H_    0.455351 0.093660 0.582814 0.180432
H4    H     H_    0.389532 0.389999 0.865120 0.165120
H5    H     H_    0.553716 0.536349 0.896591 0.190868
H6    H     H_    0.525657 0.575237 0.108978 0.173039
H7    H     H_    0.918497 0.201765 0.607903 0.182611
H8    H     H_    0.076910 0.201907 0.606457 0.157933
H9    H     H_    0.075876 0.790463 0.390751 0.154025
H10   H     H_    0.916255 0.785499 0.391675 0.141492
H11   H     H_    0.491343 0.886370 0.296028 0.156235
N1    N     N_2   0.499020 0.498660 0.846910 -0.299883
N2    N     N_2   0.499000 0.498630 0.153040 -0.278333
O1    O     O_R   0.500020 0.321960 0.617040 -0.580801
O2    O     O_R   0.499980 0.321920 0.382900 -0.575647
O3    O     O_R   0.370270 0.499990 0.617090 -0.574230
O4    O     O_R   0.370240 0.499950 0.382940 -0.578537
O5    O     O_R   0.500020 0.678080 0.617100 -0.551438
O6    O     O_R   0.499980 0.678040 0.382960 -0.605863
O7    O     O_R   0.629760 0.500050 0.617060 -0.583655
O8    O     O_R   0.629730 0.500010 0.382910 -0.570503
N3    N     N_2   0.559551 0.919207 0.631076 -0.428695
H12   H     H_    0.603337 0.991782 0.622085 0.265846
C27   C     C_3   0.508665 0.916692 0.757162 -0.653862
H13   H     H_    0.502797 0.010986 0.801569 0.204759
H14   H     H_    0.543584 0.859570 0.832855 0.237727
H15   H     H_    0.440468 0.879084 0.739256 0.228046
C28   C     C_3   0.405334 0.313388 0.128865 -0.736867
H16   H     H_    0.361919 0.267840 0.049684 0.167835
H17   H     H_    0.454930 0.244537 0.158564 0.226111
H18   H     H_    0.361947 0.337927 0.216107 0.258145
N4    N     N_2   0.763460 0.279167 0.571462 -0.447968
H19   H     H_    0.708598 0.293573 0.632409 0.267494
C29   C     C_3   0.744657 0.197824 0.454845 -0.713643
H20   H     H_    0.698394 0.241917 0.382036 0.233257
H21   H     H_    0.713295 0.112150 0.491029 0.226801
H22   H     H_    0.806997 0.173446 0.400522 0.238336
C30   C     C_3   0.237100 0.273568 0.566770 -0.883304
H23   H     H_    0.309889 0.280717 0.554173 0.224810
H24   H     H_    0.224646 0.248646 0.675050 0.230526
H25   H     H_    0.214605 0.197560 0.496374 0.227938
C31   C     C_3   0.236627 0.723145 0.429906 -0.861617
H26   H     H_    0.214918 0.798452 0.500468 0.222396
H27   H     H_    0.309610 0.718041 0.442104 0.227191
H28   H     H_    0.222969 0.747848 0.321743 0.233356

loop_
_geom_bond_atom_site_label_1
_geom_bond_atom_site_label_2
_ccdc_geom_bond_type
C19   C28   S    
C2    C22   A    
C7    C13   A    
C30   H24   S    
C11   C12   S    
C28   H18   S    
Cu2   O6    S    
C6    C7    A    
C12   O4    A    
C22   H1    S    
Cu2   O8    S    
Cu2   N2    S    
Cu2   O2    S    
C1    C17   S    
C27   H15   S    
C3    H7    S    
Cu1   N1    S    
C24   N4    S    
C21   O7    A    
C31   H28   S    
C4    H8    S    
N3    H12   S    
C14   H11   S    
C24   C25   A    
C10   C30   S    
C5    C10   A    
C2    C26   A    
C13   C31   S    
C27   H13   S    
N4    C29   S    
C11   C13   A    
Cu1   O1    S    
H5    N1    S    
C6    C26   A    
H6    N2    S    
N4    H19   S    
C29   H21   S    
Cu1   O5    S    
C21   O8    A    
C9    H10   S    
C28   H17   S    
C30   H23   S    
C21   C23   S    
Cu1   O7    S    
C5    C6    A    
C17   H3    S    
C14   C16   S    
Cu2   O4    S    
C30   H25   S    
C7    C8    A    
C8    H9    S    
C12   O3    A    
C23   C24   A    
C16   H2    S    
C3    C4    A    
C20   O6    A    
C1    O1    A    
C3    C25   A    
C31   H26   S    
C18   H4    S    
C28   H16   S    
C15   C20   S    
C18   C19   S    
C10   C11   A    
C15   N3    S    
N3    C27   S    
C18   N1    D    
C14   C15   D    
C4    C5    A    
C31   H27   S    
C29   H22   S    
C25   C26   A    
C22   C23   A    
C2    C9    A    
Cu1   O3    S    
C1    O2    A    
C20   O5    A    
C29   H20   S    
C19   N2    D    
C16   C17   D    
C27   H14   S    
C8    C9    A    
Cu1   Cu2   S    
