data_mof_unit_62784.cif
_audit_creation_date              2013-03-05T15:55:20-0500
_audit_creation_method            fapswitch 2.2
_symmetry_space_group_name_H-M    P1
_symmetry_Int_Tables_number       1
_space_group_crystal_system       triclinic
_cell_length_a                    36.115976
_cell_length_b                    34.508071
_cell_length_c                    24.962959
_cell_angle_alpha                 89.999848
_cell_angle_beta                  136.297902
_cell_angle_gamma                 89.998688
_cell_volume                      21494.971745

loop_
_atom_site_label
_atom_site_type_symbol
_atom_site_description
_atom_site_fract_x
_atom_site_fract_y
_atom_site_fract_z
_atom_type_partial_charge
Zn1   Zn    Zn3+2 0.063530 0.717220 0.065500 1.113943
Zn2   Zn    Zn3+2 0.936470 0.282780 0.934500 1.100042
Zn3   Zn    Zn3+2 0.936470 0.717220 0.934500 1.113195
Zn4   Zn    Zn3+2 0.063530 0.282780 0.065500 1.099829
Zn5   Zn    Zn3+2 0.563530 0.217220 0.065500 1.113327
Zn6   Zn    Zn3+2 0.436470 0.782780 0.934500 1.100682
Zn7   Zn    Zn3+2 0.436470 0.217220 0.934500 1.113130
Zn8   Zn    Zn3+2 0.563530 0.782780 0.065500 1.099879
Zn9   Zn    Zn3+2 0.001960 0.782720 0.065530 0.977254
Zn10  Zn    Zn3+2 0.998040 0.217280 0.934470 0.984395
Zn11  Zn    Zn3+2 0.998040 0.782720 0.934470 0.977249
Zn12  Zn    Zn3+2 0.001960 0.217280 0.065530 0.985190
Zn13  Zn    Zn3+2 0.501960 0.282720 0.065530 0.977292
Zn14  Zn    Zn3+2 0.498040 0.717280 0.934470 0.984363
Zn15  Zn    Zn3+2 0.498040 0.282720 0.934470 0.977296
Zn16  Zn    Zn3+2 0.501960 0.717280 0.065530 0.985152
O1    O     O_3   0.000000 0.749970 0.000000 -0.528943
O2    O     O_3   0.000000 0.250030 0.000000 -0.527670
O3    O     O_3   0.500000 0.249970 0.000000 -0.528793
O4    O     O_3   0.500000 0.750030 0.000000 -0.527806
O5    O     O_R   0.894890 0.727050 0.954170 -0.607224
O6    O     O_R   0.105110 0.272950 0.045830 -0.610966
O7    O     O_R   0.105110 0.727050 0.045830 -0.606468
O8    O     O_R   0.894890 0.272950 0.954170 -0.610896
O9    O     O_R   0.394890 0.227050 0.954170 -0.607410
O10   O     O_R   0.605110 0.772950 0.045830 -0.610795
O11   O     O_R   0.605110 0.227050 0.045830 -0.607266
O12   O     O_R   0.394890 0.772950 0.954170 -0.610092
O13   O     O_R   0.065880 0.772890 0.174890 -0.653654
O14   O     O_R   0.934120 0.227110 0.825110 -0.644791
O15   O     O_R   0.934120 0.772890 0.825110 -0.653539
O16   O     O_R   0.065880 0.227110 0.174890 -0.644596
O17   O     O_R   0.565880 0.272890 0.174890 -0.653605
O18   O     O_R   0.434120 0.727110 0.825110 -0.644845
O19   O     O_R   0.434120 0.272890 0.825110 -0.653517
O20   O     O_R   0.565880 0.727110 0.174890 -0.644610
O21   O     O_R   0.001370 0.837410 0.045880 -0.651859
O22   O     O_R   0.998630 0.162590 0.954120 -0.650752
O23   O     O_R   0.998630 0.837410 0.954120 -0.651745
O24   O     O_R   0.001370 0.162590 0.045880 -0.652092
O25   O     O_R   0.501370 0.337410 0.045880 -0.651876
O26   O     O_R   0.498630 0.662590 0.954120 -0.650739
O27   O     O_R   0.498630 0.337410 0.954120 -0.651836
O28   O     O_R   0.501370 0.662590 0.045880 -0.652003
O29   O     O_R   0.955530 0.662540 0.954140 -0.585035
O30   O     O_R   0.044470 0.337460 0.045860 -0.587322
O31   O     O_R   0.044470 0.662540 0.045860 -0.584777
O32   O     O_R   0.955530 0.337460 0.954140 -0.587282
O33   O     O_R   0.455530 0.162540 0.954140 -0.585042
O34   O     O_R   0.544470 0.837460 0.045860 -0.587362
O35   O     O_R   0.544470 0.162540 0.045860 -0.584951
O36   O     O_R   0.455530 0.837460 0.954140 -0.587138
O37   O     O_R   0.108980 0.727040 0.174870 -0.594351
O38   O     O_R   0.891020 0.272960 0.825130 -0.608908
O39   O     O_R   0.891020 0.727040 0.825130 -0.594655
O40   O     O_R   0.108980 0.272960 0.174870 -0.608999
O41   O     O_R   0.608980 0.227040 0.174870 -0.594596
O42   O     O_R   0.391020 0.772960 0.825130 -0.608644
O43   O     O_R   0.391020 0.227040 0.825130 -0.594723
O44   O     O_R   0.608980 0.772960 0.174870 -0.608945
O45   O     O_R   0.940740 0.772900 0.045880 -0.635756
O46   O     O_R   0.059260 0.227100 0.954120 -0.632405
O47   O     O_R   0.059260 0.772900 0.954120 -0.635843
O48   O     O_R   0.940740 0.227100 0.045880 -0.632039
O49   O     O_R   0.440740 0.272900 0.045880 -0.635745
O50   O     O_R   0.559260 0.727100 0.954120 -0.632419
O51   O     O_R   0.559260 0.272900 0.954120 -0.635761
O52   O     O_R   0.440740 0.727100 0.045880 -0.632134
C1    C     C_R   0.900452 0.749968 0.000049 0.832308
C2    C     C_R   0.099548 0.250032 0.999952 0.834347
C3    C     C_R   0.099548 0.749966 0.999950 0.831797
C4    C     C_R   0.900451 0.250032 0.000047 0.834203
C5    C     C_R   0.400452 0.249968 0.000049 0.832421
C6    C     C_R   0.599548 0.750032 0.999952 0.834270
C7    C     C_R   0.599549 0.249967 0.999951 0.832342
C8    C     C_R   0.400451 0.750033 0.000048 0.833686
C9    C     C_R   0.105812 0.750170 0.211373 0.875520
C10   C     C_R   0.894405 0.250094 0.788721 0.877811
C11   C     C_R   0.894189 0.750170 0.788628 0.875642
C12   C     C_R   0.105593 0.250094 0.211277 0.877372
C13   C     C_R   0.605812 0.250170 0.211373 0.875614
C14   C     C_R   0.394405 0.750093 0.788721 0.877715
C15   C     C_R   0.394188 0.250170 0.788628 0.875704
C16   C     C_R   0.605593 0.750094 0.211277 0.877309
C17   C     C_R   0.000004 0.855636 0.000006 0.778740
C18   C     C_R   0.999974 0.144372 0.999976 0.778489
C19   C     C_R   0.500004 0.355636 0.000006 0.778752
C20   C     C_R   0.499974 0.644372 0.999976 0.778474
C21   C     C_R   0.000001 0.644283 0.000002 0.982298
C22   C     C_R   0.999999 0.355713 0.999999 0.985553
C23   C     C_R   0.500001 0.144283 0.000001 0.982377
C24   C     C_R   0.499999 0.855714 0.999998 0.985669
C25   C     C_R   0.973006 0.417940 0.012491 0.243418
C26   C     C_R   0.027188 0.582039 0.987843 0.246195
C27   C     C_R   0.026988 0.417939 0.987502 0.243389
C28   C     C_R   0.972816 0.582041 0.012166 0.245723
C29   C     C_R   0.472994 0.917946 0.012469 0.243786
C30   C     C_R   0.527150 0.082040 0.987776 0.245782
C31   C     C_R   0.527002 0.917944 0.987521 0.243345
C32   C     C_R   0.472855 0.082041 0.012231 0.245730
C33   C     C_R   0.999997 0.398031 0.999996 -0.294775
C34   C     C_R   0.000002 0.601961 0.000005 -0.291265
C35   C     C_R   0.499998 0.898032 0.999995 -0.294872
C36   C     C_R   0.500003 0.101961 0.000003 -0.291354
C37   C     C_R   0.024278 0.458890 0.982276 0.009548
C38   C     C_R   0.975642 0.541097 0.017586 0.010374
C39   C     C_R   0.975717 0.458891 0.017718 0.009618
C40   C     C_R   0.024359 0.541096 0.982418 0.010248
C41   C     C_R   0.524255 0.958893 0.982239 0.009699
C42   C     C_R   0.475687 0.041098 0.017655 0.010339
C43   C     C_R   0.475745 0.958894 0.017756 0.009603
C44   C     C_R   0.524319 0.041097 0.982350 0.010382
C45   C     C_R   0.999998 0.479448 0.999999 -0.046126
C46   C     C_R   1.000000 0.520536 0.000001 -0.045671
C47   C     C_R   0.500000 0.979451 0.999999 -0.046267
C48   C     C_R   0.500002 0.020537 0.000002 -0.045623
C49   C     C_R   0.043632 0.479633 0.957529 0.066748
C50   C     C_R   0.956330 0.520373 0.042403 0.067468
C51   C     C_R   0.956363 0.479635 0.042465 0.066712
C52   C     C_R   0.043668 0.520372 0.957599 0.067813
C53   C     C_R   0.543540 0.979632 0.957390 0.066858
C54   C     C_R   0.456430 0.020373 0.042553 0.067492
C55   C     C_R   0.456463 0.979634 0.042611 0.067238
C56   C     C_R   0.543576 0.020371 0.957453 0.067421
C57   C     C_3   0.734761 0.226829 0.944241 0.005571
C58   C     C_3   0.263576 0.775028 0.052428 0.005815
C59   C     C_3   0.265522 0.227177 0.056324 0.005514
C60   C     C_3   0.734815 0.773233 0.944354 0.005706
C61   C     C_3   0.236422 0.724966 0.947565 0.005671
C62   C     C_3   0.765235 0.273165 0.055750 0.005713
C63   C     C_3   0.765185 0.726765 0.055649 0.005536
C64   C     C_3   0.234477 0.272822 0.943676 0.005682
C65   C     C_3   0.202559 0.759987 0.930120 -0.045901
C66   C     C_3   0.796670 0.237630 0.068329 -0.045758
C67   C     C_3   0.796699 0.762286 0.068392 -0.046088
C68   C     C_3   0.203484 0.237212 0.931979 -0.045764
C69   C     C_3   0.703327 0.262364 0.931662 -0.046044
C70   C     C_3   0.297439 0.740008 0.069873 -0.045764
C71   C     C_3   0.296515 0.262786 0.068022 -0.046102
C72   C     C_3   0.703301 0.737712 0.931611 -0.045778
C73   C     C_1   0.138974 0.749882 0.999848 -0.077425
C74   C     C_1   0.861029 0.250116 0.000156 -0.075559
C75   C     C_1   0.861031 0.749883 0.000162 -0.077549
C76   C     C_1   0.138968 0.250116 0.999838 -0.075463
C77   C     C_1   0.638969 0.249881 0.999839 -0.077597
C78   C     C_1   0.361024 0.750115 0.000147 -0.075373
C79   C     C_1   0.361032 0.249883 0.000163 -0.077617
C80   C     C_1   0.638969 0.750116 0.999840 -0.075405
C81   C     C_3   0.246860 0.714408 0.017509 0.284603
C82   C     C_3   0.755602 0.286105 0.987422 0.286235
C83   C     C_3   0.755523 0.713905 0.987263 0.284834
C84   C     C_3   0.243947 0.286183 0.011678 0.286283
C85   C     C_3   0.744395 0.213888 0.012569 0.284842
C86   C     C_3   0.253138 0.785587 0.982484 0.286043
C87   C     C_3   0.256052 0.213816 0.988323 0.284901
C88   C     C_3   0.744477 0.786092 0.012740 0.286210
C89   C     C_3   0.212643 0.749453 0.000035 -0.029170
C90   C     C_3   0.787389 0.250545 0.000027 -0.029460
C91   C     C_3   0.787390 0.749451 0.000032 -0.029139
C92   C     C_3   0.212602 0.250548 0.999955 -0.029457
C93   C     C_3   0.712608 0.249448 0.999964 -0.029150
C94   C     C_3   0.287355 0.750542 0.999958 -0.029507
C95   C     C_3   0.287397 0.249451 0.000045 -0.029135
C96   C     C_3   0.712610 0.750546 0.999971 -0.029466
C97   C     C_1   0.172211 0.749715 0.999877 0.086895
C98   C     C_1   0.827802 0.250283 0.000148 0.087942
C99   C     C_1   0.827805 0.749715 0.000154 0.086763
C100  C     C_1   0.172192 0.250284 0.999841 0.087935
C101  C     C_1   0.672195 0.249712 0.999845 0.086747
C102  C     C_1   0.327787 0.750281 0.000117 0.088122
C103  C     C_1   0.327808 0.249715 0.000160 0.086722
C104  C     C_1   0.672196 0.750283 0.999849 0.087981
C105  C     C_R   0.682759 0.717866 0.335037 -0.003460
C106  C     C_R   0.322955 0.284295 0.664148 -0.001630
C107  C     C_R   0.317312 0.717824 0.664964 -0.002528
C108  C     C_R   0.676975 0.284311 0.335854 -0.001504
C109  C     C_R   0.182761 0.217867 0.335038 -0.003504
C110  C     C_R   0.822958 0.784296 0.664148 -0.001589
C111  C     C_R   0.817311 0.217824 0.664964 -0.002661
C112  C     C_R   0.176975 0.784311 0.335854 -0.001405
C113  C     C_R   0.648526 0.749922 0.295782 -0.147341
C114  C     C_R   0.352302 0.250318 0.703921 -0.149310
C115  C     C_R   0.351466 0.749919 0.704215 -0.147279
C116  C     C_R   0.647693 0.250315 0.296080 -0.149361
C117  C     C_R   0.148525 0.249922 0.295782 -0.147367
C118  C     C_R   0.852302 0.750318 0.703921 -0.149276
C119  C     C_R   0.851466 0.249919 0.704215 -0.147410
C120  C     C_R   0.147693 0.750315 0.296080 -0.149220
C121  C     C_R   0.655469 0.782416 0.335554 0.241305
C122  C     C_R   0.343068 0.216715 0.664456 0.242866
C123  C     C_R   0.344430 0.782451 0.664436 0.241071
C124  C     C_R   0.656979 0.216694 0.335547 0.242850
C125  C     C_R   0.155466 0.282415 0.335554 0.241161
C126  C     C_R   0.843065 0.716714 0.664456 0.242904
C127  C     C_R   0.844431 0.282451 0.664436 0.240933
C128  C     C_R   0.156980 0.716693 0.335547 0.242898
C129  C     C_R   0.699651 0.784357 0.417179 -0.069703
C130  C     C_R   0.305492 0.217146 0.582549 -0.073556
C131  C     C_R   0.300237 0.784385 0.582814 -0.069495
C132  C     C_R   0.694552 0.217116 0.417454 -0.073744
C133  C     C_R   0.199648 0.284357 0.417179 -0.069712
C134  C     C_R   0.805489 0.717144 0.582549 -0.073552
C135  C     C_R   0.800237 0.284385 0.582814 -0.069563
C136  C     C_R   0.194552 0.717116 0.417454 -0.073690
C137  C     C_R   0.732755 0.750972 0.458514 -0.029353
C138  C     C_R   0.273848 0.251102 0.541069 -0.028943
C139  C     C_R   0.267215 0.750968 0.541485 -0.029500
C140  C     C_R   0.726122 0.251097 0.458931 -0.028992
C141  C     C_R   0.232754 0.250972 0.458514 -0.029354
C142  C     C_R   0.773849 0.751102 0.541069 -0.028928
C143  C     C_R   0.767215 0.250968 0.541485 -0.029550
C144  C     C_R   0.226122 0.751097 0.458930 -0.028927
C145  C     C_R   0.724705 0.717508 0.417314 0.058889
C146  C     C_R   0.283259 0.285212 0.582038 0.057926
C147  C     C_R   0.275348 0.717471 0.582688 0.058384
C148  C     C_R   0.716640 0.285232 0.417959 0.058001
C149  C     C_R   0.224707 0.217510 0.417315 0.058869
C150  C     C_R   0.783262 0.785213 0.582038 0.057943
C151  C     C_R   0.775348 0.217472 0.582688 0.058345
C152  C     C_R   0.216640 0.785232 0.417959 0.058028
C153  C     C_R   0.712842 0.818975 0.458674 0.095082
C154  C     C_R   0.299520 0.185273 0.540730 0.092813
C155  C     C_R   0.286955 0.819023 0.541316 0.095130
C156  C     C_R   0.700592 0.185211 0.459278 0.092674
C157  C     C_R   0.212835 0.318973 0.458674 0.095035
C158  C     C_R   0.799514 0.685270 0.540730 0.092864
C159  C     C_R   0.786956 0.319023 0.541316 0.095064
C160  C     C_R   0.200593 0.685210 0.459277 0.092724
C161  C     C_R   0.753602 0.819416 0.539321 0.123094
C162  C     C_R   0.259685 0.185244 0.459999 0.122397
C163  C     C_R   0.246200 0.819461 0.460669 0.123321
C164  C     C_R   0.740436 0.185177 0.540009 0.123317
C165  C     C_R   0.253595 0.319415 0.539321 0.123085
C166  C     C_R   0.759679 0.685241 0.459999 0.122421
C167  C     C_R   0.746201 0.319461 0.460669 0.123272
C168  C     C_R   0.240436 0.685177 0.540009 0.123414
C169  C     C_R   0.954776 0.082310 0.932898 0.034904
C170  C     C_R   0.044067 0.917928 0.066878 0.057401
C171  C     C_R   0.044081 0.082113 0.066399 0.052847
C172  C     C_R   0.955327 0.917767 0.932845 0.053518
C173  C     C_R   0.454776 0.582310 0.932898 0.034924
C174  C     C_R   0.544067 0.417927 0.066878 0.057380
C175  C     C_R   0.544082 0.582113 0.066399 0.052899
C176  C     C_R   0.455327 0.417767 0.932845 0.053465
C177  C     C_R   0.999648 0.102078 0.999693 -0.101776
C178  C     C_R   0.999825 0.897932 0.999869 -0.123296
C179  C     C_R   0.499648 0.602078 0.999693 -0.101719
C180  C     C_R   0.499825 0.397932 0.999869 -0.123358
C181  C     C_R   0.043233 0.041186 0.068378 0.105653
C182  C     C_R   0.955482 0.958763 0.931125 0.084956
C183  C     C_R   0.954849 0.041242 0.930737 0.075851
C184  C     C_R   0.043333 0.958913 0.068671 0.105747
C185  C     C_R   0.543234 0.541186 0.068377 0.105681
C186  C     C_R   0.455482 0.458763 0.931125 0.084931
C187  C     C_R   0.454849 0.541242 0.930737 0.075825
C188  C     C_R   0.543334 0.458914 0.068670 0.105774
C189  C     C_R   0.999087 0.020634 0.999618 -0.072096
C190  C     C_R   0.999281 0.979451 0.999814 -0.088857
C191  C     C_R   0.499088 0.520634 0.999618 -0.072098
C192  C     C_R   0.499281 0.479451 0.999814 -0.088861
C193  C     C_R   0.085223 0.020434 0.137591 0.061317
C194  C     C_R   0.913122 0.979494 0.862321 0.113590
C195  C     C_R   0.912518 0.019999 0.861929 0.050049
C196  C     C_R   0.085267 0.979743 0.137737 0.061389
C197  C     C_R   0.585225 0.520434 0.137590 0.061353
C198  C     C_R   0.413123 0.479494 0.862321 0.113538
C199  C     C_R   0.412518 0.519999 0.861929 0.050011
C200  C     C_R   0.585269 0.479743 0.137737 0.061427
N1    N     N_R   0.942767 0.396021 0.019312 0.230641
O53   O     O_R   0.890650 0.396602 0.963289 -0.316978
O54   O     O_R   0.967085 0.372818 0.077889 -0.341577
N2    N     N_R   0.057791 0.603916 0.981644 0.230377
O55   O     O_R   0.033846 0.627332 0.923472 -0.346705
O56   O     O_R   0.109894 0.602946 0.037716 -0.311078
N3    N     N_R   0.057227 0.396019 0.980681 0.230689
O57   O     O_R   0.109344 0.396600 0.036701 -0.316954
O58   O     O_R   0.032910 0.372816 0.922106 -0.341554
N4    N     N_R   0.942215 0.603920 0.018370 0.230680
O59   O     O_R   0.966162 0.627334 0.076542 -0.345414
O60   O     O_R   0.890113 0.602952 0.962301 -0.311568
N5    N     N_R   0.442677 0.896041 0.019164 0.230483
O61   O     O_R   0.390562 0.896787 0.963217 -0.316587
O62   O     O_R   0.466901 0.872736 0.077574 -0.342944
N6    N     N_R   0.557721 0.103917 0.981515 0.230649
O63   O     O_R   0.533751 0.127344 0.923351 -0.345414
O64   O     O_R   0.609825 0.102929 0.037524 -0.311487
N7    N     N_R   0.557314 0.896037 0.980818 0.230774
O65   O     O_R   0.609429 0.896777 0.036761 -0.316913
O66   O     O_R   0.533085 0.872735 0.922403 -0.341889
N8    N     N_R   0.442284 0.103919 0.018493 0.230704
O67   O     O_R   0.466255 0.127346 0.076655 -0.345166
O68   O     O_R   0.390181 0.102932 0.962485 -0.311656
N9    N     N_3   0.908604 0.104323 0.868569 -0.486890
H1    H     H_    0.896147 0.121808 0.887414 0.182448
H2    H     H_    0.918633 0.121791 0.846385 0.203793
N10   N     N_3   0.090554 0.896405 0.132132 -0.424105
H3    H     H_    0.080434 0.878915 0.154163 0.205743
H4    H     H_    0.103634 0.878960 0.114149 0.174679
N11   N     N_3   0.090899 0.103612 0.131139 -0.424988
H5    H     H_    0.103620 0.120846 0.112416 0.174030
H6    H     H_    0.081338 0.121321 0.153707 0.206473
N12   N     N_3   0.909243 0.896053 0.867393 -0.427223
H7    H     H_    0.919793 0.878952 0.845553 0.206289
H8    H     H_    0.896247 0.878218 0.885080 0.175614
N13   N     N_3   0.408603 0.604323 0.868571 -0.486980
H9    H     H_    0.396146 0.621807 0.887417 0.182282
H10   H     H_    0.418631 0.621792 0.846386 0.203824
N14   N     N_3   0.590554 0.396404 0.132133 -0.423999
H11   H     H_    0.580433 0.378915 0.154163 0.205704
H12   H     H_    0.603634 0.378959 0.114151 0.174849
N15   N     N_3   0.590900 0.603612 0.131138 -0.424985
H13   H     H_    0.603621 0.620846 0.112413 0.174003
H14   H     H_    0.581340 0.621321 0.153706 0.206519
N16   N     N_3   0.409244 0.396053 0.867392 -0.427224
H15   H     H_    0.419793 0.378952 0.845553 0.206238
H16   H     H_    0.396248 0.378218 0.885079 0.175641
N17   N     N_3   0.127456 0.040660 0.209228 -0.428630
H17   H     H_    0.164357 0.033262 0.230880 0.195310
H18   H     H_    0.127127 0.033139 0.249428 0.189568
N18   N     N_3   0.870376 0.959519 0.790609 -0.420030
H19   H     H_    0.869880 0.967986 0.749867 0.208794
H20   H     H_    0.833942 0.967280 0.770218 0.212568
N19   N     N_3   0.868433 0.038190 0.788631 -0.470982
H21   H     H_    0.844217 0.052860 0.790772 0.225468
H22   H     H_    0.882632 0.056276 0.773043 0.216925
N20   N     N_3   0.127616 0.959617 0.209457 -0.428880
H23   H     H_    0.127362 0.967198 0.249714 0.189151
H24   H     H_    0.164457 0.967038 0.230938 0.195364
N21   N     N_3   0.627459 0.540660 0.209227 -0.428611
H25   H     H_    0.664359 0.533262 0.230877 0.195337
H26   H     H_    0.627131 0.533140 0.249428 0.189605
N22   N     N_3   0.370377 0.459519 0.790609 -0.420049
H27   H     H_    0.369881 0.467987 0.749867 0.208761
H28   H     H_    0.333943 0.467280 0.770217 0.212534
N23   N     N_3   0.368434 0.538190 0.788630 -0.471022
H29   H     H_    0.344218 0.552860 0.790771 0.225304
H30   H     H_    0.382634 0.556277 0.773044 0.216952
N24   N     N_3   0.627618 0.459617 0.209456 -0.428828
H31   H     H_    0.627365 0.467198 0.249714 0.189123
H32   H     H_    0.664459 0.467038 0.230936 0.195502
N25   N     N_3   0.060809 0.459384 0.928203 -0.367163
H33   H     H_    0.036206 0.467003 0.870282 0.197716
H34   H     H_    0.100473 0.466822 0.961047 0.224104
N26   N     N_3   0.939199 0.540651 0.071772 -0.368727
H35   H     H_    0.899558 0.533193 0.039027 0.224191
H36   H     H_    0.963861 0.533072 0.129728 0.196941
N27   N     N_3   0.939181 0.459385 0.071785 -0.367184
H37   H     H_    0.963783 0.467002 0.129707 0.197960
H38   H     H_    0.899517 0.466828 0.038940 0.224076
N28   N     N_3   0.060802 0.540649 0.928232 -0.369464
H39   H     H_    0.100441 0.533187 0.960975 0.223853
H40   H     H_    0.036138 0.533073 0.870274 0.196451
N29   N     N_3   0.560617 0.959376 0.927927 -0.367279
H41   H     H_    0.535947 0.966996 0.869987 0.197686
H42   H     H_    0.600263 0.966815 0.960666 0.224184
N30   N     N_3   0.439361 0.040649 0.072011 -0.368649
H43   H     H_    0.399733 0.033189 0.039331 0.224226
H44   H     H_    0.464066 0.033068 0.129978 0.196834
N31   N     N_3   0.439386 0.959378 0.072074 -0.367910
H45   H     H_    0.464058 0.966994 0.130016 0.197534
H46   H     H_    0.399742 0.966820 0.039338 0.223800
N32   N     N_3   0.560649 0.040648 0.928001 -0.368771
H47   H     H_    0.600277 0.033184 0.960684 0.224251
H48   H     H_    0.535945 0.033069 0.870034 0.196740
N33   N     N_3   0.150799 0.770428 0.853261 -0.419241
H49   H     H_    0.157234 0.777961 0.819960 0.209683
H50   H     H_    0.137769 0.795468 0.859234 0.233211
N34   N     N_3   0.847624 0.224571 0.143565 -0.412386
H51   H     H_    0.840632 0.215904 0.175747 0.212511
H52   H     H_    0.858939 0.199800 0.134151 0.234410
N35   N     N_3   0.847680 0.775257 0.143688 -0.419514
H53   H     H_    0.840707 0.783884 0.175910 0.210279
H54   H     H_    0.859050 0.800041 0.134389 0.233073
N36   N     N_3   0.152696 0.223690 0.857072 -0.412598
H55   H     H_    0.159798 0.214827 0.825108 0.212608
H56   H     H_    0.141689 0.198980 0.867099 0.234289
N37   N     N_3   0.652374 0.275423 0.856425 -0.419558
H57   H     H_    0.659366 0.284089 0.824243 0.210230
H58   H     H_    0.641059 0.300194 0.865839 0.233067
N38   N     N_3   0.349199 0.729567 0.146732 -0.411820
H59   H     H_    0.342764 0.722032 0.180032 0.212041
H60   H     H_    0.362230 0.704528 0.140758 0.234804
N39   N     N_3   0.347302 0.276309 0.142929 -0.419624
H61   H     H_    0.340201 0.285171 0.174893 0.210370
H62   H     H_    0.358308 0.301020 0.132902 0.233026
N40   N     N_3   0.652320 0.724741 0.856315 -0.412437
H63   H     H_    0.659293 0.716113 0.824094 0.212527
H64   H     H_    0.640949 0.699958 0.865614 0.234381
N41   N     N_3   0.717823 0.201310 0.883283 -0.398382
H65   H     H_    0.679939 0.190652 0.853715 0.227616
H66   H     H_    0.712951 0.218424 0.843998 0.190191
N42   N     N_3   0.278687 0.802585 0.109727 -0.395924
H67   H     H_    0.315802 0.814236 0.137750 0.230728
H68   H     H_    0.284696 0.786863 0.151282 0.192269
N43   N     N_3   0.282775 0.202036 0.117910 -0.398137
H69   H     H_    0.320791 0.191561 0.147739 0.227553
H70   H     H_    0.287433 0.219391 0.156768 0.190450
N44   N     N_3   0.717934 0.798823 0.883513 -0.396066
H71   H     H_    0.680075 0.809517 0.853999 0.230552
H72   H     H_    0.713020 0.781755 0.844146 0.192961
N45   N     N_3   0.221312 0.697410 0.890266 -0.397964
H73   H     H_    0.184196 0.685760 0.862238 0.227992
H74   H     H_    0.215307 0.713131 0.848715 0.189575
N46   N     N_3   0.782174 0.298684 0.116708 -0.396132
H75   H     H_    0.820057 0.309343 0.146271 0.230563
H76   H     H_    0.787051 0.281569 0.155997 0.192950
N47   N     N_3   0.782065 0.701175 0.116489 -0.398004
H77   H     H_    0.819926 0.690482 0.146007 0.227667
H78   H     H_    0.786976 0.718242 0.155853 0.190326
N48   N     N_3   0.217223 0.297963 0.882090 -0.396154
H79   H     H_    0.179209 0.308440 0.852265 0.230482
H80   H     H_    0.212562 0.280608 0.843229 0.193104
N49   N     N_R   0.760471 0.325933 0.973790 0.219851
O69   O     O_R   0.731467 0.353015 0.965155 -0.353910
O70   O     O_R   0.793845 0.334685 0.970575 -0.330780
N50   N     N_R   0.244709 0.675144 0.036586 0.219905
O71   O     O_R   0.275572 0.648423 0.048947 -0.352683
O72   O     O_R   0.211913 0.666521 0.040960 -0.330569
N51   N     N_R   0.238582 0.326091 0.024322 0.219854
O73   O     O_R   0.267248 0.353225 0.032284 -0.354058
O74   O     O_R   0.205101 0.334863 0.027323 -0.330633
N52   N     N_R   0.760304 0.674094 0.973449 0.219855
O75   O     O_R   0.731240 0.647022 0.964689 -0.353291
O76   O     O_R   0.793659 0.665346 0.970194 -0.330144
N53   N     N_R   0.255289 0.824851 0.963407 0.219826
O77   O     O_R   0.224427 0.851572 0.951047 -0.353433
O78   O     O_R   0.288086 0.833473 0.959034 -0.331763
N54   N     N_R   0.739527 0.174061 0.026201 0.219842
O79   O     O_R   0.768530 0.146979 0.034836 -0.353461
O80   O     O_R   0.706153 0.165308 0.029418 -0.330134
N55   N     N_R   0.739696 0.825904 0.026553 0.219865
O81   O     O_R   0.768759 0.852976 0.035313 -0.353856
O82   O     O_R   0.706339 0.834652 0.029806 -0.330757
N56   N     N_R   0.261416 0.173908 0.975678 0.219832
O83   O     O_R   0.232751 0.146774 0.967716 -0.353511
O84   O     O_R   0.294896 0.165136 0.972673 -0.330102
N57   N     N_3   0.674363 0.685894 0.290361 -0.487605
H81   H     H_    0.636648 0.673835 0.258178 0.206375
H82   H     H_    0.676111 0.695823 0.252645 0.173961
N58   N     N_3   0.331888 0.317063 0.707869 -0.486278
H83   H     H_    0.326993 0.308692 0.742717 0.177344
H84   H     H_    0.370779 0.327432 0.742738 0.207712
N59   N     N_3   0.325815 0.685801 0.709640 -0.490756
H85   H     H_    0.363542 0.673790 0.741743 0.204422
H86   H     H_    0.324096 0.695659 0.747422 0.173824
N60   N     N_3   0.668024 0.317094 0.292146 -0.486322
H87   H     H_    0.672952 0.308749 0.257324 0.177251
H88   H     H_    0.629121 0.327443 0.257252 0.207728
N61   N     N_3   0.174367 0.185896 0.290361 -0.487605
H89   H     H_    0.136652 0.173836 0.258178 0.206334
H90   H     H_    0.176113 0.195826 0.252645 0.173973
N62   N     N_3   0.831892 0.817065 0.707868 -0.486278
H91   H     H_    0.826997 0.808695 0.742716 0.177328
H92   H     H_    0.870784 0.827432 0.742737 0.207763
N63   N     N_3   0.825813 0.185802 0.709640 -0.490688
H93   H     H_    0.863540 0.173791 0.741744 0.204421
H94   H     H_    0.824095 0.195660 0.747422 0.173883
N64   N     N_3   0.168024 0.817094 0.292146 -0.486383
H95   H     H_    0.172952 0.808750 0.257325 0.177181
H96   H     H_    0.129120 0.827443 0.257252 0.207742
N65   N     N_R   0.613769 0.811071 0.292590 0.171847
O85   O     O_R   0.607877 0.834690 0.246209 -0.370568
O86   O     O_R   0.576364 0.808962 0.289650 -0.367011
N66   N     N_R   0.370628 0.182023 0.708925 0.177122
O87   O     O_R   0.422097 0.179203 0.755231 -0.384681
O88   O     O_R   0.347097 0.157884 0.716722 -0.355045
N67   N     N_R   0.386063 0.811156 0.707384 0.171881
O89   O     O_R   0.391896 0.834749 0.753740 -0.370438
O90   O     O_R   0.423463 0.809135 0.710303 -0.366737
N68   N     N_R   0.629472 0.181993 0.291078 0.177125
O91   O     O_R   0.578010 0.179125 0.244787 -0.384564
O92   O     O_R   0.653034 0.157906 0.283261 -0.354751
N69   N     N_R   0.113765 0.311070 0.292587 0.171888
O93   O     O_R   0.107875 0.334690 0.246210 -0.370443
O94   O     O_R   0.076356 0.308957 0.289640 -0.366478
N70   N     N_R   0.870623 0.682021 0.708925 0.177129
O95   O     O_R   0.922092 0.679198 0.755231 -0.385113
O96   O     O_R   0.847091 0.657885 0.716724 -0.354943
N71   N     N_R   0.886064 0.311156 0.707384 0.171939
O97   O     O_R   0.891897 0.334749 0.753740 -0.370544
O98   O     O_R   0.923464 0.309134 0.710304 -0.366588
N72   N     N_R   0.129474 0.681993 0.291078 0.177099
O99   O     O_R   0.078011 0.679123 0.244786 -0.384729
O100  O     O_R   0.153037 0.657906 0.283263 -0.354244
N73   N     N_3   0.688577 0.855712 0.421175 -0.407124
H97   H     H_    0.690328 0.861026 0.381842 0.236087
H98   H     H_    0.649538 0.856780 0.395246 0.256396
N74   N     N_3   0.335451 0.152739 0.577767 -0.409474
H99   H     H_    0.375087 0.162230 0.616143 0.236148
H100  H     H_    0.328968 0.135157 0.604356 0.254903
N75   N     N_3   0.311115 0.855777 0.578809 -0.407839
H101  H     H_    0.309348 0.861027 0.618141 0.236057
H102  H     H_    0.350151 0.856924 0.604739 0.256299
N76   N     N_3   0.664728 0.152640 0.422247 -0.408904
H103  H     H_    0.625073 0.162087 0.383878 0.236150
H104  H     H_    0.671241 0.135101 0.395653 0.255192
N77   N     N_3   0.188565 0.355709 0.421176 -0.407075
H105  H     H_    0.190317 0.361028 0.381844 0.236060
H106  H     H_    0.149525 0.356774 0.395245 0.256497
N78   N     N_3   0.835441 0.652733 0.577766 -0.409578
H107  H     H_    0.875078 0.662221 0.616142 0.236013
H108  H     H_    0.828956 0.635154 0.604355 0.254898
N79   N     N_3   0.811117 0.355776 0.578809 -0.407879
H109  H     H_    0.809350 0.361027 0.618141 0.235898
H110  H     H_    0.850153 0.356923 0.604739 0.256356
N80   N     N_3   0.164728 0.652639 0.422247 -0.408924
H111  H     H_    0.125073 0.662086 0.383877 0.236119
H112  H     H_    0.171242 0.635101 0.395653 0.255239
N81   N     N_3   0.764220 0.856237 0.575156 -0.420985
H113  H     H_    0.804082 0.864309 0.610440 0.213758
H114  H     H_    0.754155 0.855312 0.605238 0.222210
N82   N     N_3   0.256742 0.151134 0.424026 -0.421854
H115  H     H_    0.263715 0.158308 0.391246 0.218248
H116  H     H_    0.220014 0.137176 0.391302 0.217739
N83   N     N_3   0.235469 0.856303 0.424825 -0.422160
H117  H     H_    0.195571 0.864290 0.389494 0.213230
H118  H     H_    0.245572 0.855467 0.394790 0.221836
N84   N     N_3   0.743449 0.151036 0.575988 -0.421878
H119  H     H_    0.736490 0.158163 0.608801 0.217314
H120  H     H_    0.780193 0.137108 0.608680 0.215210
N85   N     N_3   0.264207 0.356234 0.575156 -0.420968
H121  H     H_    0.304068 0.364310 0.610439 0.213698
H122  H     H_    0.254144 0.355305 0.605239 0.222250
N86   N     N_3   0.756732 0.651129 0.424025 -0.421889
H123  H     H_    0.763707 0.658300 0.391247 0.218212
H124  H     H_    0.720002 0.637173 0.391300 0.217771
N87   N     N_3   0.735471 0.356303 0.424825 -0.422146
H125  H     H_    0.695573 0.364291 0.389495 0.213178
H126  H     H_    0.745574 0.355466 0.394790 0.221953
N88   N     N_3   0.243450 0.651035 0.575988 -0.421937
H127  H     H_    0.236491 0.658162 0.608802 0.217187
H128  H     H_    0.280194 0.637107 0.608680 0.215224

loop_
_geom_bond_atom_site_label_1
_geom_bond_atom_site_label_2
_geom_bond_distance
_ccdc_geom_bond_type
C31   C35   1.399775 A    
C28   C34   1.399894 A    
C171  C181  1.414278 A    
Zn8   O10   1.917656 S    
N53   O77   1.300210 A    
Zn6   O42   1.945119 S    
C63   C83   1.540025 S    
C151  C164  1.422883 A    
N70   O96   1.301218 A    
C184  C190  1.426148 A    
N57   H81   1.044868 S    
C51   N27   1.437270 S    
C122  C130  1.417916 A    
C111  N63   1.436659 S    
N6    O63   1.301432 A    
C44   C56   1.416492 A    
O42   C14   1.274481 A    
Zn4   O30   1.945911 S    
C127  C135  1.414689 A    
C71   C84   1.540620 S    
C32   C36   1.399903 A    
C125  C133  1.414716 A    
O46   C2    1.282738 A    
N88   H127  1.045115 S    
O24   C18   1.275669 A    
C40   C52   1.416477 A    
C39   C45   1.424359 A    
N72   O100  1.301217 A    
C50   N26   1.437304 S    
N32   H48   1.044822 S    
C4    C74   1.425730 S    
C129  C137  1.427438 A    
N71   O97   1.301456 A    
C57   C85   1.540024 S    
N2    O55   1.301432 A    
N61   H90   1.045825 S    
N7    O66   1.301440 A    
N20   H23   1.044853 S    
C128  C136  1.417926 A    
Zn16  O28   1.946188 S    
Zn4   O2    1.947033 S    
C138  C146  1.429826 A    
C188  C200  1.416878 A    
C8    C78   1.425733 S    
N49   O70   1.300170 A    
C176  C186  1.415499 A    
Zn4   O40   1.945103 S    
N75   H102  1.043403 S    
C62   C66   1.541318 S    
O33   C23   1.276127 A    
O11   C7    1.282488 A    
C85   N54   1.456759 S    
Zn7   O43   1.945104 S    
N34   H51   1.044944 S    
N29   H42   1.044990 S    
N29   H41   1.044823 S    
C168  N88   1.437088 S    
N79   H110  1.043405 S    
O25   C19   1.275799 A    
C84   N51   1.456760 S    
C67   C91   1.546527 S    
C159  N79   1.437076 S    
N19   H21   1.044779 S    
N46   H76   1.044960 S    
C79   C103  1.199884 T    
N42   H68   1.044971 S    
C25   C33   1.399701 A    
N23   H30   1.045215 S    
C57   C90   1.547486 S    
C144  C152  1.429810 A    
N16   H15   1.044480 S    
C165  N85   1.437263 S    
C85   C93   1.549340 S    
Zn12  O24   1.946188 S    
N40   H64   1.044846 S    
C150  C161  1.423382 A    
Zn13  O17   1.945445 S    
O16   C12   1.275784 A    
N74   H100  1.043150 S    
Zn10  O14   1.945445 S    
Zn16  O4    1.946972 S    
N82   H115  1.045114 S    
C136  C144  1.428370 A    
C200  N24   1.437937 S    
C70   C94   1.546522 S    
N46   H75   1.044979 S    
C29   C35   1.399770 A    
C164  N84   1.437086 S    
C61   C65   1.541321 S    
C58   C86   1.540030 S    
N10   H3    1.044475 S    
N67   O90   1.300909 A    
O47   C3    1.282725 A    
C174  N14   1.438567 S    
N1    O54   1.301451 A    
N41   H65   1.044977 S    
C64   C84   1.540023 S    
C146  C165  1.423380 A    
O23   C17   1.275896 A    
C153  N73   1.437080 S    
N39   H61   1.044942 S    
C42   C48   1.424186 A    
C55   N31   1.437272 S    
C107  C115  1.400288 A    
C121  C129  1.414711 A    
C108  C116  1.400812 A    
C186  C198  1.415249 A    
N60   H88   1.044429 S    
C170  C184  1.415909 A    
C173  C179  1.401757 A    
C61   N45   1.455795 S    
C109  C149  1.419416 A    
C71   N39   1.455875 S    
N84   H119  1.045115 S    
C175  C185  1.414281 A    
Zn10  O22   1.946184 S    
C54   N30   1.437296 S    
N50   O71   1.300209 A    
N69   O93   1.301455 A    
C64   C95   1.547488 S    
C141  C149  1.429495 A    
N33   H49   1.044961 S    
C69   C93   1.546531 S    
C41   C53   1.416628 A    
C59   N43   1.455788 S    
C63   C96   1.547486 S    
Zn10  O2    1.946979 S    
N74   H99   1.044700 S    
C91   C99   1.457430 S    
Zn3   O1    1.947037 S    
Zn8   O34   1.945911 S    
C160  N80   1.436794 S    
C124  C132  1.417926 A    
N28   H39   1.044983 S    
N59   H86   1.045826 S    
C60   C88   1.540022 S    
C62   N46   1.455789 S    
N23   H29   1.044778 S    
C110  C118  1.400796 A    
C25   N1    1.436192 S    
C26   C34   1.399891 A    
N31   H45   1.044824 S    
N63   H94   1.045824 S    
C148  C167  1.423369 A    
Zn5   O35   1.945944 S    
C126  N70   1.434787 S    
C114  C122  1.396914 A    
N19   H22   1.045212 S    
N80   H112  1.043148 S    
C59   C71   1.541317 S    
C42   C54   1.416488 A    
C86   N53   1.456757 S    
C183  C195  1.424152 A    
N38   H59   1.044959 S    
C126  C134  1.417917 A    
C172  N12   1.438506 S    
C133  C157  1.418962 A    
C108  N60   1.436948 S    
N51   O73   1.300205 A    
C106  C114  1.400796 A    
N45   H73   1.044980 S    
C27   N3    1.436192 S    
N55   O82   1.300171 A    
N65   O85   1.301457 A    
C199  N23   1.436926 S    
N9    H1    1.045820 S    
C72   N40   1.455880 S    
O22   C18   1.275765 A    
Zn9   O45   1.917275 S    
C37   C45   1.424360 A    
C82   N49   1.456760 S    
C129  C153  1.418961 A    
Zn12  O48   1.917256 S    
C66   C85   1.540621 S    
N32   H47   1.044986 S    
C47   C48   1.417816 A    
O50   C6    1.282738 A    
N78   H107  1.044701 S    
C189  C190  1.421150 A    
C57   N41   1.455794 S    
Zn1   O37   1.945119 S    
N36   H55   1.044941 S    
C182  C194  1.415250 A    
Zn5   O11   1.917668 S    
Zn3   O39   1.945104 S    
Zn6   O12   1.917668 S    
N13   H10   1.044627 S    
C62   C82   1.540023 S    
C32   N8    1.436288 S    
C67   N35   1.455878 S    
C3    C73   1.425750 S    
C93   C101  1.457426 S    
C92   C100  1.457421 S    
C196  N20   1.437937 S    
Zn15  O51   1.917262 S    
O32   C22   1.276063 A    
N21   H26   1.044857 S    
C135  C143  1.427430 A    
C197  N21   1.437987 S    
C133  C141  1.427442 A    
N14   H12   1.045792 S    
C161  N81   1.437264 S    
N25   H34   1.044995 S    
C70   C81   1.540625 S    
N76   H104  1.043149 S    
C30   C44   1.415969 A    
N64   H95   1.045871 S    
C65   C86   1.540623 S    
N22   H27   1.045833 S    
C89   C97   1.457431 S    
C68   C87   1.540618 S    
N68   O91   1.301613 A    
N66   O87   1.301613 A    
C52   N28   1.437300 S    
C87   C95   1.549337 S    
C60   N44   1.455787 S    
C174  C180  1.400995 A    
C67   C88   1.540619 S    
O5    C1    1.282508 A    
N77   H106  1.043405 S    
N18   H20   1.045848 S    
C125  N69   1.435516 S    
C61   C81   1.540036 S    
N73   H97   1.044775 S    
C29   N5    1.436252 S    
C149  C162  1.422876 A    
C74   C98   1.199879 T    
Zn4   O6    1.917656 S    
C63   N47   1.455790 S    
N55   O81   1.300207 A    
C64   C68   1.541315 S    
C26   N2    1.436282 S    
N30   H44   1.044825 S    
N85   H122  1.044843 S    
C75   C99   1.199884 T    
N48   H79   1.044978 S    
C66   C90   1.546525 S    
N86   H124  1.045061 S    
N72   O99   1.301614 A    
C18   C177  1.459498 S    
N24   H32   1.044948 S    
N15   H14   1.044633 S    
N66   O88   1.301210 A    
N52   O75   1.300206 A    
N44   H72   1.044963 S    
C69   C82   1.540620 S    
C96   C104  1.457419 S    
O51   C7    1.282721 A    
N83   H117  1.045286 S    
C44   C48   1.424184 A    
C95   C103  1.457430 S    
N54   O79   1.300210 A    
O8    C4    1.282484 A    
C58   C89   1.547491 S    
Zn9   O1    1.946979 S    
C152  C163  1.423367 A    
C118  C126  1.396917 A    
C147  C168  1.422882 A    
N62   H91   1.045871 S    
Zn14  O18   1.945445 S    
C193  C196  1.404150 A    
N79   H109  1.044775 S    
C194  C195  1.397819 A    
O52   C8    1.282721 A    
C143  C151  1.429482 A    
C73   C97   1.199879 T    
O40   C12   1.274488 A    
Zn6   O36   1.945944 S    
N6    O64   1.301126 A    
C60   C72   1.541315 S    
Zn15  O27   1.946188 S    
N12   H8    1.045789 S    
Zn16  O20   1.945466 S    
C17   C178  1.459585 S    
C187  C199  1.424156 A    
C137  C142  1.423855 A    
C188  C192  1.426150 A    
C124  N68   1.434783 S    
O9    C5    1.282508 A    
N47   H78   1.044962 S    
C128  N72   1.434783 S    
N37   H58   1.044848 S    
Zn3   O5    1.917656 S    
C184  C196  1.416876 A    
C137  C145  1.429496 A    
C68   C92   1.546524 S    
O13   C9    1.274721 A    
N26   H35   1.044983 S    
C154  C162  1.392500 A    
N2    O56   1.301126 A    
N61   H89   1.044869 S    
C106  N58   1.436935 S    
C9    C120  1.461045 S    
N4    O59   1.301430 A    
N20   H24   1.044948 S    
C10   C119  1.457720 S    
O18   C14   1.275772 A    
C13   C116  1.461045 S    
C176  N16   1.438508 S    
C59   C92   1.547486 S    
C72   C96   1.546523 S    
C38   C50   1.416474 A    
C27   C33   1.399703 A    
C60   C91   1.547490 S    
C172  C178  1.400970 A    
C172  C182  1.415498 A    
N49   O69   1.300210 A    
C11   C118  1.461034 S    
C166  N86   1.437077 S    
N3    O57   1.301177 A    
C56   N32   1.437296 S    
N34   H52   1.044849 S    
N56   O83   1.300206 A    
C134  C158  1.421414 A    
Zn15  O3    1.946972 S    
C195  N19   1.436928 S    
C158  N78   1.436794 S    
C65   N33   1.455897 S    
C5    C79   1.425750 S    
C6    C80   1.425737 S    
N51   O74   1.300173 A    
O43   C15   1.277196 A    
N81   H113  1.045285 S    
C29   C43   1.415995 A    
C30   N6    1.436285 S    
C111  C119  1.400289 A    
N16   H16   1.045788 S    
N35   H53   1.044944 S    
C31   C41   1.416000 A    
C109  C117  1.400248 A    
N58   H83   1.045869 S    
N8    O67   1.301432 A    
C40   C46   1.424196 A    
C28   N4    1.436289 S    
N17   H18   1.044860 S    
C112  C120  1.400809 A    
O35   C23   1.276129 A    
N76   H103  1.044700 S    
C113  C121  1.394992 A    
C155  C163  1.391100 A    
N82   H116  1.045059 S    
C175  N15   1.438847 S    
C116  C124  1.396945 A    
C173  C187  1.418266 A    
C83   N52   1.456763 S    
O29   C21   1.276130 A    
C171  N11   1.438847 S    
N10   H4    1.045794 S    
C105  C113  1.400249 A    
N63   H93   1.044841 S    
N1    O53   1.301178 A    
C127  N71   1.435524 S    
N53   O78   1.300160 A    
C37   C49   1.416658 A    
Zn10  O46   1.917280 S    
C39   C51   1.416660 A    
N70   O95   1.301614 A    
C86   C94   1.549328 S    
N57   H82   1.045828 S    
N43   H70   1.044961 S    
C77   C101  1.199888 T    
Zn13  O3    1.946979 S    
C43   C55   1.416620 A    
Zn14  O4    1.946979 S    
C131  C139  1.427429 A    
C132  C140  1.428372 A    
C49   C52   1.405804 A    
C59   C87   1.540025 S    
N27   H37   1.044821 S    
O19   C15   1.274744 A    
Zn1   O31   1.945944 S    
N84   H120  1.045063 S    
Zn2   O32   1.945944 S    
C107  N59   1.436658 S    
Zn3   O29   1.945911 S    
C176  C180  1.400970 A    
C123  N67   1.435522 S    
C106  C146  1.417329 A    
N50   O72   1.300163 A    
O37   C9    1.277199 A    
N11   H5    1.045804 S    
C88   N55   1.456761 S    
O7    C3    1.282482 A    
O39   C11   1.277196 A    
C185  C191  1.426307 A    
N7    O65   1.301162 A    
C94   C102  1.457418 S    
C186  C192  1.424877 A    
C26   C40   1.415968 A    
C170  C178  1.400993 A    
C139  C147  1.429483 A    
C193  N17   1.437986 S    
N28   H40   1.044822 S    
C57   C69   1.541317 S    
C72   C83   1.540619 S    
C109  N61   1.436671 S    
C38   C46   1.424202 A    
C175  C179  1.399636 A    
Zn2   O38   1.945119 S    
O36   C24   1.276077 A    
N5    O62   1.301437 A    
C167  N87   1.437268 S    
C145  C166  1.422875 A    
O12   C8    1.282479 A    
C90   C98   1.457415 S    
N38   H60   1.044861 S    
C45   C46   1.417840 A    
C122  N66   1.434790 S    
N87   H126  1.044838 S    
N69   O94   1.300911 A    
Zn11  O1    1.946972 S    
C82   C90   1.549330 S    
C130  C154  1.421416 A    
Zn1   O1    1.946967 S    
C110  C150  1.417328 A    
C181  C189  1.426307 A    
N42   H67   1.044980 S    
N83   H118  1.044837 S    
C158  C166  1.392503 A    
C64   N48   1.455787 S    
N43   H69   1.044974 S    
Zn5   O3    1.946967 S    
C31   N7    1.436255 S    
C1    C75   1.425750 S    
Zn6   O4    1.946971 S    
C2    C76   1.425735 S    
Zn7   O9    1.917656 S    
C87   N56   1.456760 S    
Zn5   O41   1.945119 S    
C171  C177  1.399638 A    
C157  C165  1.391115 A    
C156  C164  1.392508 A    
N40   H63   1.044945 S    
N80   H111  1.044701 S    
C154  N74   1.436794 S    
Zn8   O44   1.945103 S    
C49   N25   1.437272 S    
C156  N76   1.436789 S    
C140  C143  1.423841 A    
C32   C42   1.415965 A    
C71   C95   1.546527 S    
C110  N62   1.436935 S    
N78   H108  1.043149 S    
C170  N10   1.438568 S    
N36   H56   1.044845 S    
C58   N42   1.455795 S    
N73   H98   1.043401 S    
N13   H9    1.045819 S    
C153  C161  1.391113 A    
N41   H66   1.044963 S    
C117  C125  1.394992 A    
C81   C89   1.549333 S    
C107  C147  1.419405 A    
O38   C10   1.274479 A    
N15   H13   1.045804 S    
C84   C92   1.549330 S    
N60   H87   1.045867 S    
N4    O60   1.301123 A    
C21   C34   1.460464 S    
Zn2   O2    1.946971 S    
C174  C188  1.415911 A    
N21   H25   1.044950 S    
C69   N37   1.455882 S    
C23   C36   1.460451 S    
C19   C180  1.459585 S    
Zn13  O49   1.917275 S    
N25   H33   1.044821 S    
C7    C77   1.425744 S    
C66   N34   1.455881 S    
Zn8   O4    1.947033 S    
N64   H96   1.044427 S    
C76   C100  1.199877 T    
O21   C17   1.275799 A    
C16   C113  1.457695 S    
N3    O58   1.301450 A    
C123  C131  1.414690 A    
C63   C67   1.541317 S    
N33   H50   1.044860 S    
N68   O92   1.301218 A    
N87   H125  1.045288 S    
C83   C91   1.549336 S    
O49   C5    1.282743 A    
N77   H105  1.044775 S    
C194  N18   1.437807 S    
C105  C145  1.419416 A    
C53   C56   1.405828 A    
C27   C37   1.416017 A    
C24   C35   1.460340 S    
C80   C104  1.199879 T    
C50   C51   1.405807 A    
N58   H84   1.044419 S    
N35   H54   1.044849 S    
O30   C22   1.276061 A    
N75   H101  1.044778 S    
C108  C148  1.417292 A    
Zn16  O52   1.917256 S    
C136  C160  1.421426 A    
N85   H121  1.045282 S    
C65   C89   1.546526 S    
Zn9   O13   1.945445 S    
Zn14  O26   1.946184 S    
C135  C159  1.418957 A    
Zn11  O15   1.945466 S    
C140  C148  1.429811 A    
Zn12  O16   1.945466 S    
N52   O76   1.300170 A    
O31   C21   1.276133 A    
C198  N22   1.437805 S    
C134  C142  1.428377 A    
Zn15  O19   1.945466 S    
N45   H74   1.044971 S    
N88   H128  1.045063 S    
N54   O80   1.300167 A    
C70   N38   1.455896 S    
N65   O86   1.300912 A    
C81   N50   1.456754 S    
C187  C191  1.429276 A    
C169  C177  1.401758 A    
C132  C156  1.421427 A    
C53   N29   1.437272 S    
Zn7   O33   1.945911 S    
N62   H92   1.044420 S    
N81   H114  1.044841 S    
C185  C197  1.417496 A    
N5    O61   1.301163 A    
C14   C115  1.457722 S    
C15   C114  1.461033 S    
N39   H62   1.044845 S    
C22   C33   1.460313 S    
C155  N75   1.437077 S    
C130  C138  1.428376 A    
N27   H38   1.044994 S    
N67   O89   1.301457 A    
N47   H77   1.044978 S    
Zn9   O21   1.946184 S    
Zn14  O50   1.917280 S    
N31   H46   1.044990 S    
Zn11  O23   1.946188 S    
N11   H6    1.044632 S    
C120  C128  1.396946 A    
N37   H57   1.044945 S    
C169  N9    1.436878 S    
C62   C93   1.547488 S    
O34   C24   1.276074 A    
N26   H36   1.044823 S    
Zn1   O7    1.917668 S    
C112  N64   1.436947 S    
C78   C102  1.199870 T    
Zn2   O8    1.917668 S    
C139  C144  1.423841 A    
O41   C13   1.277199 A    
C112  C152  1.417292 A    
O26   C20   1.275765 A    
C157  N77   1.437075 S    
C191  C192  1.421147 A    
N14   H11   1.044476 S    
O45   C1    1.282743 A    
C28   C38   1.415974 A    
N12   H7    1.044478 S    
C58   C70   1.541319 S    
C119  C127  1.395011 A    
N44   H71   1.044978 S    
C12   C117  1.457697 S    
N48   H80   1.044959 S    
C111  C151  1.419403 A    
C121  N65   1.435517 S    
C115  C123  1.395011 A    
N56   O84   1.300171 A    
N71   O98   1.300907 A    
O15   C11   1.274744 A    
C159  C167  1.391102 A    
Zn7   O3    1.947037 S    
C142  C150  1.429823 A    
O27   C19   1.275896 A    
N18   H19   1.045831 S    
C173  N13   1.436878 S    
C105  N57   1.436670 S    
N59   H85   1.044841 S    
N9    H2    1.044625 S    
C25   C39   1.416020 A    
C20   C179  1.459498 S    
O44   C16   1.274490 A    
C138  C141  1.423857 A    
C163  N83   1.437270 S    
O20   C16   1.275784 A    
C30   C36   1.399908 A    
N30   H43   1.044987 S    
O10   C6    1.282504 A    
O6    C2    1.282506 A    
C61   C94   1.547487 S    
C183  C189  1.429275 A    
N8    O68   1.301126 A    
O48   C4    1.282715 A    
N17   H17   1.044947 S    
C197  C200  1.404150 A    
C160  C168  1.392510 A    
C198  C199  1.397819 A    
C41   C47   1.424289 A    
C68   N36   1.455875 S    
O14   C10   1.275774 A    
N22   H28   1.045850 S    
C162  N82   1.437075 S    
C131  C155  1.418956 A    
N86   H123  1.045114 S    
C88   C96   1.549329 S    
N24   H31   1.044854 S    
Zn12  O2    1.946972 S    
Zn13  O25   1.946184 S    
C169  C183  1.418268 A    
C43   C47   1.424290 A    
C181  C193  1.417497 A    
C54   C55   1.405828 A    
O28   C20   1.275669 A    
Zn11  O47   1.917262 S    
O17   C13   1.274721 A    
C182  C190  1.424876 A    
