data_mof_unit_46182.cif
_audit_creation_date              2012-12-11T20:41:06-0500
_audit_creation_method            fapswitch 2.2
_symmetry_space_group_name_H-M    P1
_symmetry_Int_Tables_number       1
_space_group_crystal_system       triclinic
_cell_length_a                    8.259784
_cell_length_b                    18.871147
_cell_length_c                    27.003859
_cell_angle_alpha                 97.406053
_cell_angle_beta                  92.235231
_cell_angle_gamma                 86.373445
_cell_volume                      4163.6375532

loop_
_atom_site_label
_atom_site_type_symbol
_atom_type_description
_atom_site_fract_x
_atom_site_fract_y
_atom_site_fract_z
_atom_type_partial_charge
Ba1   Ba    Ba6+2 0.852670 0.466460 0.522850 1.666802
Ba2   Ba    Ba6+2 0.337150 0.533490 0.477140 1.674960
C1    C     C_3   0.526630 0.234510 0.670686 -0.362957
C2    C     C_R   0.906694 0.567832 0.177088 0.604671
C3    C     C_2   0.764039 0.543562 0.272655 -0.075919
C4    C     C_3   0.091908 0.241039 0.640861 0.298400
C5    C     C_3   0.747589 0.569240 0.327543 -0.043533
C6    C     C_1   0.984169 0.489471 0.342708 0.036032
C7    C     C_2   0.026682 0.486768 0.295066 -0.111773
C8    C     C_2   0.908334 0.512929 0.256095 0.170496
C9    C     C_R   0.022697 0.504580 0.100724 -0.145538
C10   C     C_R   0.073589 0.447546 0.127737 -0.020120
C11   C     C_R   0.164440 0.388790 0.103262 -0.052794
C12   C     C_3   0.553542 0.300202 0.645482 0.351709
C13   C     C_R   0.938064 0.565445 0.125477 -0.047501
C14   C     C_2   0.852167 0.525732 0.360530 -0.298764
C15   C     C_2   0.352907 0.485155 0.640246 -0.274596
C16   C     C_3   0.990821 0.219387 0.681949 -0.227355
C17   C     C_R   0.206150 0.444706 0.975257 0.016593
C18   C     C_R   0.012521 0.547652 0.968096 0.010308
C19   C     C_R   0.131264 0.496548 0.946538 0.037906
C20   C     C_R   0.328388 0.396734 0.952751 -0.108441
C21   C     C_R   0.372062 0.398581 0.903499 -0.080165
C22   C     C_R   0.295098 0.447941 0.874235 -0.028353
C23   C     C_3   0.518943 0.648772 0.630351 0.331110
C24   C     C_R   0.174702 0.497117 0.895867 -0.077622
C25   C     C_R   0.097516 0.546885 0.866862 -0.040642
C26   C     C_R   0.146578 0.549215 0.817455 0.594541
C27   C     C_R   0.334952 0.448558 0.823659 0.574396
C28   C     C_3   0.194955 0.317899 0.413607 0.308944
C29   C     C_2   0.460061 0.492524 0.728626 -0.081479
C30   C     C_3   0.501181 0.494570 0.674365 -0.087664
C31   C     C_1   0.211898 0.512563 0.656462 0.052873
C32   C     C_2   0.172820 0.509742 0.703434 -0.093907
C33   C     C_2   0.303169 0.499783 0.743124 0.203331
C34   C     C_3   0.487681 0.679955 0.684414 0.213271
C35   C     C_R   0.158145 0.443414 0.025524 0.032768
C36   C     C_R   0.057710 0.500870 0.048907 0.045509
C37   C     C_R   0.993422 0.555123 0.020928 -0.029431
C38   C     C_R   0.207999 0.387188 0.053608 -0.102632
C39   C     C_R   0.890686 0.623294 0.098331 0.436384
C40   C     C_3   0.204338 0.236905 0.400711 -0.345821
C41   C     C_R   0.916639 0.588680 0.935607 -0.014049
C42   C     C_R   0.966572 0.590949 0.886770 -0.078009
C43   C     C_R   0.920424 0.617545 0.047054 -0.167482
C44   C     C_2   0.413443 0.300979 0.522348 -0.232639
C45   C     C_3   0.070616 0.684883 0.341751 0.314118
C46   C     C_3   0.327150 0.253502 0.552356 -0.076310
C47   C     C_2   0.364241 0.174576 0.536415 -0.118169
C48   C     C_2   0.490881 0.151579 0.506893 -0.061155
C49   C     C_2   0.581232 0.206054 0.485198 -0.127632
C50   C     C_1   0.531663 0.274789 0.492396 0.056023
C51   C     C_R   0.646373 0.932599 0.488457 0.461623
C52   C     C_3   0.979220 0.687244 0.594926 0.700979
C53   C     C_R   0.543579 0.073915 0.498505 0.460371
C54   C     C_R   0.611760 0.807465 0.506732 -0.131763
C55   C     C_R   0.662519 0.735032 0.503942 0.024881
C56   C     C_3   0.083532 0.705086 0.289258 0.244632
C57   C     C_R   0.898836 0.756283 0.459273 0.054222
C58   C     C_R   0.849273 0.829307 0.461664 -0.132414
C59   C     C_R   0.702492 0.855483 0.484701 -0.070056
C60   C     C_R   0.800555 0.709390 0.478147 -0.244505
C61   C     C_3   0.914925 0.757958 0.623046 -0.196631
C62   C     C_3   0.668453 0.378182 0.372482 0.299544
C63   C     C_3   0.667418 0.359752 0.315977 -0.355661
C64   C     C_R   0.095946 0.201183 0.725888 -0.002777
C65   C     C_R   0.166466 0.255734 0.758587 -0.051591
C66   C     C_R   0.262297 0.238668 0.799715 -0.044928
C67   C     C_3   0.532620 0.723371 0.363224 0.349396
C68   C     C_R   0.288464 0.167338 0.808511 -0.064013
C69   C     C_R   0.218468 0.112812 0.776236 -0.055074
C70   C     C_R   0.122245 0.129548 0.735112 -0.043662
C71   C     C_R   0.749397 0.618426 0.947685 0.037114
C72   C     C_R   0.697621 0.688179 0.938635 -0.080489
C73   C     C_R   0.539239 0.714999 0.949210 -0.053720
C74   C     C_R   0.431357 0.672633 0.968912 -0.044016
C75   C     C_R   0.481554 0.603328 0.978007 -0.058837
C76   C     C_R   0.639036 0.575960 0.967008 -0.051703
C77   C     C_3   0.496656 0.794243 0.342695 -0.330131
C78   C     C_R   0.031731 0.449937 0.178470 0.595492
H1    H     H_    0.616987 0.282292 0.610058 0.060222
H2    H     H_    0.581204 0.424703 0.381934 0.075884
H3    H     H_    0.644194 0.209148 0.682404 0.120623
H4    H     H_    0.758073 0.314917 0.305291 0.135279
H5    H     H_    0.698057 0.406791 0.298305 0.068258
H6    H     H_    0.544993 0.343912 0.301984 0.134391
H7    H     H_    0.433083 0.327314 0.638036 -0.074020
H8    H     H_    0.463620 0.194506 0.644349 0.056513
H9    H     H_    0.403734 0.628490 0.613158 0.049731
H10   H     H_    0.612684 0.603900 0.629988 -0.057373
H11   H     H_    0.446244 0.637745 0.705064 0.033564
H12   H     H_    0.276962 0.221154 0.366851 0.121050
H13   H     H_    0.601999 0.699265 0.703220 0.027096
H14   H     H_    0.452236 0.250088 0.704186 0.134185
H15   H     H_    0.139348 0.632674 0.343633 0.034036
H16   H     H_    0.940754 0.679530 0.348778 -0.037846
H17   H     H_    0.208200 0.720846 0.283038 0.078996
H18   H     H_    0.060758 0.657461 0.261962 0.086173
H19   H     H_    0.666667 0.713039 0.364123 -0.048157
H20   H     H_    0.488259 0.728630 0.401926 0.068967
H21   H     H_    0.561112 0.837013 0.366213 0.076459
H22   H     H_    0.364534 0.809038 0.342950 0.137191
H23   H     H_    0.262623 0.211316 0.432100 0.071739
H24   H     H_    0.146719 0.292760 0.654754 -0.010067
H25   H     H_    0.538918 0.790105 0.303821 0.152663
H26   H     H_    0.148747 0.467780 0.284580 0.140568
H27   H     H_    0.204565 0.343796 0.122745 0.120504
H28   H     H_    0.559019 0.489597 0.756064 0.113784
H29   H     H_    0.467648 0.360942 0.888408 0.112193
H30   H     H_    0.396070 0.358270 0.972909 0.069685
H31   H     H_    0.277165 0.339972 0.037601 0.068126
H32   H     H_    0.669309 0.559894 0.246798 0.123386
H33   H     H_    0.188348 0.198051 0.631819 -0.011756
H34   H     H_    0.080274 0.217529 0.393575 0.142214
H35   H     H_    0.895219 0.623807 0.862883 0.119367
H36   H     H_    0.047108 0.516947 0.713709 0.139727
H37   H     H_    0.890899 0.663941 0.028137 0.073515
H38   H     H_    0.836531 0.537809 0.400509 0.079589
H39   H     H_    0.363970 0.460070 0.601925 0.070455
H40   H     H_    0.296848 0.136877 0.553309 0.091792
H41   H     H_    0.686383 0.188889 0.462813 0.107987
H42   H     H_    0.504174 0.826298 0.527296 0.119093
H43   H     H_    0.925802 0.865246 0.446549 0.100878
H44   H     H_    0.389844 0.358331 0.531105 0.063025
H45   H     H_    0.874431 0.656007 0.580621 -0.067511
H46   H     H_    0.901930 0.263922 0.694725 0.141746
H47   H     H_    0.838619 0.653238 0.476478 0.046866
H48   H     H_    0.921694 0.172502 0.666130 0.096831
H49   H     H_    0.318995 0.336271 0.419390 0.004776
H50   H     H_    0.126858 0.332688 0.448345 0.078921
H51   H     H_    0.080577 0.657605 0.532303 0.312557
H52   H     H_    0.418998 0.779011 0.679674 0.320580
H53   H     H_    0.147207 0.311303 0.752235 0.082110
H54   H     H_    0.316099 0.280647 0.824875 0.103333
H55   H     H_    0.362709 0.154355 0.840394 0.066635
H56   H     H_    0.843923 0.747892 0.655252 0.065685
H57   H     H_    0.238498 0.057557 0.783134 0.070047
H58   H     H_    0.068720 0.086674 0.710473 0.065564
H59   H     H_    0.011954 0.805632 0.297368 0.314974
H60   H     H_    0.787638 0.719448 0.097827 0.298767
H61   H     H_    0.780114 0.721946 0.923808 0.069710
H62   H     H_    0.500265 0.768756 0.942251 0.073450
H63   H     H_    0.308950 0.693505 0.977196 0.070905
H64   H     H_    0.398512 0.570813 0.993656 0.074038
H65   H     H_    0.674974 0.521697 0.973619 0.069765
H66   H     H_    0.835810 0.788207 0.597897 0.045925
H67   H     H_    0.017414 0.791073 0.637301 0.132600
H68   H     H_    0.791797 0.392162 0.385863 0.011888
N1    N     N_R   0.949130 0.509788 0.203074 -0.437480
N2    N     N_R   0.261989 0.499383 0.795583 -0.422435
N3    N     N_R   0.506064 0.955910 0.511509 -0.241954
N4    N     N_R   0.456030 0.024833 0.516484 -0.243591
N5    N     N_R   0.683375 0.050696 0.474931 -0.237687
N6    N     N_R   0.733673 0.981506 0.469974 -0.238521
O1    O     O_2   0.914730 0.537460 0.618690 -0.482748
O2    O     O_2   0.236063 0.753318 0.469907 -0.446984
O3    O     O_3   0.137078 0.737833 0.376457 -0.621281
O4    O     O_3   0.146720 0.537410 0.558510 -0.498702
O5    O     O_3   0.553920 0.415280 0.473710 -0.498789
O6    O     O_2   0.383540 0.672140 0.526840 -0.409297
O7    O     O_3   0.575755 0.702302 0.605225 -0.664401
O8    O     O_2   0.420278 0.530308 0.323333 -0.499253
O9    O     O_3   0.453629 0.668712 0.332898 -0.595977
O10   O     O_2   0.067259 0.398120 0.200388 -0.594913
O11   O     O_2   0.433079 0.403025 0.804513 -0.605684
O12   O     O_3   0.624725 0.318507 0.393621 -0.634750
O13   O     O_2   0.842706 0.622381 0.199074 -0.513516
O14   O     O_2   0.087605 0.596506 0.794213 -0.596529
O15   O     O_3   0.666360 0.409390 0.586570 -0.478854
O16   O     O_2   0.832801 0.447993 0.670776 -0.476992
O17   O     O_3   0.078813 0.651553 0.627992 -0.608113
O18   O     O_3   0.650004 0.345759 0.677289 -0.578316
O19   O     O_2   0.806150 0.327840 0.473120 -0.442932
O20   O     O_3   0.073640 0.373350 0.561550 -0.467659
O21   O     O_2   0.026193 0.250508 0.503183 -0.479354
O22   O     O_3   0.071006 0.702362 0.555721 -0.725524
O23   O     O_3   0.991473 0.247485 0.598252 -0.572383
O24   O     O_3   0.366150 0.735491 0.686214 -0.682766
O25   O     O_3   0.967923 0.760430 0.280945 -0.677858
O26   O     O_3   0.815079 0.685173 0.122222 -0.652470
O27   O     O_2   0.274960 0.462520 0.381280 -0.462332
O28   O     O_3   0.042980 0.462530 0.441480 -0.497044
O29   O     O_3   0.523340 0.590550 0.413420 -0.482181
O30   O     O_3   0.117515 0.348390 0.373884 -0.624485
O31   O     O_3   0.635780 0.584660 0.526290 -0.484751
O32   O     O_3   0.116060 0.626590 0.438450 -0.500881
P1    P     P_3+3 0.084800 0.558370 0.611580 1.002924
P2    P     P_3+3 0.628800 0.338360 0.458800 0.983309
P3    P     P_3+3 0.105478 0.279933 0.553741 0.971906
P4    P     P_3+3 0.104900 0.441570 0.388420 0.992416
P5    P     P_3+3 0.097820 0.719433 0.436432 0.982415
P6    P     P_3+3 0.662243 0.425962 0.652005 1.004711
P7    P     P_3+3 0.568355 0.674800 0.540896 0.969868
P8    P     P_3+3 0.535261 0.586632 0.348731 0.947006

loop_
_geom_bond_atom_site_label_1
_geom_bond_atom_site_label_2
_ccdc_geom_bond_type
C41   C71   S    
C19   C24   A    
O19   P2    D    
C26   N2    Am   
C74   H63   S    
O16   P6    D    
C9    C36   A    
C71   C72   A    
C39   O26   S    
C57   P5    S    
C56   H18   S    
C11   H27   S    
O4    P1    S    
O3    P5    S    
C53   N4    A    
C69   H57   S    
C75   C76   A    
O18   P6    S    
C2    N1    Am   
Ba1   O19   S    
C24   C25   A    
O12   P2    S    
Ba1   O4    S    
C17   C19   A    
C22   C24   A    
C12   H7    S    
C32   C33   S    
C35   C38   A    
C8    N1    S    
C60   H47   S    
C47   H40   S    
C52   C61   S    
C32   H36   S    
C44   C50   D    
H51   O22   S    
O29   P8    S    
C54   C55   A    
C30   P6    S    
Ba1   Ba2   S    
Ba2   O28   S    
C52   O22   S    
O32   P5    S    
Ba1   O1    S    
C22   C27   A    
C78   O10   D    
C11   C38   A    
C62   O12   S    
C17   C35   A    
C76   H65   S    
C16   H48   S    
C27   N2    Am   
C9    C13   A    
C25   C42   A    
C40   H34   S    
C64   C70   A    
C42   H35   S    
C23   O7    S    
C6    C7    D    
C20   H30   S    
N3    N4    A    
C77   H22   S    
C56   O25   S    
C33   N2    S    
C4    H24   S    
C7    C8    S    
C61   H66   S    
C40   H12   S    
Ba2   O4    S    
C37   C43   A    
C70   H58   S    
C64   C65   A    
C57   C58   A    
C6    C14   D    
C62   H68   S    
C44   H44   S    
C56   H17   S    
C15   C31   D    
C21   H29   S    
C34   H13   S    
C61   H67   S    
C31   C32   D    
C38   H31   S    
Ba1   P1    S    
C78   N1    Am   
C4    C16   S    
C52   H45   S    
C44   C46   S    
Ba1   O20   S    
O23   P3    S    
C72   C73   A    
C49   C50   D    
Ba2   P4    S    
C63   H6    S    
C17   C20   A    
C34   O24   S    
C74   C75   A    
C13   C39   A    
C12   O18   S    
C45   H16   S    
C6    P4    S    
C3    C5    S    
C18   C37   A    
C26   O14   D    
Ba2   O5    S    
C63   H4    S    
C23   C34   S    
O9    P8    S    
C55   C60   A    
C7    H26   S    
C28   H50   S    
C71   C76   A    
C65   C66   A    
C55   P7    S    
C58   C59   A    
Ba2   O27   S    
C54   H42   S    
O5    P2    S    
C58   H43   S    
C73   C74   A    
Ba2   O32   S    
C4    H33   S    
C35   C36   A    
C73   H62   S    
C14   H38   S    
O27   P4    D    
C29   C30   S    
Ba1   O5    S    
C21   C22   A    
O8    P8    D    
C40   H23   S    
C48   C49   S    
C23   H10   S    
O7    P7    S    
C31   P1    S    
C10   C11   A    
C5    P8    S    
C62   H2    S    
C46   P3    S    
C68   C69   A    
C1    C12   S    
C67   H19   S    
C34   H11   S    
Ba2   O6    S    
C46   C47   S    
C72   H61   S    
C41   C42   A    
C1    H3    S    
C68   H55   S    
C49   H41   S    
O30   P4    S    
C67   C77   S    
C51   C59   S    
C29   H28   S    
C18   C41   A    
C45   O3    S    
Ba1   P2    S    
C43   H37   S    
C53   N5    A    
C5    C14   S    
C57   C60   A    
C45   H15   S    
C65   H53   S    
C1    H8    S    
C54   C59   A    
C28   O30   S    
C52   O17   S    
C28   C40   S    
C67   O9    S    
O31   P7    S    
O21   P3    D    
Ba1   O28   S    
C63   H5    S    
C3    H32   S    
Ba1   O31   S    
C16   C64   S    
C28   H49   S    
C50   P2    S    
C23   H9    S    
C48   C53   S    
O15   P6    S    
C2    O13   D    
O17   P1    S    
C61   H56   S    
C2    C13   A    
C66   H54   S    
Ba2   O31   S    
C3    C8    D    
C4    O23   S    
O1    P1    D    
C62   C63   S    
C45   C56   S    
C36   C37   A    
C10   C78   A    
C29   C33   D    
Ba1   O15   S    
H60   O26   S    
C1    H14   S    
C27   O11   D    
Ba2   O29   S    
C75   H64   S    
H59   O25   S    
C15   H39   S    
O20   P3    S    
O2    P5    D    
C51   N6    A    
C69   C70   A    
C18   C19   A    
C77   H25   S    
C66   C68   A    
C47   C48   D    
C67   H20   S    
C25   C26   A    
C51   N3    A    
C15   C30   S    
C39   C43   A    
C20   C21   A    
C77   H21   S    
O28   P4    S    
C12   H1    S    
N5    N6    A    
C16   H46   S    
C9    C10   A    
H52   O24   S    
O6    P7    D    
