data_mof_unit_57076.cif
_audit_creation_date              2012-12-10T19:07:34-0500
_audit_creation_method            fapswitch 2.2
_symmetry_space_group_name_H-M    P1
_symmetry_Int_Tables_number       1
_space_group_crystal_system       triclinic
_cell_length_a                    10.854422
_cell_length_b                    10.837226
_cell_length_c                    9.554543
_cell_angle_alpha                 90.517936
_cell_angle_beta                  90.835593
_cell_angle_gamma                 90.778565
_cell_volume                      1123.64708572

loop_
_atom_site_label
_atom_site_type_symbol
_atom_type_description
_atom_site_fract_x
_atom_site_fract_y
_atom_site_fract_z
_atom_type_partial_charge
C1    C     C_R   0.496792 0.262400 0.499336 0.813116
C2    C     C_R   0.939222 0.441873 0.614322 0.114727
C3    C     C_3   0.940704 0.479604 0.765518 0.292552
C4    C     C_3   0.080624 0.480923 0.761477 -0.496513
C5    C     C_R   0.478223 0.065146 0.623589 0.115951
C6    C     C_R   0.483151 0.129338 0.497955 -0.094264
C7    C     C_R   0.471085 0.063034 0.371261 -0.201383
C8    C     C_R   0.471855 0.934269 0.371919 -0.209191
C9    C     C_R   0.484827 0.870941 0.499258 -0.094218
C10   C     C_R   0.479381 0.938007 0.624307 0.131640
C11   C     C_3   0.563262 0.936223 0.749336 -0.487321
C12   C     C_R   0.262551 0.496715 0.498857 0.805307
C13   C     C_3   0.560768 0.075849 0.749377 -0.425953
C14   C     C_R   0.540089 0.601440 0.075761 0.248707
C15   C     C_R   0.447001 0.406007 0.072503 -0.075340
C16   C     C_R   0.446535 0.406234 0.923727 -0.054598
C17   C     C_R   0.540749 0.601267 0.928285 0.253318
C18   C     C_3   0.667826 0.654627 0.928868 -0.491732
C19   C     C_3   0.665116 0.658034 0.086881 -0.475900
C20   C     C_R   0.497681 0.737778 0.500203 0.790729
C21   C     C_R   0.737937 0.496701 0.500633 0.818770
C22   C     C_R   0.066426 0.443081 0.612102 0.050312
C23   C     C_R   0.129868 0.482653 0.494786 -0.101222
C24   C     C_R   0.062940 0.504067 0.370913 -0.177501
C25   C     C_R   0.934648 0.505117 0.373094 -0.147639
C26   C     C_R   0.871464 0.484060 0.498658 -0.175287
Cu1   Cu    Cu3+1 0.499990 0.499980 0.640670 0.979040
Cu2   Cu    Cu3+1 0.500010 0.500020 0.359330 0.956589
H1    H     H_    0.109041 0.527908 0.274861 0.177339
H2    H     H_    0.655509 0.899605 0.723782 0.199669
H3    H     H_    0.512981 0.115458 0.841197 0.186835
H4    H     H_    0.651593 0.119012 0.725911 0.241739
H5    H     H_    0.406032 0.328763 0.126483 0.139125
H6    H     H_    0.404942 0.329309 0.866864 0.137075
H7    H     H_    0.733707 0.587594 0.888531 0.254838
H8    H     H_    0.674167 0.747207 0.882522 0.182666
H9    H     H_    0.733349 0.595963 0.135371 0.235688
H10   H     H_    0.663355 0.753101 0.131426 0.188531
H11   H     H_    0.886104 0.529484 0.278220 0.185680
H12   H     H_    0.903765 0.573114 0.782715 0.049987
H13   H     H_    0.121483 0.575091 0.774338 0.169941
H14   H     H_    0.126366 0.408848 0.825051 0.236955
H15   H     H_    0.467525 0.109996 0.271725 0.159970
H16   H     H_    0.468530 0.885184 0.272647 0.161892
H17   H     H_    0.517722 0.895434 0.841898 0.197454
N1    N     N_R   0.500790 0.500930 0.147930 -0.181018
N2    N     N_R   0.500790 0.500890 0.852020 -0.160119
O1    O     O_R   0.500000 0.319640 0.618810 -0.566749
O2    O     O_R   0.500010 0.319680 0.381230 -0.590802
O3    O     O_R   0.319650 0.499970 0.618810 -0.585368
O4    O     O_R   0.319660 0.500010 0.381230 -0.588502
O5    O     O_R   0.499990 0.680320 0.618770 -0.584758
O6    O     O_R   0.500000 0.680360 0.381190 -0.590661
O7    O     O_R   0.680340 0.499990 0.618770 -0.541168
O8    O     O_R   0.680350 0.500030 0.381190 -0.580017
S1    S     S_3+6 0.881182 0.360805 0.876533 -0.020387
O9    O     O_2   0.943807 0.240713 0.846543 -0.284740
O10   O     O_2   0.904929 0.397612 0.026613 -0.324555
O11   O     O_3   0.728952 0.342259 0.848757 -0.530081
H18   H     H_    0.700562 0.289643 0.926477 0.360840

loop_
_geom_bond_atom_site_label_1
_geom_bond_atom_site_label_2
_ccdc_geom_bond_type
Cu1   O1    S    
C2    C22   A    
C12   O3    A    
C23   C24   A    
Cu1   O3    S    
C1    O1    A    
C6    C7    A    
C19   H10   S    
C7    H15   S    
C4    C22   S    
C18   H7    S    
C9    C20   S    
C5    C13   S    
C14   C17   A    
S1    O11   S    
C21   C26   S    
C17   C18   S    
Cu1   O7    S    
C5    C10   A    
C2    C26   A    
C4    H13   S    
C24   C25   A    
Cu2   O6    S    
C11   C13   S    
C12   C23   S    
Cu2   N1    S    
C5    C6    A    
C4    H14   S    
C11   H2    S    
C9    C10   A    
Cu2   O8    S    
S1    O10   D    
C3    H12   S    
C2    C3    S    
C21   O7    A    
Cu2   O4    S    
C11   H17   S    
C7    C8    A    
C10   C11   S    
C1    C6    S    
C8    H16   S    
O11   H18   S    
C12   O4    A    
S1    O9    D    
Cu1   O5    S    
C20   O5    A    
C18   C19   S    
C3    S1    S    
Cu1   N2    S    
Cu1   Cu2   S    
C21   O8    A    
C16   N2    A    
C24   H1    S    
C20   O6    A    
C19   H9    S    
C15   N1    A    
C16   H6    S    
C25   C26   A    
C22   C23   A    
C13   H4    S    
C18   H8    S    
C14   C19   S    
C13   H3    S    
C25   H11   S    
C3    C4    S    
C15   C16   A    
C17   N2    A    
C15   H5    S    
C8    C9    A    
C14   N1    A    
Cu2   O2    S    
C1    O2    A    
