data_mof_unit_28956.cif
_audit_creation_date              2012-12-10T17:48:38-0500
_audit_creation_method            fapswitch 2.2
_symmetry_space_group_name_H-M    P1
_symmetry_Int_Tables_number       1
_space_group_crystal_system       triclinic
_cell_length_a                    15.734003
_cell_length_b                    10.687362
_cell_length_c                    9.96364
_cell_angle_alpha                 89.111196
_cell_angle_beta                  89.307708
_cell_angle_gamma                 93.660472
_cell_volume                      1671.67303441

loop_
_atom_site_label
_atom_site_type_symbol
_atom_type_description
_atom_site_fract_x
_atom_site_fract_y
_atom_site_fract_z
_atom_type_partial_charge
C1    C     C_R   0.499910 0.258803 0.501822 0.876717
C2    C     C_R   0.495232 0.026871 0.871231 0.055240
C3    C     C_R   0.545260 0.924181 0.866553 -0.153518
C4    C     C_R   0.338599 0.500432 0.500808 0.885440
C5    C     C_R   0.568995 0.878840 0.742394 -0.104468
C6    C     C_R   0.541381 0.935310 0.622746 0.099496
C7    C     C_R   0.510384 0.054552 0.627716 0.082207
C8    C     C_R   0.507058 0.124222 0.505337 -0.103188
C9    C     C_R   0.522872 0.066556 0.382803 -0.160035
C10   C     C_R   0.531929 0.939638 0.379397 -0.143735
C11   C     C_R   0.535207 0.872225 0.499783 -0.122061
C12   C     C_3   0.947057 0.437943 0.629767 1.065876
C13   C     C_R   0.357318 0.371071 0.134030 -0.224919
C14   C     C_R   0.284811 0.341512 0.056942 0.558587
C15   C     C_R   0.292230 0.336342 0.919597 0.578387
C16   C     C_R   0.513818 0.738719 0.499227 0.876502
C17   C     C_R   0.369139 0.371914 0.858782 -0.370466
C18   C     C_R   0.434470 0.436674 0.928431 0.058863
C19   C     C_R   0.432430 0.435778 0.073023 -0.052032
C20   C     C_R   0.563253 0.560403 0.069131 0.674311
C21   C     C_R   0.563241 0.559937 0.926601 -0.181050
C22   C     C_R   0.661480 0.500349 0.499233 0.878285
C23   C     C_3   0.917402 0.502441 0.498496 -0.433867
C24   C     C_3   0.045582 0.439056 0.630131 0.326107
C25   C     C_3   0.047468 0.428805 0.377227 0.459070
C26   C     C_3   0.949395 0.431005 0.374759 0.315146
C27   C     C_1   0.750391 0.500721 0.497764 -0.044296
C28   C     C_3   0.082998 0.503279 0.499507 -0.369206
C29   C     C_1   0.454233 0.057734 0.994760 0.159894
C30   C     C_1   0.352816 0.295385 0.254715 0.431157
C31   C     C_1   0.096333 0.716581 0.383483 0.509365
C32   C     C_3   0.956055 0.640323 0.489614 1.026331
C33   C     C_3   0.055061 0.641122 0.494860 -0.483540
C34   C     C_1   0.825743 0.501319 0.497555 0.305468
C35   C     C_1   0.174574 0.501494 0.501662 0.199543
C36   C     C_1   0.249806 0.500710 0.502144 -0.104917
C37   C     C_R   0.480041 0.093948 0.753236 -0.160346
F1    F     F_    0.912154 0.315460 0.638959 -0.504852
F2    F     F_    0.926730 0.708621 0.596077 -0.564802
F3    F     F_    0.919279 0.500625 0.741375 -0.592951
F4    F     F_    0.929379 0.696878 0.372091 -0.608463
F5    F     F_    0.627748 0.623868 0.132966 -0.626912
F6    F     F_    0.071561 0.317682 0.642416 -0.522826
F7    F     F_    0.210624 0.294746 0.115660 -0.553535
F8    F     F_    0.227094 0.285620 0.846033 -0.547850
F9    F     F_    0.082239 0.478234 0.257723 -0.595954
F10   F     F_    0.913057 0.309281 0.373297 -0.551848
H1    H     H_    0.070284 0.491534 0.718720 0.166966
H2    H     H_    0.930008 0.478411 0.280753 0.220372
H3    H     H_    0.076610 0.687735 0.588820 0.195331
H4    H     H_    0.524746 0.118321 0.288647 0.189605
H5    H     H_    0.438542 0.169010 0.759907 0.157562
H6    H     H_    0.560863 0.874270 0.957593 0.162451
H7    H     H_    0.605389 0.796410 0.739930 0.163341
H8    H     H_    0.533158 0.894033 0.283066 0.187846
H9    H     H_    0.376637 0.344855 0.757458 0.235786
H10   H     H_    0.615306 0.608758 0.871750 0.176955
H11   H     H_    0.065559 0.329968 0.385137 0.233396
N1    N     N_R   0.499210 0.498800 0.142780 -0.148131
N2    N     N_R   0.499180 0.498720 0.857170 -0.116863
N3    N     N_1   0.419912 0.081091 0.093532 -0.214783
N4    N     N_1   0.342332 0.230482 0.348406 -0.189461
N5    N     N_1   0.128704 0.775600 0.296516 -0.087183
O1    O     O_R   0.500000 0.316780 0.614690 -0.636439
O2    O     O_R   0.499990 0.316750 0.385360 -0.632152
O3    O     O_R   0.377150 0.500020 0.614720 -0.616168
O4    O     O_R   0.377140 0.499990 0.385380 -0.619234
O5    O     O_R   0.500010 0.683250 0.614640 -0.626207
O6    O     O_R   0.500000 0.683220 0.385310 -0.590369
O7    O     O_R   0.622860 0.500010 0.614620 -0.610261
O8    O     O_R   0.622850 0.499980 0.385280 -0.547281
Zn1   Zn    Zn3+2 0.500010 0.500020 0.653130 0.972326
Zn2   Zn    Zn3+2 0.499990 0.499980 0.346870 1.032240

loop_
_geom_bond_atom_site_label_1
_geom_bond_atom_site_label_2
_ccdc_geom_bond_type
C12   F3    S    
C4    O4    A    
C20   F5    S    
C32   F4    S    
C4    C36   S    
C21   H10   S    
C6    C7    A    
C16   O5    A    
C1    C8    S    
C9    C10   A    
N1    Zn2   S    
C1    O2    A    
C35   C36   T    
C9    H4    S    
O5    Zn1   S    
C23   C34   S    
C32   C33   S    
C3    C5    A    
O1    Zn1   S    
C17   C18   A    
C7    C37   A    
C7    C8    A    
C13   C14   A    
C23   C32   S    
C20   N1    A    
C4    O3    A    
C10   H8    S    
C3    H6    S    
C2    C37   A    
N2    Zn1   S    
C26   F10   S    
C2    C29   S    
O4    Zn2   S    
C18   N2    A    
O6    Zn2   S    
C28   C33   S    
C2    C3    A    
C17   H9    S    
C22   C27   S    
C30   N4    T    
C27   C34   T    
C12   F1    S    
C5    C6    A    
C24   F6    S    
C29   N3    T    
C32   F2    S    
C11   C16   S    
O7    Zn1   S    
C10   C11   A    
C15   F8    S    
C24   H1    S    
C1    O1    A    
C31   N5    T    
C5    H7    S    
C6    C11   A    
C13   C19   A    
O2    Zn2   S    
C20   C21   A    
C21   N2    A    
C14   F7    S    
C18   C19   A    
C25   H11   S    
C23   C26   S    
O8    Zn2   S    
C22   O8    A    
C15   C17   A    
C37   H5    S    
C12   C24   S    
C14   C15   A    
C31   C33   S    
C12   C23   S    
C33   H3    S    
C19   N1    A    
C25   C26   S    
C13   C30   S    
C25   F9    S    
C22   O7    A    
O3    Zn1   S    
C16   O6    A    
C24   C28   S    
C28   C35   S    
C8    C9    A    
C25   C28   S    
C26   H2    S    
