data_mof_unit_27299.cif
_audit_creation_date              2012-10-26T20:00:55-0400
_audit_creation_method            fapswitch 2.2
_symmetry_space_group_name_H-M    P1
_symmetry_Int_Tables_number       1
_space_group_crystal_system       triclinic
_cell_length_a                    11.769258
_cell_length_b                    13.004917
_cell_length_c                    13.37014
_cell_angle_alpha                 93.325516
_cell_angle_beta                  75.379771
_cell_angle_gamma                 99.34249
_cell_volume                      1953.57094283

loop_
_atom_site_label
_atom_site_type_symbol
_atom_type_description
_atom_site_fract_x
_atom_site_fract_y
_atom_site_fract_z
_atom_type_partial_charge
C1    C     C_R   0.520798 0.700451 0.500557 0.521477
C2    C     C_R   0.391709 0.471747 0.810643 0.040970
C3    C     C_R   0.470873 0.186297 0.488637 0.014952
C4    C     C_R   0.434338 0.487388 0.696338 0.580383
C5    C     C_R   0.532131 0.813694 0.500749 -0.006386
C6    C     C_R   0.633179 0.982839 0.537379 -0.102621
C7    C     C_R   0.624980 0.875280 0.534258 -0.111726
C8    C     C_R   0.448448 0.860276 0.468580 -0.071284
C9    C     C_R   0.451939 0.968501 0.475345 0.061703
C10   C     C_R   0.547375 0.029768 0.508926 0.027357
C11   C     C_R   0.556780 0.137599 0.513702 -0.073197
C12   C     C_R   0.453420 0.490239 0.973978 0.027627
C13   C     C_R   0.376496 0.126845 0.455488 -0.132521
C14   C     C_R   0.365315 0.018387 0.448184 0.012157
C15   C     C_R   0.932105 0.586822 0.610653 0.212171
C16   C     C_R   0.480400 0.299536 0.495957 0.611949
C17   C     C_R   0.817833 0.580314 0.595132 0.066392
C18   C     C_R   0.860865 0.459537 0.456629 0.372713
C19   C     C_R   0.979234 0.466317 0.465919 -0.056510
C20   C     C_R   0.018285 0.533796 0.541080 -0.008574
C21   C     C_R   0.140884 0.543755 0.543273 0.147528
C22   C     C_R   0.174723 0.412903 0.411656 0.364999
C23   C     C_R   0.473382 0.455886 0.868931 0.014862
C24   C     C_R   0.058661 0.406268 0.402143 -0.100037
C25   C     C_R   0.564687 0.506131 0.303779 0.534209
C26   C     C_R   0.721023 0.421485 0.039792 -0.111197
C27   C     C_R   0.603818 0.500798 0.190396 -0.016413
C28   C     C_R   0.274749 0.486278 0.865556 -0.001865
C29   C     C_R   0.250620 0.505966 0.971906 -0.133151
C30   C     C_R   0.338593 0.510243 0.024889 -0.049674
C31   C     C_2   0.261328 0.963857 0.412212 0.247321
C32   C     C_2   0.191520 0.630125 0.602738 0.362497
C33   C     C_2   0.482717 0.631869 0.162870 0.218888
C34   C     C_R   0.543533 0.490543 0.028180 0.061941
C35   C     C_2   0.171873 0.473912 0.818795 0.227934
C36   C     C_R   0.640817 0.437402 0.982884 0.003217
C37   C     C_R   0.652241 0.392923 0.884361 -0.067464
C38   C     C_R   0.568355 0.398654 0.829011 0.239535
C39   C     C_R   0.537585 0.536030 0.128487 0.020059
C40   C     C_R   0.699256 0.448464 0.144057 -0.110344
Cl1   Cl    Cl    0.265109 0.333045 0.327957 -0.600715
Cl2   Cl    Cl    0.951786 0.650545 0.726733 -0.575314
Cl3   Cl    Cl    0.810537 0.371454 0.366185 -0.619687
Cl4   Cl    Cl    0.567470 0.306844 0.727131 -0.600134
Cu1   Cu    Cu3+1 0.386470 0.492430 0.492410 1.062645
Cu2   Cu    Cu3+1 0.613530 0.507570 0.507590 1.066120
H1    H     H_    0.754699 0.424917 0.188996 0.197417
H2    H     H_    0.312165 0.521249 0.107745 0.159794
H3    H     H_    0.161836 0.516395 0.015052 0.128529
H4    H     H_    0.630940 0.183551 0.537968 0.195247
H5    H     H_    0.226532 0.002766 0.359308 0.131861
H6    H     H_    0.231875 0.616302 0.663550 0.127910
H7    H     H_    0.459440 0.654422 0.243936 0.128180
H8    H     H_    0.104033 0.523664 0.844858 0.134836
H9    H     H_    0.310089 0.165056 0.435811 0.180554
H10   H     H_    0.705862 0.029370 0.563303 0.146642
H11   H     H_    0.690749 0.840348 0.558843 0.155060
H12   H     H_    0.382344 0.810927 0.437403 0.202329
H13   H     H_    0.031971 0.352881 0.344270 0.198425
H14   H     H_    0.753503 0.621812 0.647103 0.166661
H15   H     H_    0.722632 0.346923 0.852898 0.163906
H16   H     H_    0.794910 0.380099 0.006002 0.138970
N1    N     N_R   0.215880 0.481050 0.481000 -0.248701
N2    N     N_R   0.784100 0.518950 0.519000 -0.242638
O1    O     O_R   0.419710 0.645650 0.494620 -0.530282
O2    O     O_2   0.187830 0.719991 0.583840 -0.421278
O3    O     O_2   0.469954 0.690720 0.099961 -0.480773
O4    O     O_2   0.156964 0.403256 0.756991 -0.458664
O5    O     O_R   0.611450 0.658430 0.507430 -0.517746
O6    O     O_R   0.357340 0.490460 0.641450 -0.496657
O7    O     O_R   0.549080 0.503250 0.654260 -0.485117
O8    O     O_R   0.388550 0.341570 0.492570 -0.451907
O9    O     O_R   0.580290 0.354350 0.505380 -0.422469
O10   O     O_R   0.450920 0.496750 0.345740 -0.474522
O11   O     O_R   0.642660 0.509540 0.358550 -0.458820
O12   O     O_2   0.208639 0.879326 0.445316 -0.439542

loop_
_geom_bond_atom_site_label_1
_geom_bond_atom_site_label_2
_ccdc_geom_bond_type
C40   H1    S    
C19   C20   A    
C16   O8    A    
C14   C31   S    
C26   C40   A    
C4    O6    A    
C29   H3    S    
Cu1   Cu2   S    
C12   C23   A    
C29   C30   A    
C1    C5    S    
C30   H2    S    
C36   C37   A    
C18   C19   A    
C17   N2    A    
C22   Cl1   S    
C25   O10   A    
C32   H6    S    
Cu2   O5    S    
C8    H12   S    
C22   N1    A    
C28   C35   S    
C27   C39   A    
C8    C9    A    
C1    O1    A    
C9    C10   A    
C3    C13   A    
C13   C14   A    
C35   H8    S    
Cu2   O11   S    
C33   H7    S    
C15   C20   A    
C21   C32   S    
C34   C39   A    
C6    H10   S    
C5    C7    A    
Cu1   N1    S    
C1    O5    A    
C16   O9    A    
Cu2   N2    S    
Cu1   O10   S    
C25   O11   A    
C2    C4    S    
C9    C14   A    
C38   Cl4   S    
C37   C38   A    
C27   C40   A    
C33   C39   S    
Cu2   O7    S    
C26   C36   A    
Cu1   O1    S    
C22   C24   A    
C12   C34   A    
C33   O3    D    
C32   O2    D    
C15   C17   A    
C28   C29   A    
C12   C30   A    
Cu1   O6    S    
C15   Cl2   S    
C31   H5    S    
C6    C10   A    
C5    C8    A    
C37   H15   S    
C6    C7    A    
C25   C27   S    
C23   C38   A    
C19   C24   A    
C26   H16   S    
C11   H4    S    
C18   Cl3   S    
C18   N2    A    
C31   O12   D    
C35   O4    D    
C24   H13   S    
C34   C36   A    
Cu2   O9    S    
C21   N1    A    
C3    C11   A    
C10   C11   A    
C17   H14   S    
C20   C21   A    
C2    C23   A    
Cu1   O8    S    
C2    C28   A    
C7    H11   S    
C4    O7    A    
C3    C16   S    
C13   H9    S    
