data_mof_unit_29709.cif
_audit_creation_date              2012-12-11T16:10:29-0500
_audit_creation_method            fapswitch 2.2
_symmetry_space_group_name_H-M    P1
_symmetry_Int_Tables_number       1
_space_group_crystal_system       triclinic
_cell_length_a                    26.310561
_cell_length_b                    7.085757
_cell_length_c                    23.741994
_cell_angle_alpha                 90.018774
_cell_angle_beta                  101.321464
_cell_angle_gamma                 89.959735
_cell_volume                      4340.09542163

loop_
_atom_site_label
_atom_site_type_symbol
_atom_type_description
_atom_site_fract_x
_atom_site_fract_y
_atom_site_fract_z
_atom_type_partial_charge
O1    O     O_R   0.442540 0.494320 0.443520 -0.537844
O2    O     O_R   0.557460 0.994320 0.556480 -0.537938
O3    O     O_R   0.546640 0.821130 0.446490 -0.548515
O4    O     O_R   0.453360 0.321130 0.553510 -0.548611
C1    C     C_R   0.563020 0.654914 0.434099 0.742573
C2    C     C_R   0.436912 0.155080 0.565850 0.742165
O5    O     O_R   0.442270 0.823840 0.436770 -0.535825
O6    O     O_R   0.557730 0.323840 0.563230 -0.535840
O7    O     O_R   0.452340 0.997060 0.546690 -0.504390
O8    O     O_R   0.547660 0.497060 0.453310 -0.504228
C3    C     C_R   0.423689 0.655304 0.421190 0.728051
C4    C     C_R   0.576306 0.155248 0.578816 0.727840
O9    O     O_3   0.503430 0.661750 0.536080 -0.369785
O10   O     O_3   0.496570 0.161750 0.463920 -0.369412
V1    V     V_3+5 0.499360 0.935480 0.493310 1.469347
V2    V     V_3+5 0.500640 0.435480 0.506690 1.469332
C5    C     C_3   0.730526 0.925562 0.712309 0.130892
C6    C     C_3   0.269757 0.425395 0.287422 0.131552
C7    C     C_3   0.749000 0.277430 0.698978 0.707001
C8    C     C_3   0.250786 0.776731 0.301233 0.707566
C9    C     C_3   0.799623 0.250458 0.746751 0.103710
C10   C     C_3   0.200140 0.749238 0.253533 0.103386
H1    H     H_    0.812179 0.850220 0.746806 0.203187
H2    H     H_    0.188298 0.348536 0.252613 0.202619
H3    H     H_    0.808512 0.387889 0.769231 0.175198
H4    H     H_    0.190869 0.886899 0.231311 0.174352
C11   C     C_1   0.877784 0.073928 0.875983 -0.151821
C12   C     C_1   0.122239 0.573818 0.124000 -0.151603
C13   C     C_3   0.707083 0.129382 0.709883 -0.042850
C14   C     C_3   0.292912 0.629597 0.290125 -0.043191
C15   C     C_3   0.778141 0.907788 0.762440 -0.398737
C16   C     C_3   0.222249 0.407505 0.237171 -0.399418
C17   C     C_3   0.791292 0.101238 0.792745 -0.051383
C18   C     C_3   0.208725 0.601338 0.207241 -0.049608
C19   C     C_3   0.743842 0.163277 0.819647 0.647394
C20   C     C_3   0.256046 0.665256 0.180442 0.643537
C21   C     C_3   0.693019 0.167933 0.770337 0.161395
C22   C     C_3   0.306904 0.669433 0.229715 0.162250
C23   C     C_1   0.839170 0.084690 0.838398 0.154193
C24   C     C_1   0.160856 0.584659 0.161580 0.152453
C25   C     C_1   0.659708 0.138278 0.663209 0.024537
C26   C     C_1   0.340279 0.638521 0.336806 0.024293
C27   C     C_1   0.621591 0.146011 0.624862 -0.201688
C28   C     C_1   0.378397 0.646195 0.375152 -0.201304
H5    H     H_    0.667960 0.048075 0.779066 0.071842
H6    H     H_    0.332034 0.549966 0.220748 0.070867
H7    H     H_    0.700646 0.822955 0.720664 0.130000
H8    H     H_    0.299801 0.323331 0.279046 0.129516
H9    H     H_    0.769607 0.801510 0.793804 0.203278
H10   H     H_    0.231072 0.302322 0.205618 0.202767
C29   C     C_R   0.149328 0.173523 0.915414 0.261658
C30   C     C_R   0.856385 0.702370 0.090091 0.258961
C31   C     C_R   0.186028 0.182595 0.879582 0.432138
C32   C     C_R   0.817722 0.706818 0.124220 0.353625
C33   C     C_R   0.175967 0.098622 0.824549 -0.321116
C34   C     C_R   0.822963 0.595286 0.174387 -0.278140
C35   C     C_R   0.128426 0.003481 0.805991 0.425067
C36   C     C_R   0.866459 0.475217 0.189142 0.428873
C37   C     C_R   0.091606 0.990997 0.841640 0.267134
C38   C     C_R   0.904064 0.465201 0.154460 0.230302
C39   C     C_R   0.101596 0.076846 0.896850 -0.348377
C40   C     C_R   0.899089 0.578404 0.104321 -0.295852
N1    N     N_R   0.220744 0.966090 0.750577 -0.218767
N2    N     N_R   0.771408 0.451877 0.240360 -0.219100
N3    N     N_R   0.255423 0.976463 0.716599 -0.281443
N4    N     N_R   0.736728 0.462538 0.274329 -0.281223
C41   C     C_R   0.285976 0.131389 0.716886 0.525664
C42   C     C_R   0.712461 0.627982 0.281385 0.513687
N5    N     N_R   0.280244 0.275119 0.753083 -0.224403
N6    N     N_R   0.724518 0.782122 0.252565 -0.216056
N7    N     N_R   0.245554 0.264871 0.787082 -0.226437
N8    N     N_R   0.759218 0.771636 0.218597 -0.213482
C43   C     C_R   0.214970 0.110130 0.786580 0.580553
C44   C     C_R   0.783492 0.606270 0.211751 0.576304
C45   C     C_R   0.352587 0.308017 0.671924 0.490689
C46   C     C_R   0.646639 0.806154 0.327394 0.488843
C47   C     C_R   0.388335 0.309065 0.634691 -0.345649
C48   C     C_R   0.611302 0.808067 0.364984 -0.343373
H11   H     H_    0.407820 0.439534 0.628511 0.167737
H12   H     H_    0.591958 0.939066 0.371121 0.169216
C49   C     C_R   0.398603 0.146090 0.604924 -0.135477
C50   C     C_R   0.601058 0.645308 0.394770 -0.137492
C51   C     C_R   0.371233 0.978701 0.611942 0.361911
C52   C     C_R   0.628022 0.477195 0.387294 0.363528
C53   C     C_R   0.335111 0.978130 0.648714 -0.304714
C54   C     C_R   0.663617 0.475621 0.349923 -0.300867
H13   H     H_    0.314513 0.848809 0.653582 0.197686
H14   H     H_    0.683979 0.345828 0.344850 0.198782
C55   C     C_R   0.325060 0.140767 0.678744 -0.096926
C56   C     C_R   0.673735 0.638210 0.319949 -0.098651
O11   O     O_R   0.952390 0.727960 0.046760 -0.505903
O12   O     O_R   0.047610 0.227960 0.953240 -0.529470
O13   O     O_R   0.057740 0.395520 0.063240 -0.543657
O14   O     O_R   0.942260 0.895520 0.936760 -0.531063
C57   C     C_R   0.076529 0.564176 0.078515 0.698105
C58   C     C_R   0.923481 0.064227 0.921476 0.722490
O15   O     O_R   0.953370 0.398410 0.053530 -0.540700
O16   O     O_R   0.046630 0.898410 0.946470 -0.533482
O17   O     O_R   0.942530 0.225390 0.943510 -0.533365
O18   O     O_R   0.057470 0.725390 0.056490 -0.536396
C59   C     C_R   0.937443 0.567270 0.065766 0.786516
C60   C     C_R   0.062808 0.066960 0.934693 0.707557
O19   O     O_3   0.996600 0.557860 0.963960 -0.370061
O20   O     O_3   0.003400 0.057860 0.036040 -0.369432
V3    V     V_3+5 0.000630 0.284060 0.006690 1.493731
V4    V     V_3+5 0.999370 0.784060 0.993310 1.522431
O21   O     O_3   0.756125 0.343095 0.845096 -0.645513
H15   H     H_    0.725202 0.398189 0.856852 0.319510
O22   O     O_3   0.243468 0.845606 0.155491 -0.646686
H16   H     H_    0.274282 0.901786 0.143839 0.319190
O23   O     O_3   0.162620 0.258393 0.968767 -0.612539
H17   H     H_    0.141849 0.204264 0.995267 0.291756
O24   O     O_3   0.852500 0.812794 0.041325 -0.629051
H18   H     H_    0.823675 0.904014 0.039077 0.327670
O25   O     O_3   0.232143 0.277156 0.898938 -0.511516
C61   C     C_3   0.268460 0.148350 0.929138 -0.151733
H19   H     H_    0.305571 0.223752 0.944221 0.145195
H20   H     H_    0.276250 0.030549 0.900965 0.115760
H21   H     H_    0.255518 0.091587 0.967703 0.144593
O26   O     O_3   0.774937 0.822851 0.108675 -0.530269
C62   C     C_3   0.735729 0.720307 0.072247 -0.231171
H22   H     H_    0.701583 0.813686 0.059289 0.158651
H23   H     H_    0.723083 0.596285 0.094750 0.138817
H24   H     H_    0.748440 0.674190 0.032357 0.136066
O27   O     O_3   0.117461 0.919451 0.752372 -0.511103
C63   C     C_3   0.091695 0.052212 0.712452 -0.101791
H25   H     H_    0.116321 0.178259 0.709696 0.117426
H26   H     H_    0.054019 0.095907 0.723025 0.146446
H27   H     H_    0.083313 0.985459 0.669360 0.158886
O28   O     O_3   0.872538 0.364068 0.237907 -0.507684
C64   C     C_3   0.901705 0.465886 0.284284 -0.106101
H28   H     H_    0.881661 0.598378 0.292651 0.112188
H29   H     H_    0.941280 0.498138 0.276931 0.142346
H30   H     H_    0.906090 0.377589 0.323513 0.160035
O29   O     O_3   0.045909 0.897160 0.819726 -0.609703
H31   H     H_    0.018635 0.935350 0.840728 0.286875
O30   O     O_3   0.945832 0.346708 0.172426 -0.607068
H32   H     H_    0.976171 0.395033 0.158039 0.284343
O31   O     O_3   0.340480 0.474477 0.697014 -0.537360
C65   C     C_3   0.384525 0.543220 0.735243 -0.223118
H33   H     H_    0.412052 0.611265 0.711564 0.124668
H34   H     H_    0.404303 0.430632 0.764306 0.120038
H35   H     H_    0.371731 0.653292 0.762664 0.177728
O32   O     O_3   0.658070 0.972591 0.302017 -0.536851
C66   C     C_3   0.614912 0.028705 0.260220 -0.217435
H36   H     H_    0.582902 0.080777 0.280467 0.118582
H37   H     H_    0.601052 0.912733 0.229318 0.120897
H38   H     H_    0.626860 0.147555 0.235331 0.178863
O33   O     O_3   0.379204 0.818248 0.581726 -0.638003
H39   H     H_    0.355635 0.716979 0.589752 0.296434
O34   O     O_3   0.620184 0.316996 0.417645 -0.637364
H40   H     H_    0.643605 0.215383 0.409421 0.296450
O35   O     O_3   0.745368 0.877578 0.660333 -0.603320
H41   H     H_    0.713722 0.834403 0.633470 0.302032
O36   O     O_3   0.254862 0.376519 0.339286 -0.603263
H42   H     H_    0.286536 0.333761 0.366203 0.302370
O37   O     O_3   0.729879 0.462157 0.703948 -0.648594
H43   H     H_    0.699407 0.480935 0.672423 0.298542
O38   O     O_3   0.269585 0.961872 0.296344 -0.647999
H44   H     H_    0.300104 0.980843 0.327792 0.298976
O39   O     O_3   0.759400 0.247076 0.642774 -0.541436
C67   C     C_3   0.782568 0.405171 0.621430 -0.105412
H45   H     H_    0.804246 0.355586 0.588610 0.151287
H46   H     H_    0.810412 0.481223 0.655153 0.175053
H47   H     H_    0.752100 0.504214 0.600025 0.138105
O40   O     O_3   0.240541 0.745672 0.357461 -0.541484
C68   C     C_3   0.217115 0.903086 0.378932 -0.105797
H48   H     H_    0.195699 0.852829 0.411885 0.151547
H49   H     H_    0.188987 0.978464 0.345306 0.173737
H50   H     H_    0.247406 0.002898 0.400203 0.138864
O41   O     O_3   0.843790 0.206957 0.723789 -0.640718
H51   H     H_    0.836157 0.094379 0.698841 0.348218
O42   O     O_3   0.156158 0.703754 0.276557 -0.642327
H52   H     H_    0.164145 0.591006 0.301362 0.347851
O43   O     O_3   0.667109 0.344793 0.769822 -0.529564
C69   C     C_3   0.613821 0.322301 0.770105 -0.248241
H53   H     H_    0.607927 0.263221 0.811600 0.117022
H54   H     H_    0.594200 0.231901 0.734127 0.128194
H55   H     H_    0.595044 0.463096 0.764808 0.159064
O44   O     O_3   0.332690 0.846498 0.230504 -0.529766
C70   C     C_3   0.386007 0.824471 0.230249 -0.248666
H56   H     H_    0.391990 0.766211 0.188674 0.117467
H57   H     H_    0.405667 0.733568 0.266082 0.128269
H58   H     H_    0.404682 0.965328 0.235807 0.158932
O45   O     O_3   0.738766 0.024129 0.861877 -0.562773
C71   C     C_3   0.709779 0.085258 0.902567 -0.245376
H59   H     H_    0.700326 0.960362 0.926719 0.156604
H60   H     H_    0.733159 0.182418 0.934176 0.168187
H61   H     H_    0.672619 0.151763 0.882143 0.116493
O46   O     O_3   0.261288 0.527601 0.137820 -0.563328
C72   C     C_3   0.290197 0.590653 0.097310 -0.215058
H62   H     H_    0.327250 0.657357 0.117917 0.106555
H63   H     H_    0.299856 0.466729 0.072842 0.165779
H64   H     H_    0.266682 0.688308 0.065958 0.171399

loop_
_geom_bond_atom_site_label_1
_geom_bond_atom_site_label_2
_ccdc_geom_bond_type
N4    C42   A    
O41   H51   S    
N1    N3    A    
O37   H43   S    
C32   O26   S    
C5    C13   S    
O23   H17   S    
O1    C3    A    
C65   H35   S    
C64   H30   S    
O2    C4    A    
C66   H38   S    
C2    O7    A    
O20   V4    S    
O39   C67   S    
O29   H31   S    
C68   H49   S    
C8    C14   S    
O42   H52   S    
O26   C62   S    
O5    C3    A    
O46   C72   S    
C45   O31   S    
C12   C57   S    
C20   O46   S    
C46   C48   A    
C7    C9    S    
O11   C59   A    
O24   H18   S    
C4    C27   S    
C35   O27   S    
C54   H14   S    
C35   C37   A    
C9    C17   S    
C12   C24   T    
C36   C38   A    
O25   C61   S    
C58   O17   A    
C41   C55   S    
C61   H19   S    
C14   C22   S    
C38   C40   A    
C7    O39   S    
N5    N7    A    
C62   H24   S    
C66   H37   S    
C69   H55   S    
O43   C69   S    
C11   C23   T    
N3    C41   A    
C8    O38   S    
C29   C39   A    
C42   C56   S    
O34   H40   S    
C15   C17   S    
C6    C14   S    
C29   O23   S    
O6    C4    A    
C18   C20   S    
O12   C60   A    
C38   O30   S    
C40   C59   S    
O15   V3    S    
O5    V1    S    
C5    O35   S    
O13   C57   A    
C2    C49   S    
C25   C27   T    
O11   V4    S    
C11   C58   S    
C26   C28   T    
C15   H9    S    
O17   V3    S    
O13   V3    S    
O20   V3    S    
C49   C51   A    
C30   C32   A    
C66   H36   S    
C68   H50   S    
C67   H46   S    
C31   C33   A    
C10   C18   S    
C32   C34   A    
C37   C39   A    
C22   O44   S    
C53   H13   S    
C72   H62   S    
C7    O37   S    
C34   C44   S    
C65   H33   S    
N8    C44   A    
C54   C56   A    
C70   H57   S    
C68   H48   S    
N7    C43   A    
C53   C55   A    
C57   O18   A    
N1    C43   A    
C63   H27   S    
C64   H29   S    
C70   H56   S    
C29   C31   A    
C16   C18   S    
O4    V2    S    
H2    C16   S    
O16   C60   A    
C21   O43   S    
C67   H47   S    
C48   C50   A    
O38   H44   S    
C47   C49   A    
C19   O45   S    
C72   H63   S    
C47   H11   S    
C3    C28   S    
O19   V3    S    
O1    V2    S    
C17   C23   S    
O14   C58   A    
O2    V1    S    
C45   C47   A    
C16   H10   S    
C62   H22   S    
C61   H20   S    
C46   O32   S    
O4    C2    A    
C69   H53   S    
C51   C53   A    
C8    C10   S    
C50   C52   A    
C33   C35   A    
O40   C68   S    
C5    C15   S    
C18   C24   S    
C6    C16   S    
O21   H15   S    
C71   H60   S    
C64   H28   S    
C7    C13   S    
C20   O22   S    
C10   O42   S    
O3    V1    S    
O44   C70   S    
C19   C21   S    
C46   C56   A    
C67   H45   S    
C70   H58   S    
C9    H3    S    
O14   V4    S    
C63   H26   S    
C13   C25   S    
C5    H7    S    
C52   C54   A    
O32   C66   S    
O3    C1    A    
C6    H8    S    
N6    N8    A    
O31   C65   S    
C65   H34   S    
C8    O40   S    
O30   H32   S    
O18   V4    S    
O16   V4    S    
C61   H21   S    
C71   H61   S    
C20   C22   S    
C39   C60   S    
O7    V1    S    
C72   H64   S    
C1    O8    A    
N2    N4    A    
C9    O41   S    
O22   H16   S    
C22   H6    S    
C1    C50   S    
O45   C71   S    
O27   C63   S    
O8    V2    S    
C36   O28   S    
C63   H25   S    
C30   O24   S    
C37   O29   S    
C17   C19   S    
C34   C36   A    
O28   C64   S    
O19   V4    S    
C48   H12   S    
C62   H23   S    
C19   O21   S    
C45   C55   A    
C33   C43   S    
C52   O34   S    
O12   V3    S    
C51   O33   S    
O6    V2    S    
C10   H4    S    
O9    V2    S    
C13   C21   S    
O36   H42   S    
C42   N6    A    
N2    C44   A    
O10   V1    S    
C14   C26   S    
C30   C40   A    
C41   N5    A    
C71   H59   S    
O33   H39   S    
C21   H5    S    
O15   C59   A    
C6    O36   S    
C31   O25   S    
H1    C15   S    
C69   H54   S    
O35   H41   S    
