data_mof_unit_15697.cif
_audit_creation_date              2012-12-11T14:54:36-0500
_audit_creation_method            fapswitch 2.2
_symmetry_space_group_name_H-M    P1
_symmetry_Int_Tables_number       1
_space_group_crystal_system       triclinic
_cell_length_a                    18.908666
_cell_length_b                    10.951162
_cell_length_c                    18.768889
_cell_angle_alpha                 89.915504
_cell_angle_beta                  90.165309
_cell_angle_gamma                 89.826406
_cell_volume                      3886.47055013

loop_
_atom_site_label
_atom_site_type_symbol
_atom_type_description
_atom_site_fract_x
_atom_site_fract_y
_atom_site_fract_z
_atom_type_partial_charge
C1    C     C_R   0.730467 0.377719 0.646190 0.539048
C2    C     C_R   0.299904 0.860534 0.461522 -0.151260
C3    C     C_R   0.947687 0.553954 0.478295 -0.155167
C4    C     C_3   0.815519 0.177815 0.134692 -0.062388
C5    C     C_3   0.096197 0.054319 0.931891 -0.066051
C6    C     C_3   0.403048 0.554729 0.068082 -0.065299
C7    C     C_3   0.683090 0.677751 0.865407 -0.063959
C8    C     C_3   0.364548 0.055891 0.883130 -0.090369
C9    C     C_3   0.477092 0.871135 0.053909 -0.080555
C10   C     C_3   0.023344 0.371042 0.946370 -0.081192
C11   C     C_3   0.135628 0.555629 0.117004 -0.085344
C12   C     C_R   0.199071 0.363380 0.537806 -0.134308
C13   C     C_R   0.799897 0.360530 0.461526 -0.152115
C14   C     C_R   0.700558 0.850150 0.464178 -0.126498
C15   C     C_R   0.299338 0.851529 0.535422 -0.141197
C16   C     C_R   0.200583 0.350087 0.464188 -0.126932
C17   C     C_R   0.799329 0.351505 0.535424 -0.140234
C18   C     C_R   0.748259 0.919422 0.423552 0.032541
C19   C     C_R   0.248379 0.915899 0.574706 0.034325
C20   C     C_R   0.248249 0.419414 0.423552 0.032072
C21   C     C_R   0.269077 0.378076 0.353430 0.539524
C22   C     C_R   0.748395 0.415921 0.574717 0.035018
C23   C     C_R   0.789357 0.009094 0.455981 -0.146583
C24   C     C_R   0.201467 0.995195 0.540288 -0.136941
C25   C     C_R   0.289310 0.509145 0.455972 -0.146775
C26   C     C_R   0.701519 0.495294 0.540314 -0.136591
C27   C     C_R   0.790538 0.017733 0.528922 -0.134880
C28   C     C_R   0.200631 0.001332 0.467480 -0.127973
C29   C     C_R   0.290496 0.517794 0.528914 -0.134689
C30   C     C_R   0.700690 0.501467 0.467507 -0.128499
C31   C     C_R   0.745996 0.944505 0.570587 0.032215
C32   C     C_R   0.230466 0.877718 0.646189 0.548744
C33   C     C_R   0.250431 0.935802 0.427321 0.038445
C34   C     C_R   0.245993 0.444512 0.570587 0.034715
C35   C     C_R   0.750452 0.435865 0.427337 0.035742
C36   C     C_R   0.461543 0.082336 0.951651 0.268854
C37   C     C_R   0.457119 0.068111 0.024628 0.273328
C38   C     C_R   0.042961 0.567872 0.975446 0.275195
C39   C     C_R   0.038558 0.582044 0.048410 0.267290
C40   C     C_R   0.484772 0.159179 0.070537 -0.009239
C41   C     C_R   0.506444 0.171348 0.924759 -0.008669
C42   C     C_R   0.993588 0.671356 0.075232 -0.012160
C43   C     C_R   0.769080 0.878075 0.353432 0.530054
C44   C     C_R   0.015187 0.659201 0.929447 -0.006370
C45   C     C_R   0.523984 0.255436 0.042776 -0.143159
C46   C     C_R   0.537292 0.258734 0.970175 -0.151504
C47   C     C_R   0.962704 0.759133 0.029744 -0.152902
C48   C     C_R   0.975959 0.755792 0.957129 -0.143551
C49   C     C_R   0.530238 0.155433 0.647832 0.550411
C50   C     C_R   0.437529 0.150917 0.361062 0.557881
C51   C     C_R   0.030262 0.655432 0.647813 0.545941
C52   C     C_R   0.937541 0.650917 0.361060 0.557445
C53   C     C_R   0.792914 0.042260 0.978701 0.113172
C54   C     C_3   0.472883 0.388714 0.462084 -0.270974
C55   C     C_R   0.169345 0.915324 0.051317 0.075566
C56   C     C_R   0.330839 0.415303 0.948753 0.076384
C57   C     C_R   0.706656 0.541960 0.021286 0.112555
C58   C     C_R   0.792734 0.031212 0.052316 0.277654
C59   C     C_R   0.161489 0.897693 0.977837 0.263273
C60   C     C_R   0.338606 0.397807 0.022271 0.263383
C61   C     C_R   0.706668 0.530728 0.947694 0.278048
C62   C     C_R   0.745522 0.948185 0.084597 -0.013530
C63   C     C_R   0.217476 0.845701 0.937905 -0.011472
C64   C     C_R   0.282764 0.345632 0.062166 -0.012669
C65   C     C_3   0.491252 0.392451 0.540738 -0.277409
C66   C     C_R   0.754228 0.447941 0.915408 -0.013563
C67   C     C_R   0.685254 0.912430 0.047271 -0.190219
C68   C     C_R   0.278502 0.805333 0.973629 -0.178792
C69   C     C_R   0.222038 0.304859 0.026375 -0.178171
C70   C     C_R   0.814738 0.412401 0.952678 -0.190207
C71   C     C_R   0.677730 0.943004 0.975480 -0.191603
C72   C     C_R   0.287809 0.831632 0.045629 -0.153189
C73   C     C_R   0.212756 0.331090 0.954315 -0.152667
C74   C     C_R   0.822245 0.442905 0.024438 -0.191215
C75   C     C_R   0.733730 0.999878 0.939039 -0.035164
C76   C     C_3   0.973035 0.888698 0.462002 -0.269465
C77   C     C_R   0.236516 0.897383 0.082984 -0.028173
C78   C     C_R   0.263798 0.397141 0.916998 -0.027984
C79   C     C_R   0.766099 0.499736 0.060900 -0.036021
C80   C     C_R   0.740427 0.973488 0.645640 0.550398
C81   C     C_R   0.258707 0.970598 0.353359 0.538549
C82   C     C_R   0.240428 0.473489 0.645639 0.544495
C83   C     C_R   0.758712 0.470613 0.353364 0.544798
C84   C     C_R   0.731404 0.384260 0.850304 0.533933
C85   C     C_R   0.289791 0.330449 0.140059 0.576189
C86   C     C_R   0.210277 0.830329 0.860053 0.576393
C87   C     C_3   0.991395 0.892452 0.540659 -0.279956
C88   C     C_R   0.768576 0.884249 0.149691 0.535999
C89   C     C_R   0.532984 0.158030 0.853403 0.563897
C90   C     C_R   0.465761 0.155871 0.145310 0.568843
C91   C     C_R   0.034213 0.655929 0.854677 0.557379
C92   C     C_R   0.967021 0.657980 0.146592 0.574553
C93   C     C_R   0.728150 0.021377 0.861808 0.566360
C94   C     C_R   0.256133 0.964770 0.148092 0.564429
C95   C     C_R   0.243953 0.464759 0.851883 0.561378
C96   C     C_R   0.771775 0.521441 0.138082 0.567496
C97   C     C_R   0.459342 0.155889 0.434810 0.022533
C98   C     C_R   0.699044 0.863433 0.537797 -0.135280
C99   C     C_R   0.495055 0.163594 0.579590 0.015790
C100  C     C_R   0.959383 0.655879 0.434789 0.021253
C101  C     C_R   0.995103 0.663596 0.579559 0.016534
C102  C     C_R   0.493779 0.257462 0.463308 0.033518
C103  C     C_R   0.511570 0.260984 0.534611 0.034077
C104  C     C_R   0.993865 0.757418 0.463265 0.034462
C105  C     C_R   0.011658 0.760950 0.534566 0.035853
C106  C     C_R   0.464435 0.058083 0.550331 -0.151626
C107  C     C_R   0.447672 0.053945 0.478309 -0.155791
C108  C     C_R   0.964457 0.558098 0.550313 -0.151996
Cr1   Cr    Cr6+3 0.771950 0.169480 0.750100 1.023510
Cr2   Cr    Cr6+3 0.383410 0.010620 0.249390 1.018900
Cr3   Cr    Cr6+3 0.116590 0.510620 0.750610 1.023005
Cr4   Cr    Cr6+3 0.883410 0.510620 0.249390 1.014527
Cr5   Cr    Cr6+3 0.228050 0.169480 0.249900 1.041042
Cr6   Cr    Cr6+3 0.271950 0.669480 0.750100 1.041087
Cr7   Cr    Cr6+3 0.728050 0.669480 0.249900 1.023908
Cr8   Cr    Cr6+3 0.614930 0.323340 0.749170 1.051527
Cr9   Cr    Cr6+3 0.385070 0.323340 0.250830 1.027154
Cr10  Cr    Cr6+3 0.114930 0.823340 0.749170 1.029757
Cr11  Cr    Cr6+3 0.885070 0.823340 0.250830 1.048485
Cr12  Cr    Cr6+3 0.616590 0.010620 0.750610 1.018270
H1    H     H_    0.455193 0.977628 0.582624 0.137490
H2    H     H_    0.336270 0.805256 0.071597 0.165557
H3    H     H_    0.164454 0.304546 0.928297 0.165096
H4    H     H_    0.869751 0.414500 0.052352 0.164401
H5    H     H_    0.915966 0.901110 0.450950 0.159092
H6    H     H_    0.037620 0.951411 0.552686 0.144266
H7    H     H_    0.415808 0.401035 0.451042 0.159101
H8    H     H_    0.537456 0.451459 0.552772 0.145269
H9    H     H_    0.508888 0.444541 0.428609 0.142675
H10   H     H_    0.444526 0.406961 0.575638 0.142896
H11   H     H_    0.009076 0.944442 0.428519 0.145933
H12   H     H_    0.425152 0.971518 0.456611 0.134399
H13   H     H_    0.944670 0.907046 0.575545 0.139953
H14   H     H_    0.662357 0.809645 0.568934 0.117633
H15   H     H_    0.339527 0.811200 0.431427 0.110923
H16   H     H_    0.162411 0.309549 0.568950 0.117454
H17   H     H_    0.839494 0.311148 0.431422 0.111227
H18   H     H_    0.667417 0.781573 0.439672 0.124857
H19   H     H_    0.336858 0.791567 0.561539 0.116827
H20   H     H_    0.167471 0.281456 0.439692 0.125715
H21   H     H_    0.836822 0.291482 0.561532 0.115903
H22   H     H_    0.825505 0.065206 0.425543 0.123836
H23   H     H_    0.955191 0.477662 0.582614 0.134652
H24   H     H_    0.162033 0.047041 0.569259 0.120549
H25   H     H_    0.325435 0.565292 0.425527 0.123752
H26   H     H_    0.662103 0.547167 0.569296 0.120989
H27   H     H_    0.826246 0.083187 0.552471 0.130084
H28   H     H_    0.161939 0.061398 0.443090 0.128341
H29   H     H_    0.326179 0.583295 0.552457 0.130826
H30   H     H_    0.662026 0.561593 0.443124 0.127168
H31   H     H_    0.545967 0.324840 0.077321 0.181708
H32   H     H_    0.572887 0.327721 0.949771 0.198338
H33   H     H_    0.927095 0.828411 0.050097 0.197853
H34   H     H_    0.925132 0.471547 0.456608 0.134676
H35   H     H_    0.953930 0.825448 0.922511 0.180412
H36   H     H_    0.780505 0.240710 0.104046 0.123043
H37   H     H_    0.858762 0.232379 0.158582 0.170223
H38   H     H_    0.785279 0.136117 0.179134 0.115482
H39   H     H_    0.147014 0.089706 0.910358 0.100141
H40   H     H_    0.081993 0.105930 0.980573 0.146349
H41   H     H_    0.054925 0.072565 0.891161 0.156507
H42   H     H_    0.444150 0.573116 0.108869 0.157285
H43   H     H_    0.352009 0.589877 0.089452 0.100802
H44   H     H_    0.417111 0.606441 0.019358 0.146294
H45   H     H_    0.645650 0.858011 0.073138 0.164101
H46   H     H_    0.713204 0.636473 0.820707 0.112777
H47   H     H_    0.718115 0.740207 0.895999 0.122337
H48   H     H_    0.639576 0.732762 0.841891 0.169236
H49   H     H_    0.327226 0.071076 0.928075 0.130766
H50   H     H_    0.338701 0.993985 0.844506 0.168611
H51   H     H_    0.374785 0.143465 0.854765 0.111929
H52   H     H_    0.526707 0.902392 0.080013 0.117185
H53   H     H_    0.488451 0.834761 0.999857 0.170508
H54   H     H_    0.456978 0.795509 0.087189 0.113368
H55   H     H_    0.973530 0.402696 0.920527 0.115362
H56   H     H_    0.320546 0.758889 0.945357 0.178316
H57   H     H_    0.012307 0.334261 0.000440 0.170415
H58   H     H_    0.043492 0.295647 0.912897 0.112319
H59   H     H_    0.172972 0.570635 0.072069 0.128467
H60   H     H_    0.161625 0.493922 0.155885 0.171576
H61   H     H_    0.125082 0.643312 0.145080 0.116792
H62   H     H_    0.180162 0.258188 0.054629 0.178301
H63   H     H_    0.854613 0.358364 0.926761 0.163489
H64   H     H_    0.630400 0.914474 0.947528 0.164431
I1    I     I_    0.891838 0.105984 0.936502 -0.407050
I2    I     I_    0.076900 0.962942 0.111848 -0.310044
I3    I     I_    0.423214 0.463450 0.888382 -0.318761
I4    I     I_    0.607694 0.606060 0.063621 -0.403984
O1    O     O_R   0.787510 0.042610 0.670410 -0.523945
O2    O     O_R   0.454250 0.051070 0.169440 -0.479563
O3    O     O_R   0.045750 0.551070 0.830560 -0.486140
O4    O     O_R   0.954250 0.551070 0.169440 -0.480659
O5    O     O_R   0.681210 0.959150 0.825320 -0.532970
O6    O     O_R   0.318790 0.959150 0.174680 -0.480424
O7    O     O_R   0.181210 0.459150 0.825320 -0.481263
O8    O     O_R   0.818790 0.459150 0.174680 -0.531547
O9    O     O_3   0.667820 0.167810 0.749960 -0.274346
O10   O     O_3   0.332180 0.167810 0.250040 -0.294042
O11   O     O_3   0.167820 0.667810 0.749960 -0.273285
O12   O     O_R   0.212490 0.042610 0.329590 -0.519215
O13   O     O_3   0.832180 0.667810 0.250040 -0.294839
O14   O     O_R   0.765670 0.292090 0.675090 -0.510129
O15   O     O_R   0.234330 0.292090 0.324910 -0.502805
O16   O     O_R   0.265670 0.792090 0.675090 -0.503799
O17   O     O_R   0.734330 0.792090 0.324910 -0.508996
O18   O     O_R   0.670220 0.409020 0.668560 -0.527207
O19   O     O_R   0.329780 0.409020 0.331440 -0.538862
O20   O     O_R   0.170220 0.909020 0.668560 -0.526692
O21   O     O_R   0.829780 0.909020 0.331440 -0.539423
O22   O     O_R   0.556580 0.251590 0.674980 -0.491941
O23   O     O_R   0.287510 0.542610 0.670410 -0.523796
O24   O     O_R   0.443420 0.251590 0.325020 -0.498756
O25   O     O_R   0.056580 0.751590 0.674980 -0.498842
O26   O     O_R   0.943420 0.751590 0.325020 -0.490605
O27   O     O_R   0.545890 0.049670 0.670030 -0.519738
O28   O     O_R   0.454110 0.049670 0.329970 -0.518111
O29   O     O_R   0.045890 0.549670 0.670030 -0.525692
O30   O     O_R   0.954110 0.549670 0.329970 -0.509989
O31   O     O_R   0.681340 0.957860 0.676500 -0.499842
O32   O     O_R   0.318660 0.957860 0.323500 -0.526568
O33   O     O_R   0.181340 0.457860 0.676500 -0.505059
O34   O     O_R   0.712490 0.542610 0.329590 -0.519258
O35   O     O_R   0.818660 0.457860 0.323500 -0.521415
O36   O     O_R   0.787380 0.044010 0.830940 -0.473752
O37   O     O_R   0.212620 0.044010 0.169060 -0.491155
O38   O     O_R   0.287380 0.544010 0.830940 -0.492947
O39   O     O_R   0.712620 0.544010 0.169060 -0.470673
O40   O     O_R   0.765540 0.293390 0.823910 -0.511163
O41   O     O_R   0.234460 0.293390 0.176090 -0.509187
O42   O     O_R   0.265540 0.793390 0.823910 -0.512232
O43   O     O_R   0.734460 0.793390 0.176090 -0.508687
O44   O     O_R   0.670090 0.410410 0.829090 -0.464190
O45   O     O_R   0.556450 0.252890 0.823790 -0.492748
O46   O     O_R   0.329910 0.410410 0.170910 -0.494651
O47   O     O_R   0.170090 0.910410 0.829090 -0.497136
O48   O     O_R   0.829910 0.910410 0.170910 -0.462764
O49   O     O_3   0.846062 0.088130 0.090481 -0.518189
O50   O     O_3   0.097990 0.927305 0.945298 -0.526558
O51   O     O_3   0.401903 0.427710 0.054874 -0.526673
O52   O     O_3   0.653028 0.587568 0.909550 -0.517793
O53   O     O_3   0.427688 0.000493 0.907213 -0.538950
O54   O     O_3   0.425304 0.964313 0.050724 -0.538757
O55   O     O_3   0.074954 0.463968 0.949443 -0.537692
O56   O     O_R   0.443550 0.252890 0.176210 -0.480842
O57   O     O_3   0.072703 0.500143 0.092952 -0.537964
O58   O     O_R   0.056450 0.752890 0.823790 -0.488414
O59   O     O_R   0.943550 0.752890 0.176210 -0.485561
O60   O     O_R   0.545750 0.051070 0.830560 -0.486602

loop_
_geom_bond_atom_site_label_1
_geom_bond_atom_site_label_2
_ccdc_geom_bond_type
C58   C62   A    
C74   H4    S    
C7    H48   S    
Cr3   O3    S    
C74   C79   A    
C55   C59   A    
C43   O17   A    
C80   O1    A    
C21   O15   A    
Cr7   O34   S    
C99   C103  A    
Cr11  O13   S    
C80   O31   A    
C65   H10   S    
C68   H56   S    
C31   C80   S    
C82   O33   A    
C16   H20   S    
C45   C46   A    
C51   O29   A    
Cr12  O27   S    
C15   C19   A    
C38   O55   S    
C41   C46   A    
C62   C67   A    
C36   O53   S    
Cr4   O13   S    
Cr1   O14   S    
C13   C35   A    
C37   C40   A    
C90   O56   A    
Cr12  O31   S    
C38   C39   A    
C55   C77   A    
C76   H11   S    
C30   H30   S    
C67   C71   A    
Cr2   O10   S    
C20   C25   A    
C1    O14   A    
C48   H35   S    
C14   H18   S    
C77   C94   S    
C100  C104  A    
C56   C78   A    
C17   H21   S    
C46   H32   S    
Cr3   O33   S    
C31   C98   A    
C89   O45   A    
C26   H26   S    
Cr3   O29   S    
C53   I1    S    
Cr4   O8    S    
C57   I4    S    
Cr8   O22   S    
C94   O37   A    
Cr3   O11   S    
C39   O57   S    
C83   O34   A    
Cr1   O9    S    
C3    C100  A    
Cr1   O40   S    
C4    H38   S    
C6    H42   S    
Cr1   O1    S    
C5    H39   S    
C11   H61   S    
Cr8   O45   S    
C70   C74   A    
C11   O57   S    
C12   H16   S    
Cr5   O10   S    
C23   H22   S    
C9    H53   S    
C23   C27   A    
C32   O20   A    
C58   O49   S    
Cr2   O32   S    
Cr10  O25   S    
Cr7   O43   S    
C97   C102  A    
C8    H51   S    
C68   C72   A    
C69   H62   S    
C83   O35   A    
C51   O25   A    
C101  C108  A    
C91   O58   A    
C50   O24   A    
C1    C22   S    
C54   H9    S    
Cr8   O44   S    
C101  C105  A    
C76   H5    S    
C10   H57   S    
C36   C41   A    
C53   C75   A    
C57   C79   A    
C81   O12   A    
Cr5   O41   S    
C19   C32   S    
C61   C66   A    
C104  C105  A    
C92   O59   A    
C8    H50   S    
C38   C44   A    
C14   C98   A    
C39   C42   A    
C15   H19   S    
C49   O27   A    
C25   C29   A    
C40   C45   A    
C88   O48   A    
Cr10  O11   S    
Cr11  O21   S    
C28   H28   S    
C5    O50   S    
C27   C31   A    
C85   O46   A    
C86   O42   A    
C65   H8    S    
C12   C16   A    
Cr2   O6    S    
C59   O50   S    
C85   O41   A    
C43   O21   A    
C54   C65   S    
C35   C83   S    
C87   H13   S    
C47   H33   S    
C73   H3    S    
C86   O47   A    
C73   C78   A    
C91   O3    A    
C29   C34   A    
Cr2   O2    S    
C3    H34   S    
C56   C60   A    
C2    H15   S    
C45   H31   S    
C10   H58   S    
Cr6   O23   S    
C49   O22   A    
C4    O49   S    
Cr2   O28   S    
C76   C104  S    
C96   O39   A    
Cr7   O39   S    
C72   C77   A    
C2    C15   A    
Cr6   O38   S    
C5    H41   S    
C32   O16   A    
C49   C99   S    
Cr11  O48   S    
Cr5   O37   S    
C4    H37   S    
C87   C105  S    
C56   I3    S    
C50   O28   A    
C78   C95   S    
C16   C20   A    
C5    H40   S    
C52   O26   A    
Cr12  O9    S    
C9    H54   S    
C55   I2    S    
C60   O51   S    
C64   C69   A    
C6    H43   S    
C69   C73   A    
C1    O18   A    
C44   C91   S    
C76   C87   S    
Cr11  O59   S    
Cr1   O36   S    
Cr4   O4    S    
C30   C35   A    
C2    C33   A    
C4    H36   S    
C7    H46   S    
C6    H44   S    
C28   C33   A    
C26   C30   A    
Cr6   O11   S    
Cr7   O17   S    
C63   C86   S    
C22   C26   A    
Cr10  O20   S    
Cr6   O16   S    
C11   H59   S    
C65   C103  S    
C12   C34   A    
C84   O40   A    
C64   C85   S    
C8    H49   S    
C75   C93   S    
C82   O23   A    
C90   O2    A    
C10   H55   S    
C99   C106  A    
C7    H47   S    
C63   C68   A    
C36   C37   A    
C50   C97   S    
C95   O7    A    
C37   O54   S    
C72   H2    S    
C41   C89   S    
C94   O6    A    
C61   O52   S    
C52   O30   A    
C71   H64   S    
C54   C102  S    
Cr9   O24   S    
C93   O5    A    
C10   O55   S    
C24   C28   A    
Cr12  O5    S    
C107  H12   S    
C47   C48   A    
Cr6   O42   S    
C25   H25   S    
C53   C58   A    
Cr10  O58   S    
C57   C61   A    
C11   H60   S    
C3    C108  A    
C51   C101  S    
Cr12  O60   S    
C54   H7    S    
C98   H14   S    
C59   C63   A    
C17   C22   A    
C89   O60   A    
C13   C17   A    
C60   C64   A    
C108  H23   S    
C21   O19   A    
C8    O53   S    
C19   C24   A    
C95   O38   A    
C79   C96   S    
C18   C43   S    
C71   C75   A    
Cr8   O9    S    
C81   O32   A    
C67   H45   S    
C66   C70   A    
C62   C88   S    
Cr9   O46   S    
C24   H24   S    
C18   C23   A    
Cr9   O19   S    
Cr7   O13   S    
C106  H1    S    
Cr4   O35   S    
Cr5   O12   S    
C52   C100  S    
C14   C18   A    
C93   O36   A    
C42   C92   S    
C42   C47   A    
Cr5   O15   S    
C102  C103  A    
C84   O44   A    
C9    O54   S    
C29   H29   S    
C66   C84   S    
C97   C107  A    
Cr9   O56   S    
C92   O4    A    
C70   H63   S    
C96   O8    A    
C88   O43   A    
C20   C21   S    
Cr11  O26   S    
C27   H27   S    
C106  C107  A    
Cr3   O7    S    
Cr4   O30   S    
C9    H52   S    
C6    O51   S    
C7    O52   S    
C34   C82   S    
C40   C90   S    
Cr10  O47   S    
C33   C81   S    
C87   H6    S    
Cr8   O18   S    
Cr9   O10   S    
C44   C48   A    
C13   H17   S    
