data_mof_unit_53294.cif
_audit_creation_date              2012-12-11T14:52:23-0500
_audit_creation_method            fapswitch 2.2
_symmetry_space_group_name_H-M    P1
_symmetry_Int_Tables_number       1
_space_group_crystal_system       triclinic
_cell_length_a                    18.803853
_cell_length_b                    10.922362
_cell_length_c                    18.734761
_cell_angle_alpha                 89.838729
_cell_angle_beta                  91.150882
_cell_angle_gamma                 89.632799
_cell_volume                      3846.91995935

loop_
_atom_site_label
_atom_site_type_symbol
_atom_type_description
_atom_site_fract_x
_atom_site_fract_y
_atom_site_fract_z
_atom_type_partial_charge
C1    C     C_R   0.271776 0.042839 0.853299 0.559397
C2    C     C_R   0.725818 0.038055 0.144342 0.563017
C3    C     C_R   0.771775 0.542832 0.853300 0.559386
C4    C     C_R   0.225818 0.538055 0.144342 0.563039
C5    C     C_3   0.504981 0.725538 0.976148 -0.132177
C6    C     C_3   0.452429 0.727316 0.038686 -0.150120
C7    C     C_3   0.005004 0.225556 0.976141 -0.132200
C8    C     C_3   0.952452 0.227300 0.038680 -0.150118
C9    C     C_R   0.306585 0.536622 0.962739 -0.096334
C10   C     C_R   0.698374 0.530124 0.036890 -0.070318
C11   C     C_R   0.806596 0.036664 0.962746 -0.096333
C12   C     C_R   0.198280 0.030296 0.036859 -0.070201
C13   C     C_R   0.300341 0.523807 0.036320 -0.106723
C14   C     C_R   0.702263 0.514675 0.963312 -0.066092
C15   C     C_R   0.800350 0.023857 0.036327 -0.106786
C16   C     C_R   0.202172 0.014882 0.963277 -0.066152
C17   C     C_R   0.237736 0.561962 0.069236 0.080221
C18   C     C_R   0.752093 0.581679 0.924292 0.063659
C19   C     C_R   0.737734 0.061963 0.069236 0.080207
C20   C     C_R   0.252117 0.081694 0.924298 0.063788
C21   C     C_R   0.179785 0.603952 0.027449 -0.061283
C22   C     C_R   0.794685 0.668644 0.958526 -0.105560
C23   C     C_R   0.679775 0.103907 0.027443 -0.061338
C24   C     C_R   0.294838 0.168426 0.958579 -0.105516
C25   C     C_R   0.184916 0.611903 0.954582 -0.086359
C26   C     C_R   0.792301 0.681268 0.031350 -0.094754
C27   C     C_R   0.684911 0.111862 0.954576 -0.086442
C28   C     C_R   0.292462 0.180983 0.031404 -0.094954
C29   C     C_R   0.249353 0.584586 0.921988 0.066940
C30   C     C_R   0.745037 0.610998 0.071442 0.073115
C31   C     C_R   0.749356 0.084585 0.921988 0.066937
C32   C     C_R   0.245060 0.110928 0.071455 0.073172
C33   C     C_R   0.515084 0.723357 0.541557 -0.099867
C34   C     C_R   0.518468 0.720481 0.468663 -0.109022
C35   C     C_R   0.015045 0.223333 0.541546 -0.099798
C36   C     C_R   0.018415 0.220463 0.468651 -0.108955
C37   C     C_R   0.511639 0.828723 0.428510 0.010766
C38   C     C_R   0.498514 0.832746 0.575995 0.015514
C39   C     C_R   0.011627 0.328725 0.428506 0.010752
C40   C     C_R   0.998515 0.332736 0.575994 0.015499
C41   C     C_R   0.499919 0.940546 0.462942 -0.125769
C42   C     C_R   0.492286 0.942357 0.536723 -0.125481
C43   C     C_R   0.999948 0.440558 0.462948 -0.125781
C44   C     C_R   0.992320 0.442363 0.536730 -0.125489
C45   C     C_R   0.438247 0.817176 0.862275 0.597432
C46   C     C_R   0.526692 0.822279 0.146220 0.576316
C47   C     C_R   0.938249 0.317176 0.862275 0.597434
C48   C     C_R   0.026693 0.322279 0.146219 0.576315
C49   C     C_R   0.221556 0.729948 0.519132 -0.149140
C50   C     C_R   0.786546 0.700963 0.476959 -0.155246
C51   C     C_R   0.721522 0.229909 0.519145 -0.149084
C52   C     C_R   0.286600 0.200848 0.476939 -0.155278
C53   C     C_R   0.212398 0.701576 0.448024 0.383934
C54   C     C_R   0.787323 0.693413 0.550037 0.368002
C55   C     C_R   0.712358 0.201535 0.448040 0.384008
C56   C     C_R   0.287363 0.193350 0.550017 0.367997
C57   C     C_R   0.254866 0.609864 0.417499 -0.046012
C58   C     C_R   0.744174 0.606833 0.582935 -0.031017
C59   C     C_R   0.754859 0.109878 0.417499 -0.046027
C60   C     C_R   0.244185 0.106831 0.582928 -0.031028
C61   C     C_R   0.313512 0.562266 0.455648 -0.157314
C62   C     C_R   0.689744 0.549129 0.544011 -0.181809
C63   C     C_R   0.813535 0.062344 0.455632 -0.157357
C64   C     C_R   0.189736 0.049164 0.544013 -0.181820
C65   C     C_R   0.323867 0.593472 0.526804 0.377152
C66   C     C_R   0.688365 0.557447 0.470381 0.349265
C67   C     C_R   0.823889 0.093546 0.526790 0.377130
C68   C     C_R   0.188356 0.057461 0.470381 0.349364
C69   C     C_R   0.274347 0.671272 0.560033 -0.045193
C70   C     C_R   0.739946 0.627758 0.436395 -0.030747
C71   C     C_R   0.774345 0.171287 0.560033 -0.045175
C72   C     C_R   0.239967 0.127694 0.436383 -0.030710
C73   C     C_R   0.260367 0.634163 0.851082 0.570325
C74   C     C_R   0.738191 0.641019 0.146501 0.564104
C75   C     C_R   0.760367 0.134163 0.851082 0.570325
C76   C     C_R   0.238196 0.140999 0.146507 0.564106
C77   C     C_R   0.269079 0.051654 0.648888 0.563177
C78   C     C_R   0.729937 0.049881 0.352642 0.569289
C79   C     C_R   0.769078 0.551654 0.648890 0.563210
C80   C     C_R   0.229938 0.549879 0.352641 0.569323
C81   C     C_R   0.470669 0.823877 0.647374 0.544785
C82   C     C_R   0.531575 0.823247 0.354157 0.534271
C83   C     C_R   0.970670 0.323875 0.647375 0.544794
C84   C     C_R   0.031572 0.323248 0.354155 0.534286
C85   C     C_R   0.275400 0.691703 0.636706 0.580966
C86   C     C_R   0.737364 0.646809 0.360249 0.585216
C87   C     C_R   0.775400 0.191707 0.636707 0.580990
C88   C     C_R   0.237380 0.146751 0.360236 0.585188
C89   C     C_3   0.451001 0.930071 0.036360 -0.154826
C90   C     C_3   0.503381 0.928123 0.973095 -0.136076
C91   C     C_3   0.950989 0.430055 0.036363 -0.154810
C92   C     C_3   0.003370 0.428142 0.973098 -0.136059
C93   C     C_3   0.407782 0.826902 0.999853 0.349650
C94   C     C_3   0.547737 0.828511 0.011740 0.378501
C95   C     C_3   0.907788 0.326870 0.999852 0.349641
C96   C     C_3   0.047742 0.328545 0.011739 0.378478
C97   C     C_3   0.459663 0.824786 0.937975 0.010961
C98   C     C_3   0.496149 0.830083 0.073939 0.003879
C99   C     C_3   0.959668 0.324788 0.937973 0.010974
C100  C     C_3   0.996154 0.330083 0.073937 0.003880
Cr1   Cr    Cr6+3 0.229630 0.835900 0.747350 1.025695
Cr2   Cr    Cr6+3 0.770370 0.835900 0.252650 1.029409
Cr3   Cr    Cr6+3 0.729630 0.335900 0.747350 1.025684
Cr4   Cr    Cr6+3 0.270370 0.335900 0.252650 1.029427
Cr5   Cr    Cr6+3 0.387410 0.989850 0.750850 1.065626
Cr6   Cr    Cr6+3 0.612590 0.989850 0.249150 1.078824
Cr7   Cr    Cr6+3 0.887410 0.489850 0.750850 1.065624
Cr8   Cr    Cr6+3 0.112590 0.489850 0.249150 1.078835
Cr9   Cr    Cr6+3 0.385800 0.677120 0.749340 1.092904
Cr10  Cr    Cr6+3 0.614200 0.677120 0.250660 1.099590
Cr11  Cr    Cr6+3 0.885800 0.177120 0.749340 1.092896
Cr12  Cr    Cr6+3 0.114200 0.177120 0.250660 1.099597
H1    H     H_    0.184406 0.792390 0.543228 0.176661
H2    H     H_    0.822924 0.764227 0.452441 0.180188
H3    H     H_    0.684347 0.292299 0.543251 0.176688
H4    H     H_    0.323012 0.264047 0.452417 0.180212
H5    H     H_    0.348194 0.494474 0.432224 0.168401
H6    H     H_    0.652437 0.489263 0.569835 0.160198
H7    H     H_    0.848242 0.994602 0.432194 0.168366
H8    H     H_    0.152411 0.989341 0.569846 0.160186
H9    H     H_    0.428153 0.012352 0.062180 0.126086
H10   H     H_    0.525248 0.009107 0.945379 0.125378
H11   H     H_    0.928126 0.512321 0.062185 0.126133
H12   H     H_    0.025225 0.509140 0.945386 0.125394
H13   H     H_    0.528383 0.642624 0.951466 0.136713
H14   H     H_    0.431593 0.646650 0.067299 0.123004
H15   H     H_    0.028419 0.142657 0.951456 0.136671
H16   H     H_    0.931633 0.146619 0.067290 0.122999
H17   H     H_    0.356928 0.514956 0.938514 0.116092
H18   H     H_    0.659969 0.478258 0.066666 0.115771
H19   H     H_    0.856946 0.015031 0.938525 0.116103
H20   H     H_    0.159768 0.978610 0.066600 0.115770
H21   H     H_    0.344323 0.485664 0.067425 0.098874
H22   H     H_    0.669015 0.446331 0.937757 0.126324
H23   H     H_    0.844341 0.985754 0.067437 0.098825
H24   H     H_    0.168817 0.946729 0.937684 0.126124
H25   H     H_    0.129369 0.628615 0.050635 0.129525
H26   H     H_    0.832978 0.722363 0.929646 0.124429
H27   H     H_    0.629352 0.128532 0.050624 0.129528
H28   H     H_    0.333229 0.221999 0.929739 0.124455
H29   H     H_    0.139491 0.647261 0.924369 0.116177
H30   H     H_    0.827226 0.748162 0.055909 0.125358
H31   H     H_    0.639481 0.147189 0.924358 0.116157
H32   H     H_    0.327498 0.247681 0.055991 0.125281
H33   H     H_    0.520713 0.637551 0.570379 0.188570
H34   H     H_    0.528554 0.632632 0.444209 0.215679
H35   H     H_    0.020649 0.137513 0.570359 0.188673
H36   H     H_    0.028464 0.132602 0.444190 0.215683
H37   H     H_    0.496384 0.025445 0.433028 0.162676
H38   H     H_    0.478800 0.027884 0.562420 0.171859
H39   H     H_    0.996445 0.525470 0.433042 0.162686
H40   H     H_    0.978867 0.527902 0.562436 0.171819
O1    O     O_R   0.214270 0.709000 0.827470 -0.516469
O2    O     O_R   0.785730 0.709000 0.172530 -0.531086
O3    O     O_R   0.714270 0.209000 0.827470 -0.516491
O4    O     O_R   0.285730 0.209000 0.172530 -0.531079
O5    O     O_R   0.445950 0.919440 0.676520 -0.504820
O6    O     O_R   0.554050 0.919440 0.323480 -0.505062
O7    O     O_R   0.945950 0.419440 0.676520 -0.504822
O8    O     O_R   0.054050 0.419440 0.323480 -0.505082
O9    O     O_R   0.456730 0.717630 0.669840 -0.487550
O10   O     O_R   0.543270 0.717630 0.330160 -0.508067
O11   O     O_R   0.956730 0.217630 0.669840 -0.487536
O12   O     O_R   0.043270 0.217630 0.330160 -0.508035
O13   O     O_R   0.320620 0.625640 0.672920 -0.402217
O14   O     O_R   0.679380 0.625640 0.327080 -0.422942
O15   O     O_R   0.820620 0.125640 0.672920 -0.402206
O16   O     O_R   0.179380 0.125640 0.327080 -0.422908
O17   O     O_3   0.334280 0.834290 0.749180 -0.311181
O18   O     O_3   0.665720 0.834290 0.250820 -0.270572
O19   O     O_3   0.834280 0.334290 0.749180 -0.311180
O20   O     O_3   0.165720 0.334290 0.250820 -0.270543
O21   O     O_R   0.236160 0.958490 0.823130 -0.503097
O22   O     O_R   0.763840 0.958490 0.176870 -0.508309
O23   O     O_R   0.736160 0.458490 0.823130 -0.503138
O24   O     O_R   0.263840 0.458490 0.176870 -0.508284
O25   O     O_R   0.332080 0.075470 0.831280 -0.523209
O26   O     O_R   0.667920 0.075470 0.168720 -0.519801
O27   O     O_R   0.832080 0.575470 0.831280 -0.523160
O28   O     O_R   0.167920 0.575470 0.168720 -0.519791
O29   O     O_R   0.446300 0.918110 0.826620 -0.501559
O30   O     O_R   0.553700 0.918110 0.173380 -0.494992
O31   O     O_R   0.946300 0.418110 0.826620 -0.501559
O32   O     O_R   0.053700 0.418110 0.173380 -0.494973
O33   O     O_R   0.457110 0.716200 0.831760 -0.527426
O34   O     O_R   0.542890 0.716200 0.168240 -0.512032
O35   O     O_R   0.957110 0.216200 0.831760 -0.527438
O36   O     O_R   0.042890 0.216200 0.168240 -0.512070
O37   O     O_R   0.320980 0.624310 0.823030 -0.513952
O38   O     O_R   0.679020 0.624310 0.176970 -0.489820
O39   O     O_R   0.820980 0.124310 0.823030 -0.513952
O40   O     O_R   0.179020 0.124310 0.176970 -0.489862
O41   O     O_R   0.213890 0.710430 0.665540 -0.520158
O42   O     O_R   0.786110 0.710430 0.334460 -0.542077
O43   O     O_R   0.713890 0.210430 0.665540 -0.520178
O44   O     O_R   0.286110 0.210430 0.334460 -0.542117
O45   O     O_R   0.235810 0.959820 0.673020 -0.548715
O46   O     O_R   0.764190 0.959820 0.326980 -0.530018
O47   O     O_R   0.735810 0.459820 0.673020 -0.548715
O48   O     O_R   0.264190 0.459820 0.326980 -0.530002
O49   O     O_R   0.331700 0.076900 0.669350 -0.435088
O50   O     O_R   0.668300 0.076900 0.330650 -0.427943
O51   O     O_R   0.831700 0.576900 0.669350 -0.435108
O52   O     O_R   0.168300 0.576900 0.330650 -0.427978
F1    F     F_    0.334555 0.825938 0.991920 -0.653961
F2    F     F_    0.621073 0.829049 0.019152 -0.639547
F3    F     F_    0.834562 0.325871 0.991920 -0.654010
F4    F     F_    0.121078 0.329116 0.019152 -0.639540
F5    F     F_    0.157597 0.755595 0.411380 -0.545445
F6    F     F_    0.834928 0.762006 0.587712 -0.563127
F7    F     F_    0.657517 0.255487 0.411420 -0.545413
F8    F     F_    0.334987 0.261922 0.587681 -0.563093
F9    F     F_    0.378926 0.540494 0.563569 -0.571790
F10   F     F_    0.638335 0.494381 0.432822 -0.570526
F11   F     F_    0.878971 0.040616 0.563545 -0.571904
F12   F     F_    0.138293 0.994454 0.432832 -0.570532

loop_
_geom_bond_atom_site_label_1
_geom_bond_atom_site_label_2
_ccdc_geom_bond_type
Cr2   O18   S    
C49   H1    S    
C49   C53   A    
C58   C62   A    
C55   C59   A    
C34   C37   A    
Cr4   O48   S    
C41   C42   A    
C14   C18   A    
C67   F11   S    
C35   C36   A    
C86   O14   A    
C21   H25   S    
C93   F1    S    
C5    C94   S    
Cr10  O10   S    
C45   O29   A    
C7    C8    S    
Cr4   O24   S    
Cr7   O19   S    
C24   H28   S    
C15   C19   A    
C7    C96   S    
C1    O21   A    
C50   C54   A    
C7    C99   S    
C37   C41   A    
C52   C72   A    
C64   C68   A    
Cr9   O9    S    
C23   H27   S    
C80   O52   A    
C39   C84   S    
C56   F8    S    
C83   O11   A    
C88   O44   A    
C92   H12   S    
C5    C6    S    
C30   C74   S    
Cr1   O45   S    
C96   F4    S    
C41   H37   S    
C94   C98   S    
C54   F6    S    
Cr12  O16   S    
Cr5   O49   S    
C92   C96   S    
C47   C99   S    
Cr8   O28   S    
C3    C18   S    
C4    O24   A    
C9    C13   A    
Cr6   O30   S    
C3    O27   A    
C73   O37   A    
Cr5   O29   S    
C74   O38   A    
C11   C15   A    
C8    H16   S    
C87   O15   A    
C12   C16   A    
C15   H23   S    
Cr9   O17   S    
C88   O16   A    
C94   F2    S    
C45   O33   A    
C27   H31   S    
Cr1   O17   S    
C2    O26   A    
C28   H32   S    
C23   C27   A    
C91   C100  S    
Cr2   O2    S    
C90   C97   S    
C67   C71   A    
C84   O12   A    
C9    C29   A    
Cr6   O26   S    
Cr4   O20   S    
C46   C98   S    
C11   C31   A    
C49   C69   A    
C12   C32   A    
Cr3   O19   S    
C90   H10   S    
C57   C80   S    
C40   C83   S    
Cr7   O51   S    
Cr9   O13   S    
C8    C95   S    
C1    O25   A    
C4    O28   A    
Cr12  O12   S    
C75   O39   A    
Cr2   O42   S    
C59   C78   S    
C72   C88   S    
Cr1   O41   S    
C90   C94   S    
C63   C67   A    
C52   H4    S    
C95   F3    S    
C64   H8    S    
C48   C100  S    
Cr5   O5    S    
C60   C77   S    
C59   C63   A    
C81   O5    A    
Cr1   O21   S    
Cr8   O32   S    
C61   H5    S    
C6    C98   S    
C16   H24   S    
C78   O50   A    
Cr11  O39   S    
C28   C32   A    
Cr11  O11   S    
C6    H14   S    
C47   O31   A    
C10   C14   A    
Cr9   O37   S    
C91   C92   S    
Cr3   O43   S    
C62   C66   A    
Cr3   O47   S    
C82   O10   A    
C51   C55   A    
Cr9   O33   S    
Cr6   O6    S    
C27   C31   A    
Cr10  O38   S    
C51   H3    S    
C56   C60   A    
C11   H19   S    
C68   C72   A    
C50   H2    S    
C74   O2    A    
C66   F10   S    
C19   C23   A    
C43   C44   A    
C10   H18   S    
C65   F9    S    
C76   O40   A    
C69   C85   S    
C61   C65   A    
Cr6   O50   S    
C63   H7    S    
C10   C30   A    
C31   C75   S    
Cr1   O1    S    
C16   C20   A    
C6    C93   S    
Cr3   O23   S    
C33   C34   A    
Cr4   O44   S    
C83   O7    A    
C82   O6    A    
C35   H35   S    
C46   O34   A    
C57   C61   A    
C33   H33   S    
Cr12  O40   S    
C71   C87   S    
C4    C17   S    
C58   C79   S    
Cr7   O31   S    
Cr3   O3    S    
C5    C97   S    
C26   C30   A    
C79   O51   A    
Cr8   O20   S    
C38   C81   S    
C22   C26   A    
Cr5   O17   S    
C37   C82   S    
Cr4   O4    S    
Cr11  O15   S    
C47   O35   A    
C70   C86   S    
C93   C97   S    
C43   H39   S    
C48   O32   A    
Cr12  O36   S    
C54   C58   A    
C3    O23   A    
C21   C25   A    
Cr10  O34   S    
C1    C20   S    
C53   C57   A    
C12   H20   S    
C79   O47   A    
Cr7   O27   S    
C2    C19   S    
C18   C22   A    
C13   H21   S    
C36   C39   A    
C25   H29   S    
C24   C28   A    
Cr5   O25   S    
C77   O49   A    
C32   C76   S    
Cr7   O7    S    
C51   C71   A    
C48   O36   A    
C84   O8    A    
Cr8   O8    S    
C9    H17   S    
Cr2   O22   S    
C14   H22   S    
C22   H26   S    
Cr11  O35   S    
C33   C38   A    
C44   H40   S    
C13   C17   A    
C89   C98   S    
C60   C64   A    
C85   O13   A    
C46   O30   A    
Cr2   O46   S    
C35   C40   A    
C50   C70   A    
C87   O43   A    
Cr8   O52   S    
C45   C97   S    
C86   O42   A    
C25   C29   A    
C81   O9    A    
Cr10  O14   S    
C85   O41   A    
C8    C100  S    
Cr12  O20   S    
C89   H9    S    
C36   H36   S    
C65   C69   A    
C96   C100  S    
C76   O4    A    
C5    H13   S    
C68   F12   S    
C95   C99   S    
C89   C93   S    
C42   H38   S    
C17   C21   A    
C62   H6    S    
C55   F7    S    
C38   C42   A    
C75   O3    A    
C40   C44   A    
C29   C73   S    
C66   C70   A    
Cr10  O18   S    
C91   C95   S    
C53   F5    S    
Cr6   O18   S    
C39   C43   A    
C73   O1    A    
C34   H34   S    
C91   H11   S    
C78   O46   A    
C7    H15   S    
C89   C90   S    
C26   H30   S    
C77   O45   A    
C20   C24   A    
C2    O22   A    
C52   C56   A    
C92   C99   S    
Cr11  O19   S    
C80   O48   A    
