data_mof_unit_60595.cif
_audit_creation_date              2012-12-10T19:42:52-0500
_audit_creation_method            fapswitch 2.2
_symmetry_space_group_name_H-M    P1
_symmetry_Int_Tables_number       1
_space_group_crystal_system       triclinic
_cell_length_a                    31.148532
_cell_length_b                    30.363459
_cell_length_c                    22.410173
_cell_angle_alpha                 90.023546
_cell_angle_beta                  45.739136
_cell_angle_gamma                 89.993998
_cell_volume                      15179.2331136

loop_
_atom_site_label
_atom_site_type_symbol
_atom_type_description
_atom_site_fract_x
_atom_site_fract_y
_atom_site_fract_z
_atom_type_partial_charge
C1    C     C_R   0.190958 0.189503 0.499229 0.888576
C2    C     C_R   0.838600 0.155338 0.504469 -0.151461
C3    C     C_R   0.939033 0.940906 0.500165 0.883765
C4    C     C_R   0.060267 0.059986 0.499869 0.888030
C5    C     C_R   0.939783 0.060054 0.500163 0.888276
C6    C     C_R   0.560220 0.560028 0.499807 0.885780
C7    C     C_R   0.439629 0.559981 0.500332 0.888434
C8    C     C_R   0.169374 0.249964 0.660983 0.903762
C9    C     C_R   0.830616 0.249948 0.339016 0.903322
C10   C     C_R   0.669384 0.749982 0.660985 0.905177
C11   C     C_R   0.330604 0.749969 0.339015 0.903372
C12   C     C_R   0.521689 0.214744 0.956985 -0.215436
C13   C     C_R   0.660324 0.655438 0.497408 -0.135745
C14   C     C_R   0.478992 0.214776 0.043159 -0.215291
C15   C     C_R   0.021678 0.714734 0.956981 -0.214458
C16   C     C_R   0.978975 0.714764 0.043155 -0.214423
C17   C     C_R   0.543561 0.254385 0.913265 0.104297
C18   C     C_R   0.457389 0.254470 0.086815 0.104411
C19   C     C_R   0.043555 0.754376 0.913264 0.104229
C20   C     C_R   0.957370 0.754457 0.086814 0.104267
C21   C     C_R   0.522573 0.295407 0.955357 0.116234
C22   C     C_R   0.478142 0.295435 0.044306 0.120133
C23   C     C_R   0.022578 0.795396 0.955367 0.117255
C24   C     C_R   0.338373 0.655162 0.504649 -0.155851
C25   C     C_R   0.978140 0.795423 0.044315 0.120842
C26   C     C_1   0.587470 0.252058 0.824187 -0.047683
C27   C     C_1   0.412708 0.252167 0.175855 -0.048725
C28   C     C_1   0.087483 0.752049 0.824186 -0.046423
C29   C     C_1   0.912699 0.752155 0.175855 -0.047733
C30   C     C_1   0.375308 0.250723 0.250441 -0.180408
C31   C     C_1   0.624707 0.250692 0.749572 -0.180161
C32   C     C_1   0.875302 0.750715 0.250441 -0.179232
C33   C     C_1   0.124719 0.750683 0.749572 -0.178408
C34   C     C_R   0.172756 0.110060 0.494699 -0.190160
C35   C     C_R   0.827734 0.110063 0.504392 -0.190874
C36   C     C_R   0.666996 0.610197 0.505832 -0.190337
C37   C     C_R   0.335243 0.610284 0.489651 -0.188578
C38   C     C_R   0.139499 0.078086 0.495791 -0.223289
C39   C     C_R   0.861004 0.078117 0.503331 -0.223483
C40   C     C_R   0.633811 0.578237 0.506803 -0.221570
C41   C     C_R   0.809059 0.189506 0.500727 0.888577
C42   C     C_R   0.368721 0.578317 0.488129 -0.222940
C43   C     C_R   0.094772 0.091452 0.498745 -0.056420
C44   C     C_R   0.905238 0.091516 0.501346 -0.056586
C45   C     C_R   0.594570 0.591537 0.498773 -0.052803
C46   C     C_R   0.404389 0.591286 0.502630 -0.064515
C47   C     C_R   0.087240 0.135934 0.496363 0.023290
C48   C     C_R   0.912356 0.135992 0.504478 0.023478
C49   C     C_R   0.590580 0.636105 0.489071 0.021198
C50   C     C_R   0.400959 0.634865 0.525546 0.031836
C51   C     C_3   0.045977 0.169468 0.511101 -0.536947
C52   C     C_R   0.690830 0.689530 0.499445 0.892374
C53   C     C_3   0.953057 0.169657 0.490873 -0.538904
C54   C     C_3   0.559874 0.669891 0.481656 -0.515349
C55   C     C_3   0.435121 0.668373 0.526641 -0.534220
C56   C     C_3   0.083413 0.204280 0.507419 0.286968
C57   C     C_3   0.915452 0.204405 0.494795 0.286804
C58   C     C_3   0.595910 0.704646 0.480952 0.286926
C59   C     C_3   0.399908 0.703387 0.526049 0.281380
C60   C     C_R   0.019059 0.249882 0.041579 0.149935
C61   C     C_R   0.980883 0.249876 0.958417 0.150089
C62   C     C_R   0.519054 0.749798 0.041581 0.142731
C63   C     C_R   0.309537 0.689492 0.499802 0.891331
C64   C     C_R   0.480884 0.749874 0.958413 0.142979
C65   C     C_R   0.957573 0.249870 0.086888 0.102989
C66   C     C_R   0.042369 0.249898 0.913108 0.102925
C67   C     C_R   0.457568 0.749518 0.086887 0.103236
C68   C     C_R   0.542370 0.749544 0.913108 0.103256
C69   C     C_R   0.330636 0.250066 0.338975 0.910470
C70   C     C_R   0.669353 0.250084 0.661027 0.911515
C71   C     C_R   0.830633 0.750062 0.338975 0.912734
C72   C     C_R   0.169360 0.750077 0.661027 0.914516
C73   C     C_R   0.938886 0.249867 0.045440 -0.241480
C74   C     C_R   0.119826 0.166372 0.493318 0.160015
C75   C     C_R   0.061055 0.249899 0.954556 -0.241316
C76   C     C_R   0.438884 0.749511 0.045435 -0.241059
C77   C     C_R   0.561053 0.749462 0.954559 -0.240937
C78   C     C_1   0.912736 0.249880 0.175924 -0.052979
C79   C     C_1   0.087209 0.249921 0.824073 -0.052897
C80   C     C_1   0.412726 0.749893 0.175922 -0.052923
C81   C     C_1   0.587214 0.749932 0.824075 -0.052718
C82   C     C_1   0.124837 0.249940 0.749469 -0.186552
C83   C     C_1   0.875121 0.249902 0.250529 -0.186480
C84   C     C_1   0.624850 0.749994 0.749471 -0.186397
C85   C     C_R   0.879702 0.166392 0.507556 0.161811
C86   C     C_1   0.375106 0.749959 0.250527 -0.185928
C87   C     C_R   0.333443 0.387514 0.499712 0.126020
C88   C     C_R   0.665281 0.387474 0.502821 0.125856
C89   C     C_R   0.833601 0.887462 0.499403 0.126034
C90   C     C_R   0.166667 0.887457 0.500066 0.126870
C91   C     C_R   0.342208 0.343072 0.501472 -0.130326
C92   C     C_R   0.657641 0.343045 0.498812 -0.129344
C93   C     C_R   0.842797 0.843035 0.500335 -0.130053
C94   C     C_R   0.157189 0.843030 0.499687 -0.129397
C95   C     C_R   0.384900 0.330844 0.503787 -0.197057
C96   C     C_R   0.622041 0.666503 0.488397 0.134418
C97   C     C_R   0.616064 0.330821 0.494285 -0.195566
C98   C     C_R   0.886058 0.830806 0.501541 -0.197170
C99   C     C_R   0.113681 0.830799 0.498975 -0.196058
C100  C     C_R   0.417073 0.363239 0.503493 -0.221070
C101  C     C_R   0.583973 0.363228 0.494422 -0.220410
C102  C     C_R   0.918050 0.863215 0.501587 -0.220558
C103  C     C_R   0.081708 0.863209 0.498884 -0.220127
C104  C     C_R   0.406884 0.407817 0.500541 -0.058623
C105  C     C_R   0.593181 0.407808 0.499338 -0.058466
C106  C     C_R   0.906929 0.907806 0.500440 -0.058250
C107  C     C_R   0.369900 0.665429 0.525591 0.159773
C108  C     C_R   0.093121 0.907801 0.499449 -0.058007
C109  C     C_R   0.364690 0.418567 0.498740 0.063965
C110  C     C_R   0.634251 0.418539 0.503380 0.064487
C111  C     C_R   0.864330 0.918532 0.499419 0.064123
C112  C     C_R   0.135978 0.918529 0.499955 0.064550
C113  C     C_3   0.335717 0.455737 0.494420 -0.557696
C114  C     C_3   0.662699 0.455691 0.508817 -0.558623
C115  C     C_3   0.833580 0.955686 0.498494 -0.560168
C116  C     C_3   0.166965 0.955680 0.500407 -0.560017
C117  C     C_R   0.309651 0.310263 0.500407 0.881838
C118  C     C_R   0.161390 0.155337 0.495540 -0.151137
C119  C     C_R   0.690312 0.310254 0.499668 0.883010
C120  C     C_R   0.809820 0.810253 0.500075 0.883287
C121  C     C_R   0.190166 0.810251 0.499955 0.883856
C122  C     C_3   0.299797 0.420108 0.495672 -0.040581
C123  C     C_3   0.698060 0.420036 0.508626 -0.039583
C124  C     C_3   0.798587 0.920029 0.497979 -0.040271
C125  C     C_3   0.201913 0.920020 0.501023 -0.040384
C126  C     C_R   0.560976 0.440896 0.499796 0.884346
C127  C     C_R   0.439048 0.440898 0.500161 0.884264
C128  C     C_R   0.060978 0.940901 0.499802 0.883710
H1    H     H_    0.462436 0.183580 0.075969 0.160349
H2    H     H_    0.552191 0.353610 0.491015 0.137466
H3    H     H_    0.951122 0.853594 0.502441 0.137552
H4    H     H_    0.048418 0.853589 0.498460 0.137435
H5    H     H_    0.308518 0.476947 0.550929 0.211634
H6    H     H_    0.690637 0.476659 0.451973 0.208956
H7    H     H_    0.805734 0.975406 0.556809 0.208844
H8    H     H_    0.194799 0.975228 0.441940 0.208553
H9    H     H_    0.368071 0.473270 0.433785 0.185974
H10   H     H_    0.629887 0.473459 0.569262 0.189121
H11   H     H_    0.864829 0.974704 0.439439 0.189381
H12   H     H_    0.537695 0.183558 0.924027 0.160294
H13   H     H_    0.135873 0.974872 0.559321 0.190004
H14   H     H_    0.309251 0.417817 0.437873 0.153716
H15   H     H_    0.687578 0.417581 0.567240 0.153628
H16   H     H_    0.807741 0.918713 0.440354 0.154057
H17   H     H_    0.192888 0.918876 0.558556 0.154563
H18   H     H_    0.205820 0.099425 0.495023 0.173101
H19   H     H_    0.795075 0.099421 0.503288 0.173299
H20   H     H_    0.696699 0.599564 0.512851 0.170647
H21   H     H_    0.309238 0.600146 0.475975 0.170569
H22   H     H_    0.147575 0.043609 0.496204 0.137484
H23   H     H_    0.962422 0.683569 0.075968 0.160750
H24   H     H_    0.853350 0.043643 0.502150 0.137616
H25   H     H_    0.638264 0.543775 0.514479 0.136634
H26   H     H_    0.367998 0.544296 0.473734 0.138239
H27   H     H_    0.051306 0.171243 0.456926 0.236592
H28   H     H_    0.947555 0.171250 0.545246 0.236455
H29   H     H_    0.572545 0.666880 0.421375 0.231964
H30   H     H_    0.423440 0.666996 0.586262 0.233302
H31   H     H_    0.000242 0.165888 0.575005 0.167956
H32   H     H_    0.998897 0.166436 0.426986 0.168340
H33   H     H_    0.511850 0.671168 0.540535 0.162260
H34   H     H_    0.037693 0.683547 0.924025 0.160732
H35   H     H_    0.482876 0.667768 0.466640 0.164057
H36   H     H_    0.059020 0.222005 0.567534 0.075742
H37   H     H_    0.939879 0.222447 0.434995 0.076580
H38   H     H_    0.568084 0.726896 0.536729 0.077452
H39   H     H_    0.428077 0.723586 0.467693 0.079112
H40   H     H_    0.108522 0.249915 0.918970 0.150813
H41   H     H_    0.891420 0.249860 0.081026 0.150539
H42   H     H_    0.608519 0.750005 0.918975 0.150821
H43   H     H_    0.391418 0.750094 0.081020 0.150603
H44   H     H_    0.085771 0.249895 0.045527 0.193396
H45   H     H_    0.393661 0.296592 0.505545 0.174519
H46   H     H_    0.008467 0.249842 0.147520 0.203107
H47   H     H_    0.914173 0.249856 0.954465 0.192836
H48   H     H_    0.991479 0.249848 0.852473 0.202862
H49   H     H_    0.585765 0.747287 0.045531 0.185523
H50   H     H_    0.508458 0.747028 0.147518 0.195345
H51   H     H_    0.414176 0.747476 0.954456 0.185026
H52   H     H_    0.491482 0.747201 0.852466 0.195151
H53   H     H_    0.205548 0.418700 0.566564 0.200197
H54   H     H_    0.223209 0.423102 0.629570 0.211376
H55   H     H_    0.791932 0.418993 0.440058 0.199685
H56   H     H_    0.608204 0.296569 0.490739 0.174167
H57   H     H_    0.775930 0.423060 0.375030 0.210863
H58   H     H_    0.704286 0.917235 0.569511 0.200846
H59   H     H_    0.722375 0.920676 0.632092 0.211435
H60   H     H_    0.296248 0.916884 0.429216 0.200762
H61   H     H_    0.277983 0.920355 0.366849 0.211285
H62   H     H_    0.536134 0.366147 0.937215 0.176470
H63   H     H_    0.581657 0.334369 0.842626 0.193505
H64   H     H_    0.469520 0.366774 0.064584 0.179238
H65   H     H_    0.422975 0.334385 0.157349 0.191782
H66   H     H_    0.035992 0.866156 0.937177 0.178051
H67   H     H_    0.895276 0.796551 0.502412 0.174516
H68   H     H_    0.081596 0.834358 0.842626 0.194374
H69   H     H_    0.969420 0.866753 0.064553 0.180469
H70   H     H_    0.922932 0.834375 0.157355 0.192396
H71   H     H_    0.110885 0.261764 0.454234 0.335181
H72   H     H_    0.888854 0.261652 0.548829 0.334189
H73   H     H_    0.642856 0.756316 0.414261 0.337225
H74   H     H_    0.364929 0.758575 0.586362 0.333435
H75   H     H_    0.104235 0.796543 0.498560 0.174544
H76   H     H_    0.449724 0.353614 0.505171 0.137673
N1    N     N_3   0.039567 0.249895 0.082505 -0.484219
N2    N     N_3   0.448458 0.335750 0.091827 -0.461257
N3    N     N_3   0.040890 0.835868 0.907137 -0.458927
N4    N     N_3   0.948696 0.835743 0.091850 -0.462788
N5    N     N_3   0.960377 0.249881 0.917489 -0.484504
N6    N     N_3   0.539558 0.755680 0.082522 -0.462553
N7    N     N_3   0.460382 0.755830 0.917488 -0.463004
N8    N     N_3   0.236045 0.420510 0.572288 -0.451122
N9    N     N_3   0.762159 0.420613 0.432980 -0.450901
N10   N     N_3   0.734963 0.919037 0.574907 -0.450770
N11   N     N_3   0.265494 0.918791 0.423969 -0.451245
N12   N     N_3   0.540577 0.335884 0.907107 -0.456869
O1    O     O_R   0.178350 0.230070 0.500010 -0.618658
O2    O     O_R   0.919740 0.045800 0.568860 -0.618324
O3    O     O_R   0.580260 0.545800 0.431140 -0.617979
O4    O     O_R   0.419740 0.545800 0.568860 -0.617642
O5    O     O_R   0.011410 0.045760 0.568860 -0.624485
O6    O     O_R   0.988590 0.045760 0.431140 -0.624651
O7    O     O_R   0.511410 0.545760 0.568860 -0.625185
O8    O     O_R   0.488590 0.545760 0.431140 -0.625672
O9    O     O_R   0.230030 0.178320 0.500020 -0.628736
O10   O     O_R   0.769970 0.178320 0.499980 -0.628866
O11   O     O_R   0.730030 0.678320 0.500020 -0.628046
O12   O     O_R   0.821650 0.230070 0.499990 -0.617877
O13   O     O_R   0.269970 0.678320 0.499980 -0.626658
O14   O     O_R   0.285150 0.275890 0.378020 -0.610208
O15   O     O_R   0.714850 0.275890 0.621980 -0.613057
O16   O     O_R   0.785150 0.775890 0.378020 -0.613536
O17   O     O_R   0.214850 0.775890 0.621980 -0.613479
O18   O     O_R   0.336840 0.224130 0.378040 -0.616413
O19   O     O_R   0.663160 0.224130 0.621960 -0.614715
O20   O     O_R   0.836840 0.724130 0.378040 -0.615725
O21   O     O_R   0.163160 0.724130 0.621960 -0.614393
O22   O     O_R   0.269970 0.321680 0.499990 -0.621085
O23   O     O_R   0.678350 0.730070 0.500010 -0.630475
O24   O     O_R   0.730030 0.321680 0.500010 -0.620544
O25   O     O_R   0.769970 0.821680 0.499990 -0.620478
O26   O     O_R   0.230030 0.821680 0.500010 -0.621021
O27   O     O_R   0.321650 0.269930 0.500010 -0.629274
O28   O     O_R   0.678350 0.269930 0.499990 -0.629085
O29   O     O_R   0.821650 0.769930 0.500010 -0.629377
O30   O     O_R   0.178350 0.769930 0.499990 -0.629287
O31   O     O_R   0.163160 0.275870 0.621980 -0.621746
O32   O     O_R   0.836840 0.275870 0.378020 -0.621494
O33   O     O_R   0.663160 0.775870 0.621980 -0.618780
O34   O     O_R   0.321650 0.730070 0.499990 -0.624522
O35   O     O_R   0.336840 0.775870 0.378020 -0.618916
O36   O     O_R   0.214850 0.224110 0.621990 -0.614550
O37   O     O_R   0.785150 0.224110 0.378010 -0.614860
O38   O     O_R   0.714850 0.724110 0.621990 -0.615754
O39   O     O_R   0.285150 0.724110 0.378010 -0.616579
O40   O     O_R   0.580260 0.454160 0.431100 -0.621724
O41   O     O_R   0.419740 0.454160 0.568900 -0.620776
O42   O     O_R   0.080260 0.954160 0.431100 -0.621971
O43   O     O_R   0.919740 0.954160 0.568900 -0.621255
O44   O     O_3   0.116398 0.230796 0.435736 -0.721330
O45   O     O_R   0.511410 0.454120 0.568820 -0.621873
O46   O     O_3   0.881763 0.230489 0.567144 -0.722494
O47   O     O_3   0.638870 0.725554 0.402972 -0.721885
O48   O     O_3   0.359811 0.726852 0.601496 -0.723778
O49   O     O_R   0.488590 0.454120 0.431180 -0.623586
O50   O     O_R   0.011410 0.954120 0.568820 -0.621564
O51   O     O_R   0.988590 0.954120 0.431180 -0.622705
O52   O     O_R   0.080260 0.045800 0.431140 -0.618305
Zn1   Zn    Zn3+2 0.215490 0.284560 0.500000 0.954220
Zn2   Zn    Zn3+2 0.954010 0.000000 0.591950 0.971113
Zn3   Zn    Zn3+2 0.545990 0.500000 0.408050 0.968007
Zn4   Zn    Zn3+2 0.454010 0.500000 0.591950 0.970400
Zn5   Zn    Zn3+2 0.784510 0.284560 0.500000 0.953135
Zn6   Zn    Zn3+2 0.715490 0.784560 0.500000 0.946676
Zn7   Zn    Zn3+2 0.284510 0.784560 0.500000 0.950666
Zn8   Zn    Zn3+2 0.284510 0.215440 0.500020 0.957028
Zn9   Zn    Zn3+2 0.715490 0.215440 0.499980 0.958189
Zn10  Zn    Zn3+2 0.784510 0.715440 0.500020 0.956919
Zn11  Zn    Zn3+2 0.215490 0.715440 0.499980 0.958344
Zn12  Zn    Zn3+2 0.045990 0.000000 0.408050 0.969308

loop_
_geom_bond_atom_site_label_1
_geom_bond_atom_site_label_2
_ccdc_geom_bond_type
C2    C35   A    
C34   C118  A    
C99   C103  A    
C105  C110  A    
H55   N9    S    
C6    C45   S    
C55   C59   S    
C58   O47   S    
H52   N7    S    
C100  H76   S    
C14   C18   A    
C15   H34   S    
C35   C39   A    
C90   C112  A    
C81   C84   T    
C14   H1    S    
O18   Zn8   S    
C124  N10   S    
O24   Zn5   S    
C15   C19   A    
H66   N3    S    
H50   N6    S    
O52   Zn12  S    
O2    Zn2   S    
C105  C126  S    
H53   N8    S    
O20   Zn10  S    
C17   C26   S    
C64   C68   A    
H44   N1    S    
C42   H26   S    
C92   C119  S    
O35   Zn7   S    
O26   Zn7   S    
C29   C32   T    
C87   C91   A    
C54   C58   S    
C104  C109  A    
O31   Zn1   S    
O1    Zn1   S    
C60   N1    S    
C57   H37   S    
C20   C25   A    
C35   H19   S    
C2    C41   S    
C49   C54   S    
O17   Zn7   S    
H51   N7    S    
O51   Zn12  S    
C100  C104  A    
C65   C73   A    
H48   N5    S    
C22   N2    S    
C2    C85   A    
C51   C56   S    
C42   C46   A    
C10   C84   S    
C37   C42   A    
C9    O32   A    
C58   C96   S    
C70   O15   A    
H65   N2    S    
O45   Zn4   S    
C80   C86   T    
C28   C33   T    
C62   C77   A    
C33   C72   S    
H71   O44   S    
C61   C66   A    
C36   H20   S    
C55   H30   S    
C113  C122  S    
C88   C92   A    
C8    O31   A    
C57   C85   S    
C77   H42   S    
C12   C17   A    
H46   N1    S    
C11   O39   A    
C71   O16   A    
C127  O41   A    
C64   N7    S    
O29   Zn10  S    
C115  C124  S    
C93   C120  S    
C25   N4    S    
H61   N11   S    
C103  H4    S    
C110  C114  S    
C52   O23   A    
C109  C113  S    
C23   N3    S    
C63   O13   A    
C88   C110  A    
C101  H2    S    
H47   N5    S    
C5    O6    A    
H59   N10   S    
C26   C31   T    
C54   H33   S    
C113  H5    S    
C21   C22   A    
C27   C30   T    
C67   C76   A    
C72   O17   A    
C56   O44   S    
C88   C123  S    
O4    Zn4   S    
C78   C83   T    
H54   N8    S    
H60   N11   S    
C92   C97   A    
C90   C94   A    
C32   C71   S    
C20   C29   S    
C31   C70   S    
C3    C106  S    
C101  C105  A    
C40   C45   A    
C74   C118  A    
O40   Zn3   S    
O32   Zn5   S    
C57   O46   S    
C3    O51   A    
C15   C16   A    
C18   C27   S    
C13   C96   A    
H70   N4    S    
O19   Zn9   S    
C7    C46   S    
O16   Zn6   S    
C59   O48   S    
C36   C40   A    
C56   C74   S    
C102  H3    S    
C13   C36   A    
O50   Zn2   S    
O41   Zn4   S    
O33   Zn6   S    
C53   C57   S    
C95   C100  A    
C47   C51   S    
C61   C73   A    
C98   C102  A    
C91   C95   A    
C39   H24   S    
O13   Zn11  S    
C59   C107  S    
C38   C43   A    
C108  C112  A    
C126  O45   A    
C62   N6    S    
O10   Zn9   S    
C128  O42   A    
O25   Zn6   S    
O22   Zn1   S    
C19   C23   A    
C69   O18   A    
C120  O25   A    
C113  H9    S    
C53   H28   S    
C66   C79   S    
H63   N12   S    
C79   C82   T    
C13   C52   S    
O39   Zn11  S    
C122  H14   S    
C52   O11   A    
H72   O46   S    
C5    O2    A    
C45   C49   A    
O12   Zn5   S    
C16   C20   A    
C51   H27   S    
C70   O19   A    
H49   N6    S    
C12   H12   S    
C24   C37   A    
C64   C76   A    
C21   N12   S    
C24   C107  A    
C61   N5    S    
C71   O20   A    
C108  C128  S    
C117  O22   A    
C123  H15   S    
C19   C28   S    
O36   Zn8   S    
C75   H40   S    
O43   Zn2   S    
O37   Zn9   S    
C9    C83   S    
C116  H8    S    
C7    O4    A    
C62   C67   A    
C76   H43   S    
C121  O30   A    
C89   C124  S    
C5    C44   S    
C12   C14   A    
C91   C117  S    
C24   C63   S    
C116  C125  S    
C123  N9    S    
O42   Zn12  S    
C50   C107  A    
O9    Zn8   S    
C122  N8    S    
C40   H25   S    
C120  O29   A    
C114  C123  S    
O6    Zn12  S    
C106  C111  A    
C117  O27   A    
C95   H45   S    
C112  C116  S    
C30   C69   S    
C59   H39   S    
C97   H56   S    
O34   Zn7   S    
C6    O7    A    
C119  O28   A    
C1    O9    A    
C68   C77   A    
C46   C50   A    
C41   O10   A    
C8    O36   A    
C53   H32   S    
C65   C78   S    
C127  O49   A    
O21   Zn11  S    
C34   C38   A    
H64   N2    S    
C48   C85   A    
C9    O37   A    
C67   C80   S    
H73   O47   S    
C47   C74   A    
C37   H21   S    
H69   N4    S    
H74   O48   S    
C60   C65   A    
C87   C122  S    
C1    O1    A    
C39   C44   A    
C87   C109  A    
O14   Zn1   S    
C48   C53   S    
C4    O52   A    
C56   H36   S    
C60   C75   A    
C50   C55   S    
C89   C111  A    
C68   C81   S    
C125  N11   S    
C10   O33   A    
H68   N3    S    
C18   C22   A    
O49   Zn3   S    
C55   H35   S    
O7    Zn4   S    
C125  H17   S    
C69   O14   A    
O8    Zn3   S    
C7    O8    A    
O38   Zn10  S    
C73   H41   S    
C104  C127  S    
C115  H7    S    
C94   C99   A    
H62   N12   S    
C3    O43   A    
C66   C75   A    
H58   N10   S    
C51   H31   S    
O28   Zn9   S    
C114  H6    S    
C90   C125  S    
H57   N9    S    
C98   H67   S    
C102  C106  A    
C16   H23   S    
O3    Zn3   S    
C1    C118  S    
C114  H10   S    
C49   C96   A    
C89   C93   A    
O30   Zn11  S    
C58   H38   S    
O11   Zn10  S    
C11   O35   A    
C41   O12   A    
C119  O24   A    
C4    C43   S    
C116  H13   S    
C94   C121  S    
C44   C48   A    
C8    C82   S    
C23   C25   A    
C6    O3    A    
O27   Zn8   S    
C34   H18   S    
C111  C115  S    
O23   Zn6   S    
C99   H75   S    
C128  O50   A    
C72   O21   A    
C124  H16   S    
C103  C108  A    
C126  O40   A    
C121  O26   A    
C11   C86   S    
O15   Zn5   S    
C10   O38   A    
C115  H11   S    
C43   C47   A    
C93   C98   A    
C38   H22   S    
C97   C101  A    
O5    Zn2   S    
C4    O5    A    
C54   H29   S    
C63   O34   A    
C17   C21   A    
