data_mof_unit_17820.cif
_audit_creation_date              2012-12-11T16:23:59-0500
_audit_creation_method            fapswitch 2.2
_symmetry_space_group_name_H-M    P1
_symmetry_Int_Tables_number       1
_space_group_crystal_system       triclinic
_cell_length_a                    14.728977
_cell_length_b                    14.746485
_cell_length_c                    33.308894
_cell_angle_alpha                 95.926211
_cell_angle_beta                  95.919624
_cell_angle_gamma                 61.259542
_cell_volume                      6297.6670518

loop_
_atom_site_label
_atom_site_type_symbol
_atom_type_description
_atom_site_fract_x
_atom_site_fract_y
_atom_site_fract_z
_atom_type_partial_charge
C1    C     C_R   0.391081 0.699736 0.446073 0.564651
C2    C     C_R   0.335261 0.351893 0.308036 0.047578
C3    C     C_R   0.427246 0.277465 0.326273 -0.165342
C4    C     C_R   0.446108 0.283674 0.367978 -0.137649
C5    C     C_R   0.395520 0.257708 0.165070 -0.109224
C6    C     C_R   0.385643 0.237523 0.123458 -0.123961
C7    C     C_R   0.208905 0.378367 0.121688 -0.126708
C8    C     C_R   0.218933 0.398151 0.163350 -0.109784
C9    C     C_R   0.311231 0.335952 0.185167 0.037949
C10   C     C_1   0.316982 0.345908 0.228435 -0.016228
C11   C     C_1   0.323551 0.350163 0.264747 0.017950
C12   C     C_R   0.406464 0.386376 0.433868 0.539303
C13   C     C_R   0.291002 0.295395 0.101573 0.019590
C14   C     C_R   0.746485 0.380845 0.407588 0.016366
C15   C     C_R   0.741286 0.459701 0.385572 -0.180011
C16   C     C_R   0.755436 0.443761 0.344454 -0.152202
C17   C     C_R   0.775779 0.348419 0.324241 -0.015283
C18   C     C_R   0.790764 0.266145 0.346633 -0.097624
C19   C     C_R   0.778984 0.280756 0.388423 0.262044
C20   C     C_R   0.798231 0.318115 0.198946 0.338867
C21   C     C_R   0.780024 0.336885 0.279950 0.337926
C22   C     C_R   0.812558 0.393689 0.137812 -0.121294
C23   C     C_R   0.699702 0.410861 0.447096 0.542866
C24   C     C_R   0.853325 0.380650 0.100448 -0.133109
C25   C     C_R   0.904162 0.197626 0.097553 -0.131656
C26   C     C_R   0.864284 0.210475 0.135114 -0.121777
C27   C     C_R   0.821677 0.307884 0.156268 0.033196
C28   C     C_R   0.902853 0.281837 0.080716 0.021102
C29   C     C_R   0.372261 0.753967 0.408795 0.033012
C30   C     C_R   0.275000 0.793791 0.386851 0.248517
C31   C     C_R   0.266332 0.824291 0.347494 -0.114340
C32   C     C_R   0.353904 0.811027 0.329213 -0.006439
C33   C     C_R   0.448167 0.778679 0.352200 -0.140861
C34   C     C_R   0.393253 0.701414 0.561249 0.540717
C35   C     C_R   0.457061 0.751088 0.391663 -0.184134
C36   C     C_R   0.343448 0.829414 0.204269 0.347810
C37   C     C_R   0.348648 0.822288 0.285529 0.350466
C38   C     C_R   0.255610 0.835270 0.135868 -0.119084
C39   C     C_R   0.235922 0.865491 0.096326 -0.130647
C40   C     C_R   0.382740 0.898997 0.104190 -0.132230
C41   C     C_R   0.402620 0.868439 0.143778 -0.121563
C42   C     C_R   0.336076 0.841202 0.160535 0.035520
C43   C     C_R   0.296157 0.902524 0.080830 0.021509
C44   C     C_R   0.369347 0.371404 0.585343 -0.033307
C45   C     C_R   0.406925 0.388889 0.549003 0.545958
C46   C     C_R   0.289007 0.456756 0.605115 -0.161726
C47   C     C_R   0.268118 0.452050 0.644481 0.243521
C48   C     C_R   0.330209 0.361098 0.665148 -0.014564
C49   C     C_R   0.403341 0.272602 0.643998 -0.159393
C50   C     C_R   0.421609 0.276141 0.604020 0.237702
C51   C     C_R   0.317619 0.353911 0.789629 0.331993
C52   C     C_R   0.323921 0.358717 0.708911 0.350304
C53   C     C_R   0.216904 0.412231 0.852636 0.000403
C54   C     C_R   0.208518 0.389135 0.891419 -0.109091
C55   C     C_R   0.384548 0.247900 0.891886 -0.137315
C56   C     C_R   0.701318 0.413331 0.562523 0.533356
C57   C     C_R   0.394189 0.270208 0.853552 -0.132326
C58   C     C_R   0.309938 0.349112 0.832903 0.053579
C59   C     C_R   0.290072 0.303987 0.910295 0.007697
C60   C     C_R   0.747151 0.381653 0.603486 0.020901
C61   C     C_R   0.821638 0.407136 0.623952 -0.010624
C62   C     C_R   0.849031 0.386838 0.664971 -0.104816
C63   C     C_R   0.803073 0.342470 0.685412 0.038142
C64   C     C_R   0.732585 0.312826 0.664727 0.001882
C65   C     C_R   0.705971 0.332042 0.623950 -0.115112
C66   C     C_R   0.864036 0.227653 0.823357 -0.087845
C67   C     C_R   0.373937 0.366011 0.392013 -0.024539
C68   C     C_R   0.891339 0.212461 0.864735 -0.007741
C69   C     C_R   0.892209 0.378435 0.872332 -0.136236
C70   C     C_R   0.865574 0.391740 0.831343 -0.121158
C71   C     C_R   0.854888 0.314980 0.806708 0.027164
C72   C     C_1   0.838415 0.324272 0.763981 -0.030460
C73   C     C_1   0.824342 0.332271 0.728127 -0.026851
C74   C     C_R   0.910293 0.287111 0.889475 0.032941
C75   C     C_R   0.375336 0.755235 0.601903 0.011434
C76   C     C_R   0.281393 0.785892 0.619643 -0.119451
C77   C     C_R   0.272025 0.815182 0.660816 -0.099558
C78   C     C_R   0.278440 0.436827 0.373835 -0.124366
C79   C     C_R   0.356021 0.814756 0.684705 0.041099
C80   C     C_R   0.447550 0.790815 0.666918 -0.112583
C81   C     C_R   0.457156 0.761502 0.625663 -0.135423
C82   C     C_R   0.396007 0.887132 0.832290 -0.111143
C83   C     C_R   0.376287 0.914308 0.873115 -0.126045
C84   C     C_R   0.229261 0.880985 0.862937 -0.127839
C85   C     C_R   0.249280 0.853708 0.822159 -0.108315
C86   C     C_R   0.330895 0.859449 0.806588 0.041060
C87   C     C_1   0.343122 0.843534 0.763828 -0.019631
C88   C     C_1   0.350198 0.831303 0.727787 -0.018759
C89   C     C_R   0.257644 0.428509 0.331877 0.284248
C90   C     C_R   0.290642 0.914693 0.888587 0.019889
C91   C     C_R   0.963252 0.264071 0.045501 0.546026
C92   C     C_R   0.272554 0.259555 0.060029 0.543958
C93   C     C_R   0.259058 0.959609 0.043765 0.546448
C94   C     C_R   0.962546 0.267703 0.930656 0.543536
C95   C     C_R   0.271057 0.264163 0.945445 0.544954
C96   C     C_R   0.256218 0.965177 0.928894 0.543629
Cr1   Cr    Cr6+3 0.576280 0.580550 0.506370 0.996230
Cr2   Cr    Cr6+3 0.346780 0.572400 0.496520 1.011155
Cr3   Cr    Cr6+3 0.576960 0.347070 0.497150 1.047544
Cr4   Cr    Cr6+3 0.087320 0.083240 0.984860 1.003667
Cr5   Cr    Cr6+3 0.087720 0.316210 0.996740 1.010837
Cr6   Cr    Cr6+3 0.317350 0.090340 0.995890 1.012766
H1    H     H_    0.450208 0.173195 0.108872 0.129235
H2    H     H_    0.850315 0.447051 0.087936 0.129241
H3    H     H_    0.746525 0.507855 0.328257 0.141309
H4    H     H_    0.809583 0.190913 0.331722 0.144049
H5    H     H_    0.779384 0.470032 0.153202 0.137519
H6    H     H_    0.941460 0.120505 0.082901 0.131593
H7    H     H_    0.871334 0.143175 0.148374 0.135086
H8    H     H_    0.532591 0.720905 0.407755 0.134519
H9    H     H_    0.169443 0.866064 0.078851 0.129937
H10   H     H_    0.467332 0.209289 0.181829 0.117257
H11   H     H_    0.191781 0.854501 0.330709 0.132508
H12   H     H_    0.516699 0.769212 0.339064 0.143638
H13   H     H_    0.204338 0.812434 0.147712 0.135781
H14   H     H_    0.431049 0.926389 0.092923 0.129330
H15   H     H_    0.466042 0.872532 0.161946 0.133770
H16   H     H_    0.246185 0.530310 0.591222 0.153676
H17   H     H_    0.135566 0.433421 0.905716 0.127335
H18   H     H_    0.450282 0.201133 0.658947 0.150564
H19   H     H_    0.486398 0.216805 0.308056 0.127155
H20   H     H_    0.449102 0.182535 0.905968 0.131709
H21   H     H_    0.466297 0.222022 0.839077 0.126362
H22   H     H_    0.853225 0.169739 0.803729 0.108022
H23   H     H_    0.648429 0.312634 0.608590 0.159025
H24   H     H_    0.857090 0.460343 0.818609 0.110657
H25   H     H_    0.904353 0.437890 0.890103 0.131503
H26   H     H_    0.520424 0.227754 0.380959 0.163236
H27   H     H_    0.904415 0.407832 0.681355 0.105221
H28   H     H_    0.424792 0.940280 0.891982 0.127812
H29   H     H_    0.459513 0.891577 0.820482 0.112092
H30   H     H_    0.512910 0.790557 0.685210 0.111409
H31   H     H_    0.530546 0.738201 0.612953 0.128213
H32   H     H_    0.216968 0.781916 0.602242 0.131865
H33   H     H_    0.198642 0.832022 0.802456 0.114995
H34   H     H_    0.162710 0.880563 0.873847 0.121338
H35   H     H_    0.200752 0.833882 0.674341 0.117798
H36   H     H_    0.221699 0.500766 0.391744 0.109179
H37   H     H_    0.153321 0.458864 0.178762 0.117811
H38   H     H_    0.134922 0.424177 0.105736 0.130276
H39   H     H_    0.718785 0.536730 0.399383 0.138086
N1    N     N_R   0.754065 0.412856 0.218808 -0.233962
N2    N     N_R   0.278876 0.447876 0.732544 -0.164041
N3    N     N_R   0.367599 0.267059 0.726623 -0.256992
N4    N     N_R   0.364316 0.264724 0.766201 -0.235431
N5    N     N_R   0.744815 0.422021 0.258449 -0.231692
N6    N     N_R   0.821783 0.242027 0.260010 -0.238816
N7    N     N_R   0.830989 0.232851 0.220250 -0.233932
N8    N     N_R   0.263956 0.830162 0.221813 -0.228660
N9    N     N_R   0.266652 0.826327 0.261608 -0.229627
N10   N     N_R   0.428454 0.821217 0.268021 -0.228449
N11   N     N_R   0.425558 0.825486 0.228165 -0.230575
N12   N     N_R   0.275440 0.445611 0.772131 -0.247204
O1    O     O_R   0.679450 0.499830 0.463150 -0.535648
O2    O     O_R   0.356040 0.477400 0.534170 -0.517637
O3    O     O_R   0.495910 0.323070 0.537100 -0.471488
O4    O     O_R   0.663920 0.359620 0.542290 -0.508168
O5    O     O_3   0.500010 0.500010 0.500010 -0.244178
O6    O     O_R   0.170070 0.978950 0.027680 -0.520037
O7    O     O_R   0.001760 0.175230 0.026640 -0.502459
O8    O     O_R   0.984760 0.333570 0.037150 -0.518434
O9    O     O_R   0.183410 0.309240 0.041890 -0.501575
O10   O     O_R   0.340240 0.172500 0.045430 -0.519373
O11   O     O_R   0.309670 0.000990 0.032050 -0.501377
O12   O     O_R   0.480650 0.664000 0.464630 -0.516709
O13   O     O_R   0.168330 0.982130 0.939200 -0.526526
O14   O     O_R   0.000140 0.178170 0.944610 -0.503151
O15   O     O_R   0.983010 0.336750 0.948660 -0.523638
O16   O     O_R   0.181800 0.312190 0.959860 -0.504000
O17   O     O_R   0.338500 0.175680 0.956950 -0.518839
O18   O     O_R   0.308050 0.003930 0.950020 -0.500743
O19   O     O_3   0.164130 0.163270 0.992500 -0.234083
O20   O     O_R   0.323930 0.675950 0.455370 -0.471860
O21   O     O_R   0.354700 0.475360 0.451930 -0.509677
O22   O     O_R   0.494470 0.320860 0.448390 -0.507644
O23   O     O_R   0.662580 0.357570 0.460050 -0.455889
O24   O     O_R   0.680900 0.502040 0.551870 -0.516911
O25   O     O_R   0.481990 0.666040 0.546870 -0.502560
O26   O     O_R   0.325370 0.678160 0.544080 -0.518183
O27   O     O_3   0.791561 0.198096 0.408962 -0.563882
C97   C     C_3   0.882091 0.164136 0.435366 0.012149
H40   H     H_    0.878863 0.112051 0.456363 0.154271
H41   H     H_    0.885403 0.229028 0.454618 0.113007
C98   C     C_3   0.981043 0.103098 0.412120 -0.281540
H42   H     H_    0.974891 0.041377 0.391893 0.177606
H43   H     H_    0.990050 0.155703 0.393179 0.150742
C99   C     C_3   0.077257 0.054177 0.440915 -0.451366
H44   H     H_    0.083924 0.114731 0.461827 0.129209
H45   H     H_    0.147561 0.014011 0.423268 0.180784
H46   H     H_    0.073265 0.996732 0.458773 0.177607
O28   O     O_3   0.188143 0.807327 0.404855 -0.573781
C100  C     C_3   0.143947 0.748362 0.383420 0.025051
H47   H     H_    0.145677 0.693660 0.404422 0.160341
H48   H     H_    0.186304 0.700180 0.356609 0.147196
C101  C     C_3   0.030886 0.820682 0.370388 -0.271453
H49   H     H_    0.987869 0.863896 0.397533 0.172856
H50   H     H_    0.027362 0.877488 0.350015 0.159644
C102  C     C_3   0.978567 0.760661 0.348290 -0.472387
H51   H     H_    0.017917 0.720356 0.320151 0.187452
H52   H     H_    0.896178 0.815146 0.340046 0.150374
H53   H     H_    0.981224 0.702992 0.368007 0.138354
O29   O     O_3   0.499354 0.188795 0.585514 -0.555686
C103  C     C_3   0.454770 0.138468 0.558403 0.026488
H54   H     H_    0.509698 0.095796 0.534314 0.159201
H55   H     H_    0.380200 0.193389 0.542753 0.110866
C104  C     C_3   0.439874 0.060177 0.580137 -0.278530
H56   H     H_    0.514558 0.006780 0.595798 0.173318
H57   H     H_    0.381542 0.101776 0.603151 0.159270
C105  C     C_3   0.402916 0.996796 0.550538 -0.477595
H58   H     H_    0.327644 0.048565 0.534846 0.145473
H59   H     H_    0.392200 0.941593 0.567259 0.156616
H60   H     H_    0.461156 0.951979 0.527756 0.146844
O30   O     O_3   0.195298 0.541109 0.663935 -0.545519
C106  C     C_3   0.098040 0.543314 0.657831 0.012992
H61   H     H_    0.101886 0.472635 0.668942 0.131544
H62   H     H_    0.072027 0.548770 0.625119 0.117631
C107  C     C_3   0.018919 0.638432 0.681495 -0.244710
H63   H     H_    0.044539 0.633782 0.714156 0.186194
H64   H     H_    0.014538 0.709515 0.670839 0.168633
C108  C     C_3   0.911323 0.646199 0.676231 -0.493289
H65   H     H_    0.883339 0.652654 0.643859 0.144777
H66   H     H_    0.856076 0.716204 0.693716 0.147856
H67   H     H_    0.913334 0.577030 0.687590 0.146028
C109  C     C_3   0.123425 0.498034 0.832060 -0.389786
H68   H     H_    0.055812 0.534280 0.851235 0.107465
H69   H     H_    0.141689 0.559709 0.825688 0.156450
H70   H     H_    0.100081 0.466889 0.803415 0.148537
C110  C     C_3   0.901937 0.115715 0.880803 -0.382940
H71   H     H_    0.871512 0.074421 0.858256 0.104666
H72   H     H_    0.984874 0.061412 0.888073 0.167652
H73   H     H_    0.857059 0.136018 0.908134 0.138351
C111  C     C_3   0.682727 0.264083 0.685994 -0.388196
H74   H     H_    0.629560 0.245103 0.665093 0.148282
H75   H     H_    0.743631 0.191244 0.698915 0.133811
H76   H     H_    0.637069 0.318323 0.710754 0.149631
C112  C     C_3   0.872661 0.454601 0.602808 -0.395835
H77   H     H_    0.903328 0.408594 0.574198 0.130474
H78   H     H_    0.815796 0.535550 0.596128 0.154551
H79   H     H_    0.938766 0.455841 0.621708 0.104625
O31   O     O_3   0.165909 0.501301 0.313718 -0.581593
C113  C     C_3   0.084766 0.479146 0.319367 -0.008612
H80   H     H_    0.010413 0.551703 0.315625 0.149369
H81   H     H_    0.087852 0.455395 0.350434 0.112726
C114  C     C_3   0.083332 0.397027 0.287398 -0.267875
H82   H     H_    0.081974 0.421334 0.256742 0.179668
H83   H     H_    0.154282 0.321711 0.291880 0.161871
C115  C     C_3   0.988763 0.382060 0.290075 -0.461467
H84   H     H_    0.989474 0.355827 0.320250 0.147077
H85   H     H_    0.989894 0.322451 0.266557 0.180398
H86   H     H_    0.916457 0.455827 0.284971 0.166520

loop_
_geom_bond_atom_site_label_1
_geom_bond_atom_site_label_2
_ccdc_geom_bond_type
Cr6   O17   S    
C7    C13   A    
C66   C68   A    
C87   C88   T    
C114  H83   S    
C40   C41   A    
C80   H30   S    
C55   C59   A    
Cr4   O19   S    
C41   C42   A    
N1    N5    A    
C36   C42   S    
N6    N7    A    
C89   O31   S    
C37   N9    A    
C103  H54   S    
Cr5   O15   S    
C109  H68   S    
C110  H72   S    
C22   H5    S    
C57   C58   A    
C108  H65   S    
C7    C8    A    
C40   H14   S    
O30   C106  S    
C112  H77   S    
C53   C109  S    
C103  H55   S    
C1    O20   A    
C33   H12   S    
C29   C30   A    
C59   C95   S    
C56   O24   A    
C8    H37   S    
C21   N6    A    
Cr5   O9    S    
C77   H35   S    
C38   C42   A    
C85   C86   A    
C7    H38   S    
Cr2   O21   S    
C106  H62   S    
C36   N8    A    
N2    N12   A    
C49   H18   S    
C51   N4    A    
C68   C74   A    
C15   C16   A    
C101  H50   S    
C23   O1    A    
C105  H60   S    
C18   C19   A    
C98   H42   S    
C46   H16   S    
Cr5   O19   S    
Cr4   O13   S    
C113  H80   S    
C46   C47   A    
C51   C58   S    
C93   O6    A    
C74   C94   S    
O31   C113  S    
C99   H46   S    
C43   C93   S    
C15   H39   S    
C40   C43   A    
C84   H34   S    
Cr3   O23   S    
Cr2   O5    S    
C53   C54   A    
C98   H43   S    
C16   C17   A    
C104  H56   S    
C96   O18   A    
N10   N11   A    
C20   N7    A    
Cr5   O16   S    
C70   C71   A    
C45   O2    A    
C92   O9    A    
C114  H82   S    
C34   C75   S    
C72   C73   T    
C101  C102  S    
C70   H24   S    
C97   H41   S    
C55   H20   S    
Cr5   O8    S    
C110  H71   S    
C54   H17   S    
C62   H27   S    
C34   O26   A    
C61   C62   A    
C67   C78   A    
C84   C90   A    
C37   N10   A    
C2    C11   S    
C78   H36   S    
C111  H75   S    
C79   C88   S    
C103  C104  S    
C44   C46   A    
C17   C18   A    
C54   C59   A    
C115  H85   S    
C78   C89   A    
Cr6   O19   S    
C38   C39   A    
C12   C67   S    
C68   C110  S    
C52   N2    A    
O29   C103  S    
C4    H26   S    
O28   C100  S    
C100  C101  S    
C20   N1    A    
C104  C105  S    
C84   C85   A    
C83   H28   S    
C113  H81   S    
C64   C111  S    
Cr2   O20   S    
C76   H32   S    
C106  H61   S    
Cr6   O10   S    
C39   C43   A    
C23   O23   A    
C63   C73   S    
C93   O11   A    
C25   C26   A    
C97   H40   S    
C90   C96   S    
C111  H76   S    
C17   C21   S    
C101  H49   S    
C109  H69   S    
C60   C61   A    
C107  C108  S    
C65   H23   S    
C14   C23   S    
C2    C89   A    
C75   C76   A    
C18   H4    S    
C66   C71   A    
C5    C9    A    
C62   C63   A    
C96   O13   A    
C57   H21   S    
C56   O4    A    
Cr4   O7    S    
Cr1   O24   S    
C47   C48   A    
C1    O12   A    
C30   C31   A    
C115  H84   S    
Cr3   O3    S    
C102  H53   S    
C1    C29   S    
C105  H58   S    
C8    C9    A    
C77   C79   A    
C69   C74   A    
C39   H9    S    
C45   O3    A    
C52   N3    A    
C32   C37   S    
C76   C77   A    
C81   H31   S    
C95   O16   A    
C26   H7    S    
C30   O28   S    
C91   O7    A    
C102  H51   S    
C35   H8    S    
C16   H3    S    
C85   H33   S    
C12   O22   A    
C92   O10   A    
C48   C49   A    
C5    H10   S    
C60   C65   A    
C49   C50   A    
C22   C27   A    
C55   C57   A    
C13   C92   S    
C26   C27   A    
C22   C24   A    
C79   C80   A    
C34   O25   A    
C94   O15   A    
C3    C4    A    
C109  H70   S    
O27   C97   S    
C12   O21   A    
C9    C10   S    
C115  H86   S    
C44   C50   A    
Cr6   O18   S    
C83   C90   A    
C6    H1    S    
Cr2   O2    S    
C51   N12   A    
C97   C98   S    
C86   C87   S    
C14   C19   A    
C82   H29   S    
C31   C32   A    
C75   C81   A    
C44   C45   S    
C24   C28   A    
C80   C81   A    
C106  C107  S    
Cr1   O1    S    
C94   O14   A    
C4    C67   A    
C102  H52   S    
C53   C58   A    
C112  H79   S    
C50   O29   S    
C20   C27   S    
C107  H64   S    
C29   C35   A    
C98   C99   S    
C108  H66   S    
N3    N4    A    
C113  C114  S    
C41   H15   S    
C32   C33   A    
Cr3   O4    S    
C2    C3    A    
C107  H63   S    
C71   C72   S    
C114  C115  S    
C82   C86   A    
N8    N9    A    
C100  H47   S    
Cr1   O5    S    
C38   H13   S    
Cr4   O6    S    
Cr1   O25   S    
C5    C6    A    
Cr1   O12   S    
C47   O30   S    
C64   C65   A    
Cr4   O14   S    
C111  H74   S    
C33   C35   A    
C112  H78   S    
C28   C91   S    
C66   H22   S    
C110  H73   S    
C69   C70   A    
C95   O17   A    
C99   H45   S    
C10   C11   T    
C25   C28   A    
C63   C64   A    
C56   C60   S    
C48   C52   S    
C21   N5    A    
Cr3   O22   S    
C69   H25   S    
Cr6   O11   S    
C82   C83   A    
Cr3   O5    S    
C61   C112  S    
C105  H59   S    
C14   C15   A    
C91   O8    A    
C99   H44   S    
C24   H2    S    
Cr2   O26   S    
C104  H57   S    
C19   O27   S    
C31   H11   S    
C108  H67   S    
C36   N11   A    
C3    H19   S    
C25   H6    S    
C100  H48   S    
C6    C13   A    
