data_mof_unit_37697.cif
_audit_creation_date              2012-12-11T15:31:44-0500
_audit_creation_method            fapswitch 2.2
_symmetry_space_group_name_H-M    P1
_symmetry_Int_Tables_number       1
_space_group_crystal_system       triclinic
_cell_length_a                    13.57259
_cell_length_b                    13.588641
_cell_length_c                    27.661156
_cell_angle_alpha                 90.405158
_cell_angle_beta                  90.336123
_cell_angle_gamma                 119.975813
_cell_volume                      4418.84818222

loop_
_atom_site_label
_atom_site_type_symbol
_atom_type_description
_atom_site_fract_x
_atom_site_fract_y
_atom_site_fract_z
_atom_type_partial_charge
C1    C     C_R   0.619360 0.898373 0.431239 0.551285
C2    C     C_R   0.614881 0.237735 0.208443 -0.153316
C3    C     C_R   0.602907 0.219861 0.258257 -0.121895
C4    C     C_R   0.665797 0.310011 0.290701 -0.002141
C5    C     C_R   0.690203 0.345839 0.190683 0.051378
C6    C     C_1   0.695768 0.365539 0.139389 0.004998
C7    C     C_1   0.649958 0.290160 0.341839 -0.048469
C8    C     C_1   0.702241 0.390820 0.097382 0.022232
C9    C     C_1   0.234635 0.862974 0.382335 0.032026
C10   C     C_R   0.122678 0.880281 0.267781 -0.117199
C11   C     C_R   0.104547 0.874337 0.217875 -0.069268
C12   C     C_R   0.599627 0.218480 0.431320 0.558329
C13   C     C_R   0.229940 0.797267 0.207432 -0.098241
C14   C     C_R   0.249712 0.802772 0.257634 0.067273
C15   C     C_R   0.194166 0.844420 0.288084 0.011012
C16   C     C_R   0.158135 0.832915 0.187668 0.028055
C17   C     C_1   0.130905 0.816778 0.136865 -0.019321
C18   C     C_1   0.211087 0.853308 0.339836 -0.006213
C19   C     C_1   0.100046 0.796167 0.095263 0.016031
C20   C     C_1   0.634146 0.866423 0.383455 0.017707
C21   C     C_R   0.637506 0.906992 0.258167 -0.077799
C22   C     C_R   0.643293 0.894220 0.208218 -0.091996
C23   C     C_R   0.279279 0.878673 0.430586 0.551750
C24   C     C_R   0.669468 0.732609 0.221843 -0.091317
C25   C     C_R   0.663773 0.745423 0.271815 -0.114936
C26   C     C_R   0.648421 0.833102 0.290100 0.035539
C27   C     C_R   0.659734 0.807222 0.189932 0.039255
C28   C     C_1   0.674142 0.797954 0.138858 -0.040305
C29   C     C_1   0.642180 0.847831 0.341389 -0.022848
C30   C     C_1   0.692448 0.787779 0.097028 0.004437
C31   C     C_R   0.638671 0.272684 0.617000 0.008323
C32   C     C_R   0.698209 0.231920 0.644481 -0.152097
C33   C     C_R   0.706455 0.245009 0.693979 -0.132509
C34   C     C_R   0.620894 0.900913 0.568981 0.538237
C35   C     C_R   0.657696 0.301329 0.717076 0.004421
C36   C     C_R   0.606834 0.351307 0.689923 -0.127494
C37   C     C_R   0.597642 0.338766 0.639512 0.043997
C38   C     C_R   0.568117 0.296202 0.795348 -0.122226
C39   C     C_R   0.578818 0.322823 0.844265 -0.127078
C40   C     C_R   0.775326 0.365738 0.842969 -0.096642
C41   C     C_R   0.764810 0.339972 0.794051 -0.100519
C42   C     C_R   0.662895 0.310644 0.769632 0.034002
C43   C     C_R   0.684586 0.364343 0.867558 0.024641
C44   C     C_R   0.224990 0.864163 0.615133 0.023450
C45   C     C_R   0.601949 0.222852 0.568681 0.581288
C46   C     C_R   0.244368 0.959182 0.642934 -0.123237
C47   C     C_R   0.218611 0.947596 0.691758 -0.118835
C48   C     C_R   0.171192 0.840573 0.713255 0.033820
C49   C     C_R   0.143463 0.744271 0.684605 -0.116312
C50   C     C_R   0.170865 0.756076 0.635849 -0.121150
C51   C     C_R   0.174987 0.754706 0.791988 -0.117458
C52   C     C_R   0.147346 0.736350 0.840668 -0.122873
C53   C     C_R   0.084961 0.875346 0.838097 -0.124546
C54   C     C_R   0.111024 0.892414 0.789374 -0.119938
C55   C     C_R   0.152945 0.829702 0.765625 0.033983
C56   C     C_R   0.279972 0.881687 0.568248 0.538248
C57   C     C_R   0.098517 0.793766 0.863594 0.022847
C58   C     C_R   0.641280 0.863309 0.615583 0.020791
C59   C     C_R   0.554374 0.764349 0.636647 -0.105881
C60   C     C_R   0.560766 0.743310 0.685314 -0.100957
C61   C     C_R   0.654461 0.820487 0.713392 0.033031
C62   C     C_R   0.745538 0.914292 0.691459 -0.122087
C63   C     C_R   0.739119 0.935566 0.642823 -0.129210
C64   C     C_R   0.692757 0.898858 0.797310 -0.125220
C65   C     C_R   0.702677 0.887247 0.847152 0.044351
C66   C     C_R   0.631187 0.684867 0.833383 -0.153663
C67   C     C_1   0.630851 0.264355 0.383750 -0.000454
C68   C     C_R   0.621425 0.697736 0.784301 -0.129577
C69   C     C_R   0.655959 0.805329 0.765765 0.002844
C70   C     C_R   0.676635 0.779495 0.864838 0.007600
C71   C     C_R   0.049630 0.761318 0.048115 0.553110
C72   C     C_R   0.714420 0.435761 0.049695 0.550801
C73   C     C_R   0.723591 0.770871 0.049501 0.565113
C74   C     C_R   0.043900 0.755897 0.910514 0.538678
C75   C     C_R   0.707058 0.427240 0.912933 0.536908
C76   C     C_R   0.716370 0.765382 0.912186 0.584881
C77   C     C_R   0.742377 0.417863 0.273163 -0.070361
C78   C     C_R   0.754984 0.436232 0.223254 0.252131
Cr1   Cr    Cr6+3 0.417720 0.831920 0.499820 1.046830
Cr2   Cr    Cr6+3 0.668190 0.085770 0.500360 1.033271
Cr3   Cr    Cr6+3 0.414060 0.082260 0.499840 1.050924
Cr4   Cr    Cr6+3 0.908000 0.821090 0.979770 1.051174
Cr5   Cr    Cr6+3 0.912420 0.571130 0.979880 1.043049
Cr6   Cr    Cr6+3 0.657970 0.566940 0.980940 1.039098
H1    H     H_    0.791448 0.487662 0.298135 0.143490
H2    H     H_    0.636330 0.952813 0.183994 0.111096
H3    H     H_    0.682792 0.665363 0.208087 0.167684
H4    H     H_    0.671867 0.687554 0.296075 0.125125
H5    H     H_    0.730995 0.181281 0.628372 0.145297
H6    H     H_    0.487698 0.269794 0.777122 0.111862
H7    H     H_    0.506982 0.319052 0.862831 0.133199
H8    H     H_    0.746529 0.206439 0.714378 0.118707
H9    H     H_    0.838736 0.350739 0.774775 0.111156
H10   H     H_    0.857470 0.396312 0.860299 0.141658
H11   H     H_    0.575248 0.400747 0.708165 0.136821
H12   H     H_    0.287021 0.043802 0.627939 0.143266
H13   H     H_    0.210706 0.708031 0.774652 0.109448
H14   H     H_    0.159322 0.673656 0.859707 0.132705
H15   H     H_    0.241175 0.023199 0.713105 0.109996
H16   H     H_    0.092994 0.950501 0.769828 0.109719
H17   H     H_    0.046949 0.920585 0.854808 0.140553
H18   H     H_    0.103525 0.660320 0.700196 0.108963
H19   H     H_    0.154580 0.681614 0.614954 0.131894
H20   H     H_    0.478135 0.706873 0.616421 0.142066
H21   H     H_    0.564230 0.167681 0.183817 0.114546
H22   H     H_    0.713599 0.980911 0.782872 0.141029
H23   H     H_    0.489782 0.670053 0.701517 0.120706
H24   H     H_    0.592510 0.624479 0.760554 0.123049
H25   H     H_    0.611264 0.601715 0.846099 0.140897
H26   H     H_    0.820075 0.973051 0.712325 0.111448
H27   H     H_    0.807752 0.012048 0.627414 0.130347
H28   H     H_    0.543622 0.135920 0.271500 0.125585
H29   H     H_    0.080188 0.912326 0.290674 0.120674
H30   H     H_    0.047213 0.900310 0.202907 0.134780
H31   H     H_    0.269820 0.764382 0.183428 0.159819
H32   H     H_    0.624932 0.974758 0.271919 0.121522
O1    O     O_R   0.302900 0.805360 0.446400 -0.483282
O2    O     O_R   0.657980 0.180990 0.549630 -0.513503
O3    O     O_R   0.503420 0.197810 0.553190 -0.479307
O4    O     O_R   0.320350 0.978840 0.548910 -0.507916
O5    O     O_3   0.499990 0.999990 0.500010 -0.257592
O6    O     O_R   0.819150 0.845650 0.033320 -0.495286
O7    O     O_R   0.006060 0.815720 0.028680 -0.497349
O8    O     O_R   0.028100 0.664460 0.032550 -0.493636
O9    O     O_R   0.811290 0.477490 0.029660 -0.484568
O10   O     O_R   0.638120 0.455970 0.034270 -0.505765
O11   O     O_R   0.667540 0.672320 0.030160 -0.488671
O12   O     O_R   0.522090 0.841370 0.450730 -0.479297
O13   O     O_R   0.814460 0.840990 0.926980 -0.483803
O14   O     O_R   0.001710 0.811400 0.930110 -0.509242
O15   O     O_R   0.023410 0.659800 0.926210 -0.518925
O16   O     O_R   0.806940 0.473170 0.931090 -0.504566
O17   O     O_R   0.633420 0.451310 0.927930 -0.525339
O18   O     O_R   0.663190 0.668000 0.931580 -0.507880
O19   O     O_3   0.826130 0.653050 0.980200 -0.256601
O20   O     O_R   0.693280 0.995650 0.447220 -0.507890
O21   O     O_R   0.657260 0.178740 0.451050 -0.491672
O22   O     O_R   0.502640 0.195380 0.446850 -0.495642
O23   O     O_R   0.319630 0.976590 0.450330 -0.502287
O24   O     O_R   0.303680 0.807790 0.552740 -0.518664
O25   O     O_R   0.522820 0.843620 0.549310 -0.504403
O26   O     O_R   0.694060 0.998080 0.553560 -0.524274
Cl1   Cl    Cl    0.851293 0.573692 0.202682 -0.650157
C79   C     C_2   0.547679 0.396729 0.611644 0.579859
O27   O     O_2   0.482039 0.421319 0.631145 -0.545344
O28   O     O_R   0.578468 0.426853 0.563537 -0.683451
H33   H     H_    0.539573 0.466782 0.548715 0.338978
C80   C     C_2   0.738572 0.987560 0.879585 0.580003
O29   O     O_2   0.792004 0.083645 0.863395 -0.539390
O30   O     O_R   0.708453 0.972573 0.928366 -0.686712
H34   H     H_    0.737163 0.047275 0.946459 0.339370
C81   C     C_2   0.327103 0.762953 0.276311 0.564551
O31   O     O_2   0.367875 0.788345 0.317091 -0.523686
O32   O     O_R   0.354491 0.696470 0.246604 -0.701834
H35   H     H_    0.406440 0.673339 0.263245 0.348508

loop_
_geom_bond_atom_site_label_1
_geom_bond_atom_site_label_2
_ccdc_geom_bond_type
C45   O2    A    
C51   H13   S    
C48   C55   S    
C66   C68   A    
C21   C26   A    
Cr6   O19   S    
C40   C41   A    
C37   C79   S    
C15   C18   S    
C41   C42   A    
C54   C55   A    
C19   C71   S    
C35   C36   A    
C1    O12   A    
Cr1   O12   S    
C34   O25   A    
C66   C70   A    
C53   C54   A    
Cr5   O16   S    
Cr1   O5    S    
Cr3   O4    S    
Cr6   O18   S    
C59   H20   S    
C71   O7    A    
C36   C37   A    
C80   O30   S    
C38   C42   A    
C10   C15   A    
C4    C7    S    
C5    C6    S    
C56   O24   A    
C61   C69   S    
C65   C70   A    
C47   H15   S    
C76   O13   A    
Cr4   O19   S    
C35   C42   S    
C11   H30   S    
C44   C50   A    
C17   C19   T    
C68   C69   A    
C40   C43   A    
C41   H9    S    
C47   C48   A    
C53   H17   S    
C16   C17   S    
C24   C27   A    
Cr5   O8    S    
Cr4   O14   S    
C1    O20   A    
Cr5   O19   S    
Cr2   O5    S    
C45   O3    A    
Cr6   O11   S    
Cr1   O24   S    
C77   H1    S    
C50   H19   S    
C21   C22   A    
Cr6   O10   S    
C56   O4    A    
C54   H16   S    
C74   O15   A    
Cr5   O9    S    
C21   H32   S    
Cr3   O5    S    
C39   H7    S    
C44   C46   A    
C20   C29   T    
C43   C75   S    
Cr3   O22   S    
C12   C67   S    
Cr2   O2    S    
Cr6   O17   S    
C8    C72   S    
C51   C52   A    
C71   O8    A    
C38   C39   A    
C80   O29   D    
C79   O28   S    
C52   C57   A    
C33   H8    S    
C49   H18   S    
C30   C73   S    
C53   C57   A    
C9    C23   S    
C6    C8    T    
C58   C59   A    
C77   C78   A    
C25   H4    S    
C31   C37   A    
C72   O10   A    
C60   C61   A    
C65   C80   S    
C57   C74   S    
Cr5   O15   S    
C62   C63   A    
C11   C16   A    
C44   C56   S    
C31   C32   A    
C62   H26   S    
C3    H28   S    
C14   C15   A    
C64   C69   A    
C24   C25   A    
Cr4   O13   S    
C10   H29   S    
O32   H35   S    
C13   H31   S    
C60   H23   S    
C48   C49   A    
C81   O32   S    
C49   C50   A    
Cr2   O26   S    
C22   C27   A    
C74   O14   A    
C32   H5    S    
C70   C76   S    
C12   O22   A    
C2    C5    A    
C3    C4    A    
Cr4   O7    S    
C75   O16   A    
O28   H33   S    
C23   O23   A    
C58   C63   A    
Cr3   O23   S    
C38   H6    S    
C46   C47   A    
C34   O26   A    
C1    C20   S    
C76   O18   A    
O30   H34   S    
C40   H10   S    
C79   O27   D    
C23   O1    A    
C39   C43   A    
C75   O17   A    
C64   H22   S    
Cr3   O3    S    
C2    H21   S    
Cr2   O20   S    
C72   O9    A    
C64   C65   A    
C28   C30   T    
C2    C3    A    
C25   C26   A    
C4    C77   A    
C73   O11   A    
C78   Cl1   S    
C32   C33   A    
C36   H11   S    
Cr1   O25   S    
Cr1   O1    S    
C52   H14   S    
C33   C35   A    
C51   C55   A    
C22   H2    S    
C66   H25   S    
C63   H27   S    
C61   C62   A    
C24   H3    S    
C10   C11   A    
C7    C67   T    
C9    C18   T    
C59   C60   A    
C46   H12   S    
C81   O31   D    
C26   C29   S    
C73   O6    A    
C31   C45   S    
C13   C16   A    
C14   C81   S    
C27   C28   S    
C34   C58   S    
C12   O21   A    
C68   H24   S    
C5    C78   A    
C13   C14   A    
Cr4   O6    S    
Cr2   O21   S    
