data_mof_unit_35908.cif
_audit_creation_date              2012-10-26T17:11:05-0400
_audit_creation_method            fapswitch 2.2
_symmetry_space_group_name_H-M    P1
_symmetry_Int_Tables_number       1
_space_group_crystal_system       triclinic
_cell_length_a                    28.087673
_cell_length_b                    18.736988
_cell_length_c                    16.833202
_cell_angle_alpha                 90.00109
_cell_angle_beta                  62.91639
_cell_angle_gamma                 89.999803
_cell_volume                      7887.5052636

loop_
_atom_site_label
_atom_site_type_symbol
_atom_type_description
_atom_site_fract_x
_atom_site_fract_y
_atom_site_fract_z
_atom_type_partial_charge
C1    C     C_R   0.295875 0.730154 0.329266 0.562283
C2    C     C_R   0.461444 0.129025 0.462526 -0.146999
C3    C     C_R   0.927704 0.098553 0.065686 0.553082
C4    C     C_R   0.427695 0.401451 0.065690 0.553848
C5    C     C_R   0.572296 0.598552 0.934314 0.553076
C6    C     C_R   0.572306 0.401451 0.934309 0.553855
C7    C     C_R   0.427703 0.598551 0.065687 0.553096
C8    C     C_R   0.047794 0.502391 0.507990 0.034096
C9    C     C_R   0.952207 0.502391 0.492008 0.034097
C10   C     C_R   0.547800 0.002392 0.507972 0.034095
C11   C     C_R   0.452214 0.002391 0.491989 0.034096
C12   C     C_R   0.021756 0.567344 0.510448 0.010487
C13   C     C_R   0.442936 0.876305 0.524812 -0.149924
C14   C     C_R   0.974222 0.437939 0.502990 0.010254
C15   C     C_R   0.978244 0.567344 0.489551 0.010487
C16   C     C_R   0.025780 0.437939 0.497005 0.010255
C17   C     C_R   0.521761 0.067345 0.510434 0.010484
C18   C     C_R   0.474231 0.937939 0.502964 0.010255
C19   C     C_R   0.478249 0.067345 0.489537 0.010485
C20   C     C_R   0.525790 0.937940 0.496980 0.010254
C21   C     C_R   0.125351 0.437433 0.501540 0.008370
C22   C     C_R   0.884900 0.565415 0.463831 0.007057
C23   C     C_R   0.874650 0.437433 0.498458 0.008370
C24   C     C_R   0.538561 0.129025 0.537457 -0.146992
C25   C     C_R   0.115100 0.565417 0.536168 0.007054
C26   C     C_R   0.625357 0.937434 0.501526 0.008365
C27   C     C_R   0.384903 0.065416 0.463823 0.007054
C28   C     C_R   0.374656 0.937431 0.498443 0.008375
C29   C     C_R   0.615102 0.065417 0.536162 0.007055
C30   C     C_R   0.171695 0.436105 0.516078 -0.026338
C31   C     C_R   0.833790 0.565331 0.464598 -0.028458
C32   C     C_R   0.828306 0.436105 0.483921 -0.026338
C33   C     C_R   0.166210 0.565331 0.535402 -0.028454
C34   C     C_R   0.671697 0.936106 0.516073 -0.026344
C35   C     C_R   0.057078 0.376307 0.475151 -0.149924
C36   C     C_R   0.333791 0.065331 0.464595 -0.028456
C37   C     C_R   0.328309 0.936104 0.483915 -0.026336
C38   C     C_R   0.666211 0.065332 0.535401 -0.028453
C39   C     C_R   0.191820 0.500337 0.530504 -0.172773
C40   C     C_R   0.808180 0.500337 0.469496 -0.172778
C41   C     C_R   0.691820 0.000337 0.530504 -0.172780
C42   C     C_R   0.308181 0.000337 0.469494 -0.172779
C43   C     C_R   0.096022 0.501675 0.515950 0.032267
C44   C     C_R   0.903978 0.501674 0.484049 0.032268
C45   C     C_R   0.596027 0.001676 0.515937 0.032266
C46   C     C_R   0.961441 0.629024 0.462536 -0.146999
C47   C     C_R   0.403983 0.001674 0.484034 0.032266
C48   C     C_R   0.607423 0.877666 0.471050 -0.115051
C49   C     C_R   0.417695 0.126838 0.444636 -0.117527
C50   C     C_R   0.392599 0.877661 0.528899 -0.115042
C51   C     C_R   0.582307 0.126838 0.555352 -0.117513
C52   C     C_R   0.107413 0.377663 0.471071 -0.115045
C53   C     C_R   0.917693 0.626837 0.444644 -0.117535
C54   C     C_R   0.892589 0.377663 0.528923 -0.115047
C55   C     C_R   0.082307 0.626839 0.555356 -0.117526
C56   C     C_R   0.090048 0.811693 0.776852 0.075015
C57   C     C_R   0.942924 0.376307 0.524842 -0.149925
C58   C     C_R   0.085845 0.864405 0.720697 -0.006498
C59   C     C_R   0.048619 0.856908 0.687577 -0.114115
C60   C     C_R   0.015434 0.796944 0.709993 -0.118466
C61   C     C_R   0.019354 0.744430 0.765686 -0.122197
C62   C     C_R   0.056515 0.751692 0.799002 -0.099910
C63   C     C_R   0.909758 0.187494 0.223728 0.074766
C64   C     C_R   0.943527 0.247216 0.202131 -0.093764
C65   C     C_R   0.980464 0.253831 0.236009 -0.105757
C66   C     C_R   0.983973 0.200894 0.291606 -0.106060
C67   C     C_R   0.950580 0.141166 0.313407 -0.112716
C68   C     C_R   0.038558 0.629025 0.537464 -0.146995
C69   C     C_R   0.913533 0.134358 0.279815 -0.006492
C70   C     C_R   0.909930 0.811793 0.223222 0.075099
C71   C     C_R   0.914070 0.864561 0.279374 -0.006437
C72   C     C_R   0.951271 0.857160 0.312563 -0.114071
C73   C     C_R   0.984493 0.797236 0.290217 -0.118460
C74   C     C_R   0.980634 0.744666 0.234528 -0.122221
C75   C     C_R   0.943499 0.751831 0.201144 -0.099852
C76   C     C_R   0.090244 0.187492 0.776276 0.074766
C77   C     C_R   0.056472 0.247213 0.797885 -0.093765
C78   C     C_R   0.019534 0.253832 0.764010 -0.105757
C79   C     C_R   0.221865 0.770068 0.952066 0.033024
C80   C     C_R   0.016027 0.200901 0.708402 -0.106058
C81   C     C_R   0.049423 0.141173 0.686590 -0.112718
C82   C     C_R   0.086469 0.134360 0.720182 -0.006497
C83   C     C_R   0.590035 0.311640 0.776897 0.074968
C84   C     C_R   0.585801 0.364314 0.720731 -0.006534
C85   C     C_R   0.548553 0.356766 0.687662 -0.114142
C86   C     C_R   0.515376 0.296792 0.710148 -0.118465
C87   C     C_R   0.519327 0.244316 0.765853 -0.122173
C88   C     C_R   0.556510 0.251626 0.799115 -0.099941
C89   C     C_R   0.409781 0.687582 0.223662 0.074693
C90   C     C_R   0.778438 0.230438 0.047642 0.033426
C91   C     C_R   0.443529 0.747331 0.201985 -0.093829
C92   C     C_R   0.480492 0.754026 0.235797 -0.105761
C93   C     C_R   0.484049 0.701142 0.291410 -0.106021
C94   C     C_R   0.450678 0.641387 0.313290 -0.112732
C95   C     C_R   0.413606 0.634499 0.279761 -0.006544
C96   C     C_R   0.409948 0.311703 0.223149 0.075021
C97   C     C_R   0.414146 0.364416 0.279307 -0.006497
C98   C     C_R   0.451372 0.356923 0.312429 -0.114113
C99   C     C_R   0.484562 0.296962 0.290008 -0.118461
C100  C     C_R   0.480645 0.244447 0.234312 -0.122194
C101  C     C_R   0.778136 0.770070 0.047933 0.033021
C102  C     C_R   0.443485 0.251704 0.200995 -0.099903
C103  C     C_R   0.590262 0.687416 0.776216 0.074824
C104  C     C_R   0.556468 0.747109 0.797752 -0.093705
C105  C     C_R   0.519553 0.753651 0.763818 -0.105750
C106  C     C_R   0.516091 0.700670 0.708225 -0.106098
C107  C     C_R   0.549510 0.640972 0.686484 -0.112709
C108  C     C_R   0.586534 0.634236 0.720132 -0.006453
C109  C     C_R   0.704133 0.269863 0.670736 0.548842
C110  C     C_R   0.221572 0.230420 0.952350 0.033426
C111  C     C_R   0.721889 0.270110 0.952044 0.033027
C112  C     C_R   0.278411 0.730392 0.047666 0.033427
C113  C     C_R   0.278125 0.270088 0.047943 0.033025
C114  C     C_R   0.721568 0.730426 0.952354 0.033423
C115  C     C_R   0.242323 0.700586 0.945006 -0.114362
C116  C     C_R   0.757980 0.299922 0.054701 -0.113720
C117  C     C_R   0.757670 0.700594 0.054989 -0.114363
C118  C     C_R   0.242024 0.299907 0.945302 -0.113722
C119  C     C_R   0.742353 0.200631 0.944977 -0.114363
C120  C     C_R   0.704124 0.730155 0.670734 0.562245
C121  C     C_R   0.257960 0.799879 0.054718 -0.113720
C122  C     C_R   0.257666 0.200607 0.054999 -0.114365
C123  C     C_R   0.742028 0.799907 0.945305 -0.113721
C124  C     C_R   0.270263 0.680943 0.992278 -0.112850
C125  C     C_R   0.730034 0.319563 0.007432 -0.112816
C126  C     C_R   0.729719 0.680967 0.007729 -0.112850
C127  C     C_R   0.269972 0.319545 0.992569 -0.112817
C128  C     C_R   0.770294 0.180991 0.992247 -0.112852
C129  C     C_R   0.230014 0.819522 0.007447 -0.112817
C130  C     C_R   0.229723 0.180969 0.007731 -0.112853
C131  C     C_R   0.295867 0.269862 0.329263 0.548826
C132  C     C_R   0.769984 0.819534 0.992565 -0.112815
C133  C     C_R   0.145719 0.832538 0.941885 -0.132474
C134  C     C_R   0.854475 0.167794 0.057956 -0.132875
C135  C     C_R   0.854290 0.832523 0.058111 -0.132463
C136  C     C_R   0.145533 0.167782 0.942039 -0.132875
C137  C     C_R   0.645735 0.332566 0.941872 -0.132470
C138  C     C_R   0.354454 0.667758 0.057972 -0.132881
C139  C     C_R   0.354274 0.332549 0.058120 -0.132466
C140  C     C_R   0.645523 0.667798 0.942045 -0.132867
C141  C     C_R   0.115614 0.848409 0.896338 -0.020057
C142  C     C_R   0.795875 0.230155 0.329266 0.562267
C143  C     C_R   0.884450 0.151661 0.103643 -0.020311
C144  C     C_R   0.884391 0.848404 0.103661 -0.020066
C145  C     C_R   0.115554 0.151654 0.896354 -0.020310
C146  C     C_R   0.615622 0.348419 0.896335 -0.020049
C147  C     C_R   0.384442 0.651651 0.103646 -0.020301
C148  C     C_R   0.384381 0.348415 0.103664 -0.020052
C149  C     C_R   0.615548 0.651662 0.896356 -0.020313
C150  C     C_R   0.129940 0.817547 0.812075 -0.040264
C151  C     C_R   0.870057 0.182340 0.188021 -0.041732
C152  C     C_R   0.870061 0.817554 0.187932 -0.040306
C153  C     C_R   0.204131 0.769860 0.670737 0.548834
C154  C     C_R   0.129946 0.182334 0.811979 -0.041726
C155  C     C_R   0.629944 0.317547 0.812079 -0.040244
C156  C     C_R   0.370057 0.682347 0.188012 -0.041692
C157  C     C_R   0.370056 0.317553 0.187925 -0.040265
C158  C     C_R   0.629943 0.682333 0.811974 -0.041763
C159  C     C_R   0.180194 0.783952 0.767230 -0.020995
C160  C     C_R   0.819877 0.216146 0.232741 -0.021883
C161  C     C_R   0.819812 0.783946 0.232768 -0.021008
C162  C     C_R   0.180126 0.216140 0.767258 -0.021883
C163  C     C_R   0.680202 0.283964 0.767227 -0.020988
C164  C     C_R   0.204125 0.230153 0.670734 0.562262
C165  C     C_R   0.319871 0.716136 0.232743 -0.021872
C166  C     C_R   0.319802 0.283959 0.232770 -0.020997
C167  C     C_R   0.680120 0.716148 0.767260 -0.021892
C168  C     C_R   0.209864 0.768750 0.813603 -0.136704
C169  C     C_R   0.790345 0.231638 0.186208 -0.134266
C170  C     C_R   0.790147 0.768734 0.186388 -0.136697
C171  C     C_R   0.209660 0.231627 0.813789 -0.134268
C172  C     C_R   0.709881 0.268781 0.813589 -0.136710
C173  C     C_R   0.290327 0.731604 0.186223 -0.134273
C174  C     C_R   0.290130 0.268762 0.186400 -0.136706
C175  C     C_R   0.795869 0.769859 0.329263 0.548804
C176  C     C_R   0.709650 0.731645 0.813797 -0.134259
C177  C     C_R   0.191745 0.790221 0.902250 -0.014148
C178  C     C_R   0.808506 0.210222 0.097527 -0.013999
C179  C     C_R   0.808264 0.790209 0.097744 -0.014143
C180  C     C_R   0.191502 0.210208 0.902467 -0.013998
C181  C     C_R   0.691765 0.290258 0.902233 -0.014151
C182  C     C_R   0.308482 0.710180 0.097547 -0.014005
C183  C     C_R   0.308247 0.290236 0.097756 -0.014147
C184  C     C_R   0.691493 0.710224 0.902475 -0.013996
C185  C     C_R   0.196941 0.631790 0.526647 0.552989
C186  C     C_R   0.557090 0.876309 0.475122 -0.149924
C187  C     C_R   0.800260 0.369055 0.483536 0.554926
C188  C     C_R   0.803059 0.631789 0.473353 0.552974
C189  C     C_R   0.199740 0.369055 0.516464 0.554925
C190  C     C_R   0.696941 0.131790 0.526647 0.552991
C191  C     C_R   0.300261 0.869055 0.483534 0.554932
C192  C     C_R   0.303059 0.131789 0.473353 0.552985
C193  C     C_R   0.699741 0.869056 0.516462 0.554912
C194  C     C_R   0.927697 0.901449 0.065689 0.553823
C195  C     C_R   0.072297 0.098550 0.934313 0.553082
C196  C     C_R   0.072304 0.901449 0.934310 0.553837
Cu1   Cu    Cu3+1 0.209920 0.785290 0.495070 0.905145
Cu2   Cu    Cu3+1 0.504760 0.500000 0.075850 0.914187
Cu3   Cu    Cu3+1 0.995240 0.000000 0.924150 0.914205
Cu4   Cu    Cu3+1 0.004760 0.000000 0.075850 0.914234
Cu5   Cu    Cu3+1 0.790080 0.214710 0.504930 0.899422
Cu6   Cu    Cu3+1 0.790080 0.785290 0.504930 0.905173
Cu7   Cu    Cu3+1 0.209920 0.214710 0.495070 0.899427
Cu8   Cu    Cu3+1 0.709920 0.285290 0.495070 0.905115
Cu9   Cu    Cu3+1 0.290080 0.714710 0.504930 0.899400
Cu10  Cu    Cu3+1 0.290080 0.285290 0.504930 0.905149
Cu11  Cu    Cu3+1 0.709920 0.714710 0.495070 0.899452
Cu12  Cu    Cu3+1 0.495240 0.500000 0.924150 0.914218
H1    H     H_    0.229101 0.500033 0.534965 0.155894
H2    H     H_    0.911289 0.673775 0.413756 0.159881
H3    H     H_    0.868312 0.331709 0.559957 0.155405
H4    H     H_    0.088711 0.673778 0.586243 0.159902
H5    H     H_    0.544531 0.827999 0.454667 0.102933
H6    H     H_    0.483779 0.178347 0.449896 0.103403
H7    H     H_    0.455500 0.827993 0.545253 0.102938
H8    H     H_    0.516223 0.178345 0.550093 0.103401
H9    H     H_    0.044518 0.327996 0.454702 0.102936
H10   H     H_    0.983778 0.678345 0.449902 0.103413
H11   H     H_    0.955486 0.327996 0.545289 0.102936
H12   H     H_    0.770899 0.500033 0.465035 0.155891
H13   H     H_    0.016222 0.678346 0.550098 0.103403
H14   H     H_    0.215503 0.873759 0.013201 0.102042
H15   H     H_    0.784793 0.126747 0.986502 0.102130
H16   H     H_    0.784502 0.873768 0.986815 0.102044
H17   H     H_    0.215228 0.126724 0.013466 0.102133
H18   H     H_    0.715516 0.373798 0.013193 0.102036
H19   H     H_    0.284758 0.626698 0.986538 0.102129
H20   H     H_    0.284485 0.373782 0.986818 0.102040
H21   H     H_    0.715218 0.626726 0.013464 0.102133
H22   H     H_    0.235961 0.661013 0.903907 0.102669
H23   H     H_    0.729100 0.000033 0.534970 0.155889
H24   H     H_    0.764330 0.339488 0.095821 0.102677
H25   H     H_    0.764032 0.661013 0.096077 0.102667
H26   H     H_    0.235668 0.339475 0.904193 0.102679
H27   H     H_    0.735995 0.161058 0.903874 0.102668
H28   H     H_    0.264314 0.839446 0.095831 0.102680
H29   H     H_    0.264030 0.161031 0.096092 0.102669
H30   H     H_    0.735673 0.839481 0.904201 0.102677
H31   H     H_    0.133096 0.852700 0.008773 0.133144
H32   H     H_    0.867145 0.147722 0.991015 0.132318
H33   H     H_    0.866913 0.852684 0.991223 0.133148
H34   H     H_    0.270898 0.000033 0.465039 0.155892
H35   H     H_    0.132865 0.147707 0.008977 0.132318
H36   H     H_    0.633114 0.352733 0.008758 0.133145
H37   H     H_    0.367120 0.647675 0.991038 0.132318
H38   H     H_    0.366896 0.352712 0.991233 0.133144
H39   H     H_    0.632854 0.647725 0.008984 0.132320
H40   H     H_    0.247825 0.741174 0.780300 0.130694
H41   H     H_    0.752440 0.259353 0.219433 0.133859
H42   H     H_    0.752188 0.741157 0.219689 0.130689
H43   H     H_    0.247565 0.259342 0.780565 0.133859
H44   H     H_    0.747845 0.241214 0.780281 0.130692
H45   H     H_    0.631703 0.831712 0.440016 0.155406
H46   H     H_    0.252419 0.759311 0.219453 0.133866
H47   H     H_    0.252168 0.241189 0.219703 0.130691
H48   H     H_    0.747553 0.759361 0.780574 0.133859
H49   H     H_    0.111550 0.910932 0.702608 0.108886
H50   H     H_    0.045585 0.897516 0.644380 0.080619
H51   H     H_    0.986753 0.791081 0.684072 0.101932
H52   H     H_    0.993722 0.697936 0.782763 0.112360
H53   H     H_    0.059321 0.710504 0.841827 0.098988
H54   H     H_    0.941076 0.288686 0.159312 0.097703
H55   H     H_    0.006327 0.300074 0.219263 0.110128
H56   H     H_    0.411289 0.173777 0.413752 0.159900
H57   H     H_    0.012545 0.206193 0.317839 0.099523
H58   H     H_    0.953310 0.100213 0.356493 0.078893
H59   H     H_    0.887648 0.088027 0.297455 0.108952
H60   H     H_    0.888336 0.911058 0.297410 0.108837
H61   H     H_    0.954256 0.897811 0.355757 0.080592
H62   H     H_    0.013154 0.791449 0.316190 0.101892
H63   H     H_    0.006295 0.698204 0.217507 0.112339
H64   H     H_    0.940740 0.710600 0.158324 0.098966
H65   H     H_    0.058922 0.288678 0.840711 0.097702
H66   H     H_    0.993669 0.300074 0.780766 0.110126
H67   H     H_    0.368325 0.831704 0.559932 0.155409
H68   H     H_    0.987456 0.206205 0.682168 0.099524
H69   H     H_    0.046694 0.100225 0.643496 0.078898
H70   H     H_    0.112355 0.088029 0.702535 0.108967
H71   H     H_    0.611497 0.410850 0.702592 0.108898
H72   H     H_    0.545496 0.397343 0.644452 0.080632
H73   H     H_    0.486677 0.290892 0.684270 0.101957
H74   H     H_    0.493700 0.197815 0.782987 0.112367
H75   H     H_    0.559340 0.210468 0.841952 0.098997
H76   H     H_    0.441040 0.788761 0.159151 0.097717
H77   H     H_    0.506338 0.800289 0.218987 0.110132
H78   H     H_    0.588710 0.173776 0.586244 0.159907
H79   H     H_    0.512641 0.706503 0.317593 0.099553
H80   H     H_    0.453447 0.600476 0.356388 0.078913
H81   H     H_    0.387740 0.588147 0.297461 0.109007
H82   H     H_    0.388439 0.410941 0.297398 0.108897
H83   H     H_    0.454402 0.397532 0.355629 0.080620
H84   H     H_    0.513242 0.291104 0.315931 0.101929
H85   H     H_    0.506281 0.197955 0.217232 0.112352
H86   H     H_    0.440682 0.210514 0.158167 0.098982
H87   H     H_    0.558883 0.788613 0.840566 0.097684
H88   H     H_    0.493670 0.799871 0.780515 0.110120
H89   H     H_    0.131691 0.331708 0.440037 0.155406
H90   H     H_    0.487537 0.705913 0.681948 0.099495
H91   H     H_    0.546817 0.599985 0.643401 0.078887
H92   H     H_    0.612440 0.587928 0.702538 0.108949
O1    O     O_R   0.255040 0.869590 0.478480 -0.513396
O2    O     O_R   0.817950 0.203450 0.375560 -0.501203
O3    O     O_R   0.817950 0.796550 0.375560 -0.510119
O4    O     O_R   0.182050 0.203450 0.624440 -0.501202
O5    O     O_R   0.682050 0.296550 0.624440 -0.510138
O6    O     O_R   0.317950 0.703450 0.375560 -0.501214
O7    O     O_R   0.317950 0.296550 0.375560 -0.510124
O8    O     O_R   0.682050 0.703450 0.624440 -0.501193
O9    O     O_R   0.250530 0.763330 0.367210 -0.511338
O10   O     O_R   0.749470 0.236670 0.632790 -0.524037
O11   O     O_R   0.749470 0.763330 0.632790 -0.511329
O12   O     O_R   0.744960 0.130410 0.521520 -0.512720
O13   O     O_R   0.250530 0.236670 0.367210 -0.524036
O14   O     O_R   0.750530 0.263330 0.367210 -0.511334
O15   O     O_R   0.249470 0.736670 0.632790 -0.524035
O16   O     O_R   0.249470 0.263330 0.632790 -0.511333
O17   O     O_R   0.750530 0.736670 0.367210 -0.524034
O18   O     O_R   0.177260 0.690030 0.513710 -0.514803
O19   O     O_R   0.822740 0.309970 0.486290 -0.517682
O20   O     O_R   0.822740 0.690030 0.486290 -0.514797
O21   O     O_R   0.177260 0.309970 0.513710 -0.517681
O22   O     O_R   0.677260 0.190030 0.513710 -0.514804
O23   O     O_R   0.744960 0.869590 0.521520 -0.513401
O24   O     O_R   0.322740 0.809970 0.486290 -0.517684
O25   O     O_R   0.322740 0.190030 0.486290 -0.514802
O26   O     O_R   0.677260 0.809970 0.513710 -0.517677
O27   O     O_R   0.051640 0.926880 0.885090 -0.509317
O28   O     O_R   0.948360 0.073120 0.114910 -0.510079
O29   O     O_R   0.948360 0.926880 0.114910 -0.509309
O30   O     O_R   0.051640 0.073120 0.885090 -0.510076
O31   O     O_R   0.551640 0.426880 0.885090 -0.509312
O32   O     O_R   0.448360 0.573120 0.114910 -0.510078
O33   O     O_R   0.448360 0.426880 0.114910 -0.509311
O34   O     O_R   0.255040 0.130410 0.478480 -0.512720
O35   O     O_R   0.551640 0.573120 0.885090 -0.510070
O36   O     O_R   0.940620 0.926560 0.986760 -0.513351
O37   O     O_R   0.059380 0.073440 0.013240 -0.514001
O38   O     O_R   0.059380 0.926560 0.013240 -0.513355
O39   O     O_R   0.940620 0.073440 0.986760 -0.514003
O40   O     O_R   0.440620 0.426560 0.986760 -0.513351
O41   O     O_R   0.559380 0.573440 0.013240 -0.514003
O42   O     O_R   0.559380 0.426560 0.013240 -0.513358
O43   O     O_R   0.440620 0.573440 0.986760 -0.514008
O44   O     O_R   0.755040 0.369590 0.478480 -0.513399
O45   O     O_R   0.244960 0.630410 0.521520 -0.512718
O46   O     O_R   0.244960 0.369590 0.521520 -0.513395
O47   O     O_R   0.755040 0.630410 0.478480 -0.512723
O48   O     O_R   0.182050 0.796550 0.624440 -0.510124

loop_
_geom_bond_atom_site_label_1
_geom_bond_atom_site_label_2
_ccdc_geom_bond_type
C28   C47   A    
C96   C102  A    
C140  H39   S    
C36   C42   A    
C188  O20   A    
C110  C118  A    
C13   C18   A    
C81   H69   S    
C112  C124  A    
C16   C35   A    
C6    C146  S    
Cu7   O34   S    
C122  H29   S    
C106  C107  A    
C4    C148  S    
C84   H71   S    
C189  O21   A    
C80   H68   S    
C5    C149  S    
C39   H1    S    
C30   C189  S    
C169  H41   S    
C37   C42   A    
C134  C143  A    
C11   C47   A    
C113  C122  A    
C41   H23   S    
C131  C166  S    
C10   C20   A    
C38   C190  S    
Cu1   O18   S    
C111  C125  A    
C7    O32   A    
C90   C116  A    
C117  C126  A    
C6    O42   A    
C123  H30   S    
C119  C128  A    
C24   C51   A    
C143  C151  A    
C83   C88   A    
C59   C60   A    
C8    C16   A    
C40   H12   S    
Cu7   O13   S    
C104  C105  A    
C158  C167  A    
C191  O1    A    
C162  C164  S    
C166  C174  A    
C150  C159  A    
C77   H65   S    
C137  C146  A    
C3    C143  S    
C109  C163  S    
C72   C73   A    
C42   H34   S    
C29   C45   A    
C141  C196  S    
Cu11  O47   S    
C22   C31   A    
Cu2   O33   S    
C163  C172  A    
C106  H90   S    
Cu7   O21   S    
C119  H27   S    
C173  C182  A    
C2    H6    S    
Cu3   O39   S    
C127  H20   S    
C120  O11   A    
C56   C62   A    
C190  O22   A    
C125  H18   S    
Cu8   O14   S    
C21   C30   A    
C176  C184  A    
C14   C57   A    
C2    C19   A    
C7    O43   A    
C25   C55   A    
C92   H77   S    
C69   H59   S    
C135  H33   S    
C9    C15   A    
C195  O30   A    
C23   C32   A    
C13   H7    S    
C46   C53   A    
C138  C182  A    
C20   C186  A    
C101  C132  A    
C189  O46   A    
C98   C99   A    
Cu11  O17   S    
C191  O24   A    
C61   H52   S    
C48   H45   S    
C11   C18   A    
C71   H60   S    
C79   C115  A    
C123  C132  A    
C51   H78   S    
C187  O19   A    
C105  H88   S    
C25   C43   A    
C97   C98   A    
C85   C86   A    
C104  H87   S    
C12   C68   A    
C164  O4    A    
C114  C126  A    
C78   C80   A    
Cu12  O31   S    
C137  C181  A    
C75   H64   S    
C109  O5    A    
C111  C119  A    
Cu8   O44   S    
Cu6   O23   S    
C26   C45   A    
Cu2   O41   S    
C172  C181  A    
C63   C69   A    
C53   H2    S    
C29   C38   A    
C107  C108  A    
C79   C177  S    
C59   H50   S    
C110  C180  S    
C89   C91   A    
C149  C158  A    
C152  C161  A    
Cu12  O40   S    
C66   C67   A    
C4    O33   A    
Cu11  O26   S    
Cu10  O46   S    
C82   H70   S    
C35   H9    S    
C62   H53   S    
C49   H56   S    
C141  C150  A    
C7    C147  S    
C139  C148  A    
C162  C171  A    
C193  O26   A    
C126  H21   S    
C38   C41   A    
Cu8   O5    S    
C76   C82   A    
C91   C92   A    
C155  C163  A    
C175  O3    A    
C50   H67   S    
C83   C84   A    
C117  H25   S    
C8    C12   A    
C121  H28   S    
C10   C45   A    
C66   H57   S    
C145  C154  A    
Cu9   O24   S    
Cu6   Cu11  S    
C72   H61   S    
C118  C127  A    
C78   H66   S    
C56   C150  S    
C99   H84   S    
C103  C104  A    
C124  H19   S    
C29   C51   A    
C27   C47   A    
Cu5   O2    S    
C131  O7    A    
C54   H3    S    
C32   C187  S    
C37   C191  S    
Cu7   O4    S    
C36   C192  S    
C154  C162  A    
C129  H14   S    
Cu10  O25   S    
C170  C179  A    
C116  C125  A    
C87   H74   S    
C112  C121  A    
C144  C152  A    
C107  H91   S    
C192  O25   A    
C24   H8    S    
C113  C183  S    
C28   C37   A    
C114  C184  S    
C76   C154  S    
C56   C58   A    
C30   C39   A    
C195  O37   A    
C148  C157  A    
C95   H81   S    
C61   C62   A    
C190  O12   A    
C13   C50   A    
Cu3   Cu4   S    
C70   C75   A    
C153  O48   A    
C133  H31   S    
C15   C46   A    
C192  O34   A    
C140  C149  A    
C27   C49   A    
C25   C33   A    
C54   C57   A    
Cu3   O30   S    
C87   C88   A    
C90   C178  S    
C46   H10   S    
C194  O36   A    
C73   C74   A    
Cu1   Cu9   S    
C8    C43   A    
C196  O38   A    
C55   C68   A    
C102  H86   S    
C77   C78   A    
C11   C19   A    
C140  C184  A    
C73   H62   S    
C3    O39   A    
Cu9   O15   S    
C64   H54   S    
Cu10  O16   S    
C168  C177  A    
C79   C129  A    
C186  H5    S    
C111  C181  S    
C31   C40   A    
C170  H42   S    
C115  H22   S    
C153  O15   A    
C55   H4    S    
C146  C155  A    
C109  O10   A    
C160  C169  A    
C70   C71   A    
Cu9   O6    S    
C136  H35   S    
C26   C48   A    
C3    O28   A    
Cu6   O3    S    
C142  O2    A    
Cu5   O10   S    
C65   H55   S    
C34   C41   A    
C185  O45   A    
C128  H15   S    
Cu12  O43   S    
Cu7   Cu10  S    
C84   C85   A    
C93   H79   S    
C67   H58   S    
C86   C87   A    
C100  H85   S    
C89   C156  S    
C94   H80   S    
C58   C59   A    
C23   C44   A    
C60   C61   A    
C193  O23   A    
C89   C95   A    
C9    C14   A    
C12   C15   A    
C173  H46   S    
C6    O31   A    
C33   C39   A    
C134  C178  A    
C147  C156  A    
C63   C151  S    
Cu8   O22   S    
C34   C193  S    
Cu3   O36   S    
C142  O14   A    
C1    O9    A    
C115  C124  A    
C132  H16   S    
C121  C129  A    
C174  C183  A    
C74   H63   S    
C103  C158  S    
Cu3   O27   S    
C27   C36   A    
C105  C106  A    
C133  C141  A    
C101  C117  A    
C64   C65   A    
C138  H37   S    
C133  C177  A    
Cu1   O1    S    
C156  C165  A    
C92   C93   A    
C110  C130  A    
Cu2   O32   S    
C94   C95   A    
C145  C195  S    
Cu10  O7    S    
Cu2   O42   S    
C71   C72   A    
C144  C194  S    
C188  O47   A    
C35   C52   A    
Cu5   O12   S    
Cu11  O8    S    
C33   C185  S    
Cu6   O11   S    
C139  H38   S    
C120  C167  S    
C164  O16   A    
C175  O17   A    
C93   C94   A    
C68   H13   S    
C4    O40   A    
C81   C82   A    
Cu5   O19   S    
C196  O27   A    
Cu6   O20   S    
C60   H51   S    
C161  C175  S    
C10   C17   A    
C165  C173  A    
C159  C168  A    
C97   H82   S    
C21   C43   A    
C137  H36   S    
C28   C50   A    
C26   C34   A    
C22   C44   A    
C130  H17   S    
C31   C188  S    
C176  H48   S    
C103  C108  A    
C136  C145  A    
C83   C155  S    
C185  O18   A    
Cu9   O45   S    
Cu4   O37   S    
C22   C53   A    
C108  H92   S    
Cu4   O38   S    
C17   C24   A    
C74   C75   A    
C58   H49   S    
Cu2   Cu12  S    
C70   C152  S    
C76   C77   A    
C187  O44   A    
C112  C182  S    
C57   H11   S    
C172  H44   S    
C63   C64   A    
Cu1   O9    S    
C67   C69   A    
C52   H89   S    
C153  C159  S    
C48   C186  A    
C101  C179  S    
C2    C49   A    
Cu4   O28   S    
Cu1   O48   S    
C118  H26   S    
C99   C100  A    
C1    C165  S    
C138  C147  A    
C96   C97   A    
C100  C102  A    
C120  O8    A    
C85   H72   S    
C91   H76   S    
C114  C123  A    
C161  C170  A    
C171  H43   S    
C135  C144  A    
C168  H40   S    
Cu5   Cu8   S    
C14   C16   A    
C171  C180  A    
C88   H75   S    
C169  C178  A    
C139  C183  A    
C23   C54   A    
C9    C44   A    
C194  O29   A    
C134  H32   S    
C142  C160  S    
C80   C81   A    
C157  C166  A    
C113  C127  A    
C5    O35   A    
C1    O6    A    
C136  C180  A    
C5    O41   A    
C151  C160  A    
C98   H83   S    
C135  C179  A    
C131  O13   A    
C17   C19   A    
C86   H73   S    
C96   C157  S    
C18   C20   A    
C32   C40   A    
C174  H47   S    
Cu12  O35   S    
C65   C66   A    
C90   C128  A    
Cu4   O29   S    
C122  C130  A    
C21   C52   A    
C116  H24   S    
C167  C176  A    
