data_mof_unit_31334.cif
_audit_creation_date              2012-12-10T18:23:04-0500
_audit_creation_method            fapswitch 2.2
_symmetry_space_group_name_H-M    P1
_symmetry_Int_Tables_number       1
_space_group_crystal_system       triclinic
_cell_length_a                    14.891077
_cell_length_b                    14.026694
_cell_length_c                    10.622603
_cell_angle_alpha                 89.45941
_cell_angle_beta                  89.795069
_cell_angle_gamma                 90.109262
_cell_volume                      2218.65337155

loop_
_atom_site_label
_atom_site_type_symbol
_atom_type_description
_atom_site_fract_x
_atom_site_fract_y
_atom_site_fract_z
_atom_type_partial_charge
C1    C     C_R   0.327069 0.499918 0.500341 0.888032
C2    C     C_R   0.953516 0.477279 0.271690 0.041970
C3    C     C_R   0.551361 0.798912 0.414150 -0.059602
C4    C     C_R   0.448639 0.201088 0.585850 -0.059602
C5    C     C_R   0.448600 0.797484 0.585806 -0.053034
C6    C     C_R   0.551400 0.202516 0.414194 -0.053034
C7    C     C_R   0.447420 0.898096 0.587935 0.014278
C8    C     C_R   0.552580 0.101904 0.412064 0.014277
C9    C     C_R   0.552560 0.899566 0.412038 0.014435
C10   C     C_R   0.447440 0.100434 0.587962 0.014435
C11   C     C_R   0.499997 0.949404 0.499995 0.085280
C12   C     C_R   0.672931 0.500082 0.499659 0.888032
C13   C     C_R   0.500003 0.050596 0.500005 0.085280
C14   C     C_R   0.395176 0.948410 0.675459 -0.205175
C15   C     C_R   0.604824 0.051590 0.324541 -0.205175
C16   C     C_R   0.604811 0.951351 0.324525 -0.204113
C17   C     C_R   0.395189 0.048649 0.675475 -0.204113
C18   C     C_R   0.499868 0.500468 0.257114 0.880401
C19   C     C_R   0.500132 0.499532 0.742886 0.880401
C20   C     C_3   0.495578 0.591831 0.038967 -0.216807
C21   C     C_3   0.504422 0.408169 0.961033 -0.216807
C22   C     C_3   0.572245 0.549640 0.956826 -0.201944
C23   C     C_R   0.953201 0.500082 0.499915 -0.036416
C24   C     C_3   0.427755 0.450360 0.043173 -0.201944
C25   C     C_3   0.426048 0.539571 0.958484 0.141548
C26   C     C_3   0.573951 0.460429 0.041516 0.141548
C27   C     C_3   0.500724 0.498531 0.877623 -0.015458
C28   C     C_3   0.499275 0.501468 0.122377 -0.015458
C29   C     C_R   0.813179 0.487423 0.387051 -0.229226
C30   C     C_R   0.186821 0.512577 0.612949 -0.229226
C31   C     C_R   0.767961 0.500257 0.499657 -0.082754
C32   C     C_R   0.232039 0.499743 0.500343 -0.082754
C33   C     C_R   0.812505 0.513062 0.612360 -0.221495
C34   C     C_R   0.046799 0.499917 0.500085 -0.036416
C35   C     C_R   0.187495 0.486936 0.387640 -0.221496
C36   C     C_R   0.905848 0.512469 0.614263 0.118083
C37   C     C_R   0.094152 0.487530 0.385737 0.118083
C38   C     C_R   0.906545 0.487845 0.385405 0.115830
C39   C     C_R   0.093455 0.512154 0.614595 0.115830
C40   C     C_R   0.952085 0.522891 0.728132 0.039518
C41   C     C_R   0.047915 0.477108 0.271868 0.039519
C42   C     C_R   0.046484 0.522720 0.728310 0.041970
H1    H     H_    0.490100 0.666231 0.072876 0.150347
H2    H     H_    0.408634 0.240693 0.652629 0.135813
H3    H     H_    0.408530 0.756783 0.652522 0.130231
H4    H     H_    0.591470 0.243217 0.347478 0.130231
H5    H     H_    0.354307 0.910259 0.743906 0.139996
H6    H     H_    0.645693 0.089741 0.256094 0.139996
H7    H     H_    0.645674 0.914351 0.256067 0.142091
H8    H     H_    0.354326 0.085648 0.743933 0.142092
H9    H     H_    0.305383 0.603473 0.984873 0.187182
H10   H     H_    0.362835 0.643992 0.859136 0.179999
H11   H     H_    0.694616 0.396526 0.015127 0.187182
H12   H     H_    0.509900 0.333769 0.927124 0.150347
H13   H     H_    0.637165 0.356009 0.140865 0.180000
H14   H     H_    0.918547 0.471398 0.899293 0.179520
H15   H     H_    0.921400 0.593094 0.888789 0.181217
H16   H     H_    0.078598 0.406906 0.111210 0.181216
H17   H     H_    0.081454 0.528602 0.100708 0.179521
H18   H     H_    0.077943 0.471408 0.899877 0.180332
H19   H     H_    0.076746 0.593042 0.888775 0.178867
H20   H     H_    0.923253 0.406957 0.111226 0.178867
H21   H     H_    0.922055 0.528591 0.100124 0.180334
H22   H     H_    0.631903 0.587953 0.918779 0.145524
H23   H     H_    0.368097 0.412047 0.081221 0.145525
H24   H     H_    0.774775 0.477819 0.301533 0.175151
H25   H     H_    0.225225 0.522181 0.698467 0.175151
H26   H     H_    0.773569 0.522667 0.697803 0.155199
H27   H     H_    0.226431 0.477332 0.302198 0.155200
H28   H     H_    0.591365 0.759307 0.347371 0.135813
N1    N     N_R   0.500000 0.750030 0.500000 -0.104325
N2    N     N_R   0.500000 0.249970 0.500000 -0.104325
N3    N     N_3   0.344362 0.582051 0.908230 -0.470148
N4    N     N_3   0.655638 0.417949 0.091770 -0.470148
N5    N     N_3   0.902546 0.530451 0.843396 -0.482515
N6    N     N_3   0.097454 0.469547 0.156605 -0.482514
N7    N     N_3   0.095225 0.530103 0.843781 -0.474611
N8    N     N_3   0.904775 0.469896 0.156220 -0.474614
O1    O     O_R   0.367850 0.580280 0.500030 -0.616493
O2    O     O_R   0.632150 0.419720 0.499970 -0.616493
O3    O     O_R   0.632150 0.580280 0.499970 -0.616015
O4    O     O_R   0.367850 0.419720 0.500030 -0.616015
O5    O     O_R   0.499970 0.580260 0.313950 -0.630113
O6    O     O_R   0.500030 0.419740 0.686050 -0.630113
O7    O     O_R   0.500030 0.580260 0.686050 -0.629185
O8    O     O_R   0.499970 0.419740 0.313950 -0.629185
Zn1   Zn    Zn3+2 0.500000 0.607200 0.500000 0.948585
Zn2   Zn    Zn3+2 0.500000 0.392800 0.500000 0.948585

loop_
_geom_bond_atom_site_label_1
_geom_bond_atom_site_label_2
_ccdc_geom_bond_type
O5    Zn1   S    
C21   C26   S    
C8    C13   A    
C34   C37   A    
H11   N4    S    
O1    Zn1   S    
H16   N6    S    
C7    C11   A    
C18   O8    A    
C3    C9    A    
C35   C37   A    
C9    C16   A    
C21   H12   S    
O8    Zn2   S    
C20   C25   S    
C2    C41   A    
C15   C16   A    
C33   C36   A    
H13   N4    S    
C7    C14   A    
H19   N7    S    
C29   C38   A    
C30   C39   A    
C31   C33   A    
C19   C27   S    
C30   H25   S    
C40   C42   A    
C21   C27   S    
H14   N5    S    
C14   C17   A    
C15   H6    S    
N2    Zn2   S    
C39   C42   A    
O7    Zn1   S    
H18   N7    S    
C34   C39   A    
C32   C35   A    
O6    Zn2   S    
C36   C40   A    
C3    H28   S    
C18   C28   S    
C16   H7    S    
H10   N3    S    
C5    C7    A    
C6    C8    A    
C20   C28   S    
C1    O4    A    
C6    N2    A    
C5    H3    S    
C1    C32   S    
C3    N1    A    
C2    N8    S    
C2    C38   A    
C29   C31   A    
C23   C34   A    
C18   O5    A    
C24   C25   S    
C9    C11   A    
O3    Zn1   S    
C24   H23   S    
N1    Zn1   S    
C20   C22   S    
C8    C15   A    
C22   C27   S    
C12   C31   S    
C1    O1    A    
C4    C10   A    
C19   O6    A    
C4    N2    A    
C20   H1    S    
C24   C28   S    
C6    H4    S    
H20   N8    S    
H9    N3    S    
C19   O7    A    
C10   C13   A    
C17   H8    S    
C14   H5    S    
C25   C27   S    
C23   C38   A    
C4    H2    S    
C26   C28   S    
C40   N5    S    
H15   N5    S    
C5    N1    A    
C41   N6    S    
C30   C32   A    
C11   C13   A    
O4    Zn2   S    
C12   O2    A    
C26   N4    S    
C12   O3    A    
C25   N3    S    
C37   C41   A    
C22   H22   S    
C29   H24   S    
C35   H27   S    
C42   N7    S    
O2    Zn2   S    
C23   C36   A    
C22   C26   S    
C21   C24   S    
C10   C17   A    
H17   N6    S    
C33   H26   S    
H21   N8    S    
