data_mof_unit_9408.cif
_audit_creation_date              2013-03-05T15:44:17-0500
_audit_creation_method            fapswitch 2.2
_symmetry_space_group_name_H-M    P1
_symmetry_Int_Tables_number       1
_space_group_crystal_system       triclinic
_cell_length_a                    20.910555
_cell_length_b                    7.095433
_cell_length_c                    16.318322
_cell_angle_alpha                 91.013809
_cell_angle_beta                  92.445333
_cell_angle_gamma                 90.675167
_cell_volume                      2418.36641202

loop_
_atom_site_label
_atom_site_type_symbol
_atom_site_description
_atom_site_fract_x
_atom_site_fract_y
_atom_site_fract_z
_atom_type_partial_charge
O1    O     O_R   0.564840 0.505290 0.579830 -0.543316
O2    O     O_R   0.435160 0.005290 0.420170 -0.516932
O3    O     O_R   0.556720 0.179930 0.409350 -0.558915
O4    O     O_R   0.443280 0.679930 0.590650 -0.542166
C1    C     C_R   0.570404 0.344171 0.380889 0.854856
C2    C     C_R   0.429304 0.845761 0.618888 0.868284
O5    O     O_R   0.572280 0.175810 0.578530 -0.516451
O6    O     O_R   0.427720 0.675810 0.421470 -0.529617
O7    O     O_R   0.450830 0.001920 0.590540 -0.549625
O8    O     O_R   0.549170 0.501920 0.409460 -0.540636
C3    C     C_R   0.590372 0.346448 0.604458 0.903899
C4    C     C_R   0.409518 0.842108 0.395416 0.916315
O9    O     O_3   0.460130 0.338030 0.503750 -0.249116
O10   O     O_3   0.539870 0.838030 0.496250 -0.269409
V1    V     V_3+5 0.507400 0.064560 0.499310 1.294036
V2    V     V_3+5 0.492600 0.564560 0.500690 1.295680
C5    C     C_R   0.142664 0.926053 0.168855 -0.091315
C6    C     C_R   0.859148 0.395059 0.829625 -0.098762
C7    C     C_R   0.354381 0.841700 0.333709 -0.234714
C8    C     C_R   0.643628 0.364794 0.668302 -0.242724
C9    C     C_R   0.296836 0.691428 0.216459 -0.020872
C10   C     C_R   0.691750 0.539291 0.785987 0.001613
C11   C     C_R   0.351179 0.704547 0.269401 0.328546
C12   C     C_R   0.638212 0.495112 0.734512 0.314787
C13   C     C_R   0.303036 0.969731 0.341497 0.283805
C14   C     C_R   0.702579 0.270647 0.658724 0.282124
C15   C     C_R   0.247248 0.954996 0.287204 -0.028096
C16   C     C_R   0.754911 0.302732 0.716989 -0.033820
C17   C     C_R   0.245552 0.814238 0.223874 0.015928
C18   C     C_R   0.749730 0.446881 0.777865 -0.000222
C19   C     C_R   0.193148 0.798877 0.166589 -0.006575
C20   C     C_R   0.801896 0.494111 0.832401 -0.016814
C21   C     C_R   0.143325 0.063254 0.231517 -0.126562
C22   C     C_R   0.864054 0.249370 0.771162 -0.131623
C23   C     C_R   0.193010 0.075116 0.292208 0.005993
C24   C     C_R   0.812782 0.198483 0.716697 0.012285
H1    H     H_    0.192905 0.692600 0.117972 0.085465
H2    H     H_    0.796912 0.601899 0.879575 0.092246
H3    H     H_    0.103151 0.158093 0.234971 0.086095
H4    H     H_    0.907390 0.166701 0.771087 0.091129
H5    H     H_    0.295453 0.586883 0.167111 0.147997
H6    H     H_    0.687479 0.643461 0.834798 0.159953
C25   C     C_R   0.380978 0.910702 0.836816 0.002616
C26   C     C_R   0.619607 0.322341 0.162025 -0.003350
H7    H     H_    0.469231 0.910073 0.775325 0.155847
H8    H     H_    0.531337 0.295387 0.223035 0.147265
H9    H     H_    0.405948 0.939269 0.895176 0.160039
H10   H     H_    0.595363 0.295470 0.103071 0.159937
C27   C     C_R   0.388944 0.859047 0.690791 -0.083564
C28   C     C_R   0.610670 0.350148 0.308887 -0.085394
C29   C     C_R   0.078622 0.891395 0.731367 -0.093764
C30   C     C_R   0.920404 0.432309 0.268337 -0.095787
C31   C     C_R   0.113392 0.873936 0.661006 -0.044716
C32   C     C_R   0.885320 0.433961 0.338721 -0.036240
C33   C     C_R   0.180027 0.867662 0.666336 -0.049014
C34   C     C_R   0.818823 0.416600 0.333361 -0.035355
C35   C     C_R   0.214119 0.879100 0.743192 0.043763
C36   C     C_R   0.785160 0.396025 0.256476 0.040806
C37   C     C_R   0.178005 0.899920 0.815199 -0.035062
C38   C     C_R   0.821678 0.393380 0.184347 -0.036964
C39   C     C_R   0.282684 0.874096 0.750615 0.006071
C40   C     C_R   0.716749 0.376581 0.249077 0.009245
C41   C     C_R   0.313635 0.896887 0.829879 -0.031381
C42   C     C_R   0.686421 0.353200 0.169459 -0.030662
C43   C     C_R   0.276903 0.911869 0.900476 0.341181
C44   C     C_R   0.723415 0.355540 0.098864 0.343081
C45   C     C_R   0.210224 0.914426 0.892239 -0.122938
C46   C     C_R   0.789939 0.373339 0.107181 -0.121833
C47   C     C_R   0.321879 0.849506 0.681887 -0.074160
C48   C     C_R   0.677209 0.377461 0.318156 -0.082106
C49   C     C_R   0.417812 0.894315 0.768099 -0.046411
C50   C     C_R   0.582460 0.320620 0.230802 -0.049741
C51   C     C_R   0.109934 0.904727 0.808653 -0.076737
C52   C     C_R   0.889603 0.412490 0.190956 -0.075110
H11   H     H_    0.302010 0.824876 0.620594 0.090311
H12   H     H_    0.696395 0.397147 0.380044 0.093696
H13   H     H_    0.026813 0.894407 0.725536 0.080081
H14   H     H_    0.972047 0.447411 0.274217 0.072090
H15   H     H_    0.203311 0.855759 0.608920 0.108950
H16   H     H_    0.795384 0.419607 0.390780 0.119141
H17   H     H_    0.088425 0.864907 0.601529 0.104858
H18   H     H_    0.909917 0.449514 0.398244 0.101564
H19   H     H_    0.183553 0.926302 0.947519 0.085283
H20   H     H_    0.816775 0.374169 0.051853 0.085379
O11   O     O_R   0.950790 0.256670 0.090520 -0.551461
O12   O     O_R   0.049210 0.756670 0.909480 -0.553786
O13   O     O_R   0.927720 0.590370 0.921470 -0.559312
O14   O     O_R   0.072280 0.090370 0.078530 -0.552192
C53   C     C_R   0.910785 0.418873 0.894363 0.816146
C54   C     C_R   0.089939 0.923875 0.104910 0.813456
O15   O     O_R   0.943270 0.586180 0.090640 -0.555901
O16   O     O_R   0.056730 0.086180 0.909360 -0.555790
O17   O     O_R   0.064850 0.759970 0.079840 -0.557230
O18   O     O_R   0.935150 0.259970 0.920160 -0.554415
C55   C     C_R   0.930052 0.418295 0.118840 0.807934
C56   C     C_R   0.069681 0.916910 0.880879 0.804916
O19   O     O_3   0.039850 0.428050 0.996240 -0.273631
O20   O     O_3   0.960150 0.928050 0.003760 -0.272193
V3    V     V_3+5 0.992610 0.701540 0.000700 1.151014
V4    V     V_3+5 0.007390 0.201540 0.999300 1.158062
C57   C     C_2   0.182740 0.206369 0.361583 0.938059
O21   O     O_2   0.174023 0.373649 0.348822 -0.601460
O22   O     O_R   0.179496 0.136877 0.440941 -0.723561
H21   H     H_    0.171380 0.239582 0.483083 0.322457
C58   C     C_2   0.819425 0.019574 0.670104 0.952402
O23   O     O_2   0.865694 0.995990 0.627877 -0.596995
O24   O     O_R   0.774769 0.873804 0.678545 -0.726074
H22   H     H_    0.785123 0.756838 0.645308 0.320963
N1    N     N_R   0.404179 0.582985 0.254268 0.109321
O25   O     O_R   0.393855 0.412413 0.225695 -0.319332
O26   O     O_R   0.462352 0.650773 0.257001 -0.370981
N2    N     N_R   0.578618 0.585391 0.750312 0.101102
O27   O     O_R   0.578731 0.753816 0.783194 -0.350252
O28   O     O_R   0.524915 0.490749 0.743016 -0.362102
N3    N     N_R   0.309249 0.116772 0.402804 0.092796
O29   O     O_R   0.321713 0.288556 0.381260 -0.326293
O30   O     O_R   0.311786 0.075161 0.480226 -0.376436
N4    N     N_R   0.712209 0.167942 0.583734 0.070800
O31   O     O_R   0.752024 0.232856 0.531674 -0.401539
O32   O     O_R   0.683009 0.007515 0.568264 -0.310977
N5    N     N_R   0.306375 0.921122 0.981699 0.078963
O33   O     O_R   0.284503 0.036279 0.036478 -0.354452
O34   O     O_R   0.346584 0.792167 0.005138 -0.337785
N6    N     N_R   0.694255 0.342665 0.017566 0.076832
O35   O     O_R   0.719297 0.235692 0.962153 -0.364131
O36   O     O_R   0.650516 0.462215 0.994899 -0.340610

loop_
_geom_bond_atom_site_label_1
_geom_bond_atom_site_label_2
_geom_bond_distance
_ccdc_geom_bond_type
C36   C40   1.435269 A    
C44   C46   1.395906 A    
C41   C43   1.414760 A    
C45   H19   1.083152 S    
C57   O21   1.223103 D    
H7    C49   1.080909 S    
N3    O30   1.301535 A    
O1    C3    1.314796 A    
C23   C57   1.477565 S    
O2    C4    1.319700 A    
C2    O7    1.291689 A    
N2    O28   1.301594 A    
C25   C41   1.410016 A    
C26   C42   1.411387 A    
O5    C3    1.321167 A    
C58   O24   1.397845 S    
C21   H3    1.085249 S    
C22   H4    1.085282 S    
C10   C12   1.399757 A    
C30   C52   1.396879 A    
C13   N3    1.433540 S    
C35   C37   1.430048 A    
C15   C17   1.423473 A    
C36   C38   1.430076 A    
N3    O29   1.301030 A    
O16   C56   1.315485 A    
C40   C48   1.426086 A    
C31   H17   1.082787 S    
C38   C52   1.424520 A    
C53   O18   1.311500 A    
C39   C41   1.427151 A    
C28   C50   1.392490 A    
N4    O31   1.300842 A    
C40   C42   1.427319 A    
N1    O26   1.301484 A    
C37   C45   1.402300 A    
C8    C12   1.418710 A    
C43   C45   1.395396 A    
C12   N2    1.438758 S    
O24   H22   1.013974 S    
C26   C50   1.392027 A    
C20   H2    1.084561 S    
O17   V3    1.980242 S    
H8    C50   1.083535 S    
O5    V1    1.980867 S    
C57   O22   1.397865 S    
C27   C47   1.404399 A    
C5    C21   1.398829 A    
C30   H14   1.083933 S    
N2    O27   1.301232 A    
O19   V3    2.189302 S    
C30   C32   1.388925 A    
O13   V3    1.980888 S    
C31   C33   1.393655 A    
C11   N1    1.439273 S    
C32   C34   1.393373 A    
C3    C8    1.495075 S    
C46   H20   1.083246 S    
C29   C51   1.397156 A    
O4    C2    1.297168 A    
C15   C23   1.430951 A    
C9    C17   1.397607 A    
C19   H1    1.084649 S    
C29   C31   1.389463 A    
C42   C44   1.414986 A    
O4    V2    1.998820 S    
C7    C11   1.417417 A    
C29   H13   1.083974 S    
O12   V3    1.982324 S    
C33   H15   1.076635 S    
O18   V4    1.997190 S    
O6    C4    1.316219 A    
O1    V2    1.998557 S    
O2    V1    1.981374 S    
C6    C22   1.401866 A    
C38   C46   1.402311 A    
N5    O33   1.301424 A    
O14   V4    2.011602 S    
O12   C56   1.310769 A    
C9    H5    1.084406 S    
O14   C54   1.316044 A    
C43   N5    1.437747 S    
C33   C35   1.416487 A    
C48   H12   1.076810 S    
C5    C19   1.398084 A    
C44   N6    1.437170 S    
C1    C28   1.475329 S    
C6    C20   1.397340 A    
C32   H18   1.082785 S    
O19   V4    1.739620 S    
O3    V1    2.010107 S    
O16   V4    1.998776 S    
C54   O17   1.321206 A    
N6    O36   1.301301 A    
C39   C47   1.426491 A    
C37   C51   1.423717 A    
C25   C49   1.391174 A    
C10   C18   1.395271 A    
C24   C58   1.479147 S    
C6    C53   1.484077 S    
C14   C16   1.432128 A    
C52   C55   1.479114 S    
C5    C54   1.485080 S    
C14   N4    1.435971 S    
O3    C1    1.295482 A    
C35   C39   1.434588 A    
C13   C15   1.436085 A    
C58   O23   1.222911 D    
O20   V4    2.170873 S    
C34   H16   1.075802 S    
C9    C11   1.399005 A    
C28   C48   1.403924 A    
C1    O8    1.295471 A    
C17   C19   1.411619 A    
O11   V4    1.977428 S    
O8    V2    1.988051 S    
N1    O25   1.301567 A    
C18   C20   1.411444 A    
O11   C55   1.314093 A    
C10   H6    1.084199 S    
C8    C14   1.422103 A    
C4    C7    1.498013 S    
C16   C18   1.421455 A    
C21   C23   1.405160 A    
C34   C36   1.416564 A    
C47   H11   1.077120 S    
C22   C24   1.402841 A    
C2    C27   1.476587 S    
O7    V1    1.993592 S    
C7    C13   1.422916 A    
N4    O32   1.300979 A    
N5    O34   1.301351 A    
O15   C55   1.315161 A    
C16   C24   1.425823 A    
O6    V2    2.011599 S    
O20   V3    1.752717 S    
C27   C49   1.392390 A    
O9    V2    1.739831 S    
O22   H21   1.013863 S    
O13   C53   1.326352 A    
O10   V1    1.752931 S    
C51   C56   1.479133 S    
O15   V3    2.010055 S    
C25   H9    1.081150 S    
C26   H10   1.080973 S    
N6    O35   1.301332 A    
