data_mof_unit_44769.cif
_audit_creation_date              2012-10-26T19:59:39-0400
_audit_creation_method            fapswitch 2.2
_symmetry_space_group_name_H-M    P1
_symmetry_Int_Tables_number       1
_space_group_crystal_system       triclinic
_cell_length_a                    10.746425
_cell_length_b                    8.685726
_cell_length_c                    7.497626
_cell_angle_alpha                 103.146739
_cell_angle_beta                  94.624098
_cell_angle_gamma                 93.027276
_cell_volume                      677.444557766

loop_
_atom_site_label
_atom_site_type_symbol
_atom_type_description
_atom_site_fract_x
_atom_site_fract_y
_atom_site_fract_z
_atom_type_partial_charge
C1    C     C_R   0.496266 0.199787 0.453102 0.553979
C2    C     C_R   0.504294 0.800204 0.546826 0.520679
C3    C     C_R   0.737354 0.506915 0.499488 0.527182
C4    C     C_R   0.154290 0.766946 0.747221 -0.091472
C5    C     C_R   0.100535 0.889417 0.862845 -0.107426
C6    C     C_R   0.971105 0.892151 0.857497 -0.118031
C7    C     C_R   0.894593 0.771701 0.737445 -0.103541
C8    C     C_R   0.946933 0.643553 0.622675 0.026879
C9    C     C_R   0.078553 0.641405 0.627076 0.026486
C10   C     C_R   0.129879 0.516127 0.506261 0.011950
C11   C     C_R   0.053006 0.400211 0.379567 -0.137326
C12   C     C_R   0.924779 0.401920 0.376026 -0.147314
C13   C     C_R   0.871571 0.519724 0.498995 0.005466
C14   C     C_2   0.493998 0.031539 0.427106 -0.149744
C15   C     C_2   0.507281 0.968391 0.572677 -0.151843
C16   C     C_R   0.263105 0.505363 0.502432 0.542376
Cu1   Cu    Cu3+1 0.513920 0.517380 0.684380 0.995136
Cu2   Cu    Cu3+1 0.486080 0.482620 0.315620 1.010247
H1    H     H_    0.255135 0.773962 0.751662 0.148104
H2    H     H_    0.929796 0.989063 0.945105 0.115060
H3    H     H_    0.794705 0.782230 0.733501 0.131807
H4    H     H_    0.866699 0.308126 0.280392 0.127702
H5    H     H_    0.481089 0.959312 0.287066 0.134725
H6    H     H_    0.520616 0.040520 0.712658 0.151518
H7    H     H_    0.092670 0.305782 0.285246 0.137274
H8    H     H_    0.599757 0.621258 0.050802 0.210674
H9    H     H_    0.159579 0.983760 0.955310 0.139207
I1    I     I_    0.323188 0.289310 0.900747 -0.258155
N1    N     N_2   0.465100 0.456430 0.038520 -0.040685
N2    N     N_2   0.534900 0.543570 0.961480 -0.222725
O1    O     O_R   0.509050 0.286130 0.619770 -0.471633
O2    O     O_R   0.485540 0.256780 0.308360 -0.488491
O3    O     O_R   0.331410 0.514680 0.655740 -0.478525
O4    O     O_R   0.307900 0.485330 0.344330 -0.483599
O5    O     O_R   0.514460 0.743220 0.691640 -0.522622
O6    O     O_R   0.490950 0.713870 0.380230 -0.515448
O7    O     O_R   0.692100 0.514670 0.655670 -0.509610
O8    O     O_R   0.668590 0.485320 0.344260 -0.518261

loop_
_geom_bond_atom_site_label_1
_geom_bond_atom_site_label_2
_ccdc_geom_bond_type
C2    O5    A    
C14   H5    S    
C11   C12   A    
C6    C7    A    
C2    C15   S    
C16   O3    A    
C6    H2    S    
C9    C10   A    
C3    C13   S    
C5    H9    S    
Cu1   Cu2   S    
Cu2   O8    S    
C7    C8    A    
Cu2   N1    S    
C10   C16   S    
Cu1   N2    S    
Cu2   O4    S    
N1    N2    D    
Cu1   O3    S    
I1    N1    S    
H8    N2    S    
C5    C6    A    
Cu1   O1    S    
Cu2   O2    S    
C10   C11   A    
C11   H7    S    
C8    C13   A    
C12   H4    S    
C1    O1    A    
C12   C13   A    
C3    O7    A    
C8    C9    A    
C2    O6    A    
C14   C15   D    
C15   H6    S    
Cu1   O7    S    
C1    C14   S    
Cu1   O5    S    
C16   O4    A    
C4    C9    A    
C7    H3    S    
C4    H1    S    
Cu2   O6    S    
C1    O2    A    
C3    O8    A    
C4    C5    A    
