data_mof_unit_28415.cif
_audit_creation_date              2013-03-05T16:08:14-0500
_audit_creation_method            fapswitch 2.2
_symmetry_space_group_name_H-M    P1
_symmetry_Int_Tables_number       1
_space_group_crystal_system       triclinic
_cell_length_a                    6.953236
_cell_length_b                    14.364854
_cell_length_c                    16.248225
_cell_angle_alpha                 90.034102
_cell_angle_beta                  89.873819
_cell_angle_gamma                 90.174509
_cell_volume                      1622.89703941

loop_
_atom_site_label
_atom_site_type_symbol
_atom_site_description
_atom_site_fract_x
_atom_site_fract_y
_atom_site_fract_z
_atom_type_partial_charge
O1    O     O_R   0.505720 0.583900 0.413310 -0.609148
O2    O     O_R   0.175940 0.594920 0.586080 -0.602710
O3    O     O_R   0.005640 0.416100 0.586690 -0.603695
C1    C     C_R   0.344266 0.614912 0.616354 0.925884
O4    O     O_R   0.176000 0.594930 0.413930 -0.588789
O5    O     O_R   0.005700 0.416110 0.413310 -0.569855
C2    C     C_R   0.344867 0.616821 0.385086 0.965271
O6    O     O_R   0.505660 0.583890 0.586690 -0.605683
O7    O     O_3   0.339200 0.441330 0.500000 -0.222813
V1    V     V_3+5 0.064350 0.510880 0.500000 1.213654
O8    O     O_R   0.675980 0.405080 0.413920 -0.575423
C3    C     C_R   0.844371 0.385651 0.383174 1.095509
O9    O     O_R   0.675920 0.405070 0.586070 -0.564645
C4    C     C_R   0.844467 0.380029 0.612446 0.996465
V2    V     V_3+5 0.564340 0.489120 0.500000 1.243812
O10   O     O_3   0.839360 0.558670 0.500000 -0.305884
H1    H     H_    0.123531 0.072599 0.523887 0.190129
C5    C     C_R   0.708977 0.427260 0.774930 -0.162214
C6    C     C_R   0.642076 0.453102 0.852488 -0.076049
C7    C     C_R   0.650954 0.390780 0.917682 -0.098436
C8    C     C_R   0.728241 0.302401 0.905964 -0.167091
C9    C     C_R   0.796771 0.273948 0.827806 0.124736
C10   C     C_R   0.785175 0.337237 0.760488 0.105748
C11   C     C_R   0.883082 0.185574 0.817011 -0.282498
C12   C     C_R   0.958191 0.160466 0.739015 0.109035
C13   C     C_R   0.926618 0.218688 0.669117 -0.039786
C14   C     C_R   0.849960 0.310233 0.680855 -0.274595
C15   C     C_R   0.059834 0.075897 0.728751 -0.184838
C16   C     C_R   0.129576 0.049107 0.652520 -0.211196
C17   C     C_R   0.083424 0.100372 0.583439 -0.089820
C18   C     C_R   0.970878 0.181101 0.589832 0.331434
H2    H     H_    0.700365 0.479072 0.726865 0.120147
H3    H     H_    0.583656 0.522072 0.862055 0.126638
H4    H     H_    0.599651 0.411357 0.977946 0.137672
H5    H     H_    0.736153 0.257382 0.959194 0.107412
H6    H     H_    0.088026 0.028953 0.779067 0.145055
H7    H     H_    0.209719 0.984934 0.646299 0.147483
C19   C     C_R   0.729052 0.184631 0.238747 0.150654
C20   C     C_R   0.881513 0.185809 0.182548 -0.215502
C21   C     C_R   0.030517 0.250672 0.196678 -0.177505
H8    H     H_    0.152294 0.253931 0.155320 0.135737
C22   C     C_R   0.017726 0.316022 0.261412 -0.005627
H9    H     H_    0.130530 0.367440 0.268227 0.140933
C23   C     C_R   0.856297 0.317975 0.314177 -0.209665
C24   C     C_R   0.717651 0.248170 0.303182 0.211990
C25   C     C_3   0.504656 0.254499 0.295956 0.144609
C26   C     C_3   0.517351 0.186039 0.224298 -0.611268
H10   H     H_    0.455135 0.325434 0.279009 0.087666
H11   H     H_    0.481651 0.217956 0.163974 0.186532
H12   H     H_    0.449062 0.117137 0.235544 0.233187
C27   C     C_R   0.492215 0.752465 0.686713 0.104030
C28   C     C_R   0.351646 0.682218 0.685790 -0.386046
C29   C     C_R   0.211924 0.683156 0.750436 0.538708
C30   C     C_R   0.222184 0.751604 0.812782 -0.218059
H13   H     H_    0.116525 0.750133 0.861880 0.158658
C31   C     C_R   0.376115 0.815473 0.816700 -0.305376
C32   C     C_R   0.505448 0.816421 0.750739 0.157174
C33   C     C_3   0.719839 0.815358 0.749553 -0.444819
C34   C     C_3   0.705710 0.745743 0.679184 -0.388485
H14   H     H_    0.781716 0.785227 0.806615 0.209244
H15   H     H_    0.781700 0.883503 0.730526 0.183986
H16   H     H_    0.759279 0.675314 0.695127 0.233545
H17   H     H_    0.759105 0.773891 0.619634 0.179593
C35   C     C_R   0.497227 0.677362 0.254732 0.136840
C36   C     C_R   0.352254 0.682328 0.314588 -0.240572
C37   C     C_R   0.205432 0.748332 0.301750 -0.074034
H18   H     H_    0.086558 0.753286 0.344583 0.116091
C38   C     C_R   0.216523 0.812592 0.236178 -0.142465
H19   H     H_    0.105643 0.864907 0.230612 0.128535
C39   C     C_R   0.375302 0.813159 0.181816 -0.200222
C40   C     C_R   0.509552 0.741419 0.190799 0.111477
C41   C     C_3   0.724100 0.742645 0.192775 -0.581340
C42   C     C_3   0.711051 0.671388 0.262361 0.209905
H20   H     H_    0.781302 0.811142 0.213116 0.180592
H21   H     H_    0.787848 0.715257 0.134828 0.226571
H22   H     H_    0.766023 0.696092 0.322738 0.054613
O11   O     O_R   0.229140 0.916090 0.913340 -0.603946
O12   O     O_R   0.558860 0.905090 0.086080 -0.591199
O13   O     O_R   0.729100 0.083920 0.086690 -0.593390
C43   C     C_R   0.389659 0.883188 0.114967 0.952007
O14   O     O_R   0.558860 0.905090 0.913930 -0.594021
O15   O     O_R   0.729100 0.083920 0.913310 -0.588275
C44   C     C_R   0.389829 0.883006 0.885337 0.979151
O16   O     O_R   0.229140 0.916080 0.086720 -0.595156
O17   O     O_3   0.395570 0.058660 0.000020 -0.275214
V3    V     V_3+5 0.670450 0.989140 0.000000 1.157585
O18   O     O_R   0.058810 0.094980 0.913910 -0.596275
C45   C     C_R   0.890526 0.117897 0.886271 0.930647
O19   O     O_R   0.058810 0.094980 0.086060 -0.598714
C46   C     C_R   0.889987 0.118292 0.113725 0.948642
V4    V     V_3+5 0.170450 0.010950 0.999970 1.155307
O20   O     O_3   0.895460 0.941370 0.999990 -0.276444
N1    N     N_R   0.408785 0.215980 0.368605 0.281241
O21   O     O_R   0.440619 0.130838 0.392348 -0.359795
O22   O     O_R   0.308519 0.270645 0.415589 -0.327827
O23   O     O_3   0.072119 0.615441 0.759100 -0.783292
H23   H     H_    0.112073 0.558796 0.729057 0.311914
N2    N     N_R   0.787051 0.580374 0.238235 0.246797
O24   O     O_R   0.673199 0.509440 0.226493 -0.450360
O25   O     O_R   0.971945 0.569074 0.231425 -0.419317
N3    N     N_R   0.875396 0.211986 0.516767 0.203220
O26   O     O_R   0.951661 0.192853 0.445686 -0.404520
O27   O     O_R   0.691480 0.228000 0.519752 -0.379566

loop_
_geom_bond_atom_site_label_1
_geom_bond_atom_site_label_2
_geom_bond_distance
_ccdc_geom_bond_type
C37   C38   1.411935 A    
O18   C45   1.297714 A    
N1    O21   1.302400 A    
O18   V4    2.006842 S    
C6    C7    1.388927 A    
C43   O16   1.298217 A    
O17   V4    1.706861 S    
C26   H11   1.111230 S    
O17   V3    2.159167 S    
C23   C24   1.400512 A    
C12   C15   1.416877 A    
C13   C14   1.432942 A    
N3    O26   1.299401 A    
C1    C28   1.486247 S    
C18   N3    1.432785 S    
C15   C16   1.383975 A    
O5    C3    1.299503 A    
C17   C18   1.404644 A    
O12   C43   1.303426 A    
O11   C44   1.296919 A    
C33   H14   1.111499 S    
V2    O10   2.154836 S    
C31   C32   1.397580 A    
C5    C6    1.392900 A    
C35   C40   1.390467 A    
C19   C24   1.390840 A    
C30   H13   1.083486 S    
O8    V2    2.003771 S    
C38   H19   1.082238 S    
O13   C46   1.298742 A    
C35   C42   1.494930 S    
C39   C40   1.400478 A    
C27   C32   1.390514 A    
O16   V4    2.004680 S    
C10   C14   1.423177 A    
C4    C14   1.497972 S    
O19   V4    2.003797 S    
O7    V1    2.159184 S    
C20   C46   1.481011 S    
O14   V3    2.003145 S    
C1    O6    1.300251 A    
C7    H4    1.082667 S    
O12   V3    2.001875 S    
C33   H15   1.111770 S    
C21   C22   1.412232 A    
C37   H18   1.081844 S    
C13   C18   1.429766 A    
N1    O22   1.298369 A    
O9    C4    1.300569 A    
C29   O23   1.380138 S    
H1    C17   1.082701 S    
C22   C23   1.411246 A    
C41   H21   1.111997 S    
O14   C44   1.302998 A    
C26   H12   1.111525 S    
C25   H10   1.111573 S    
C42   N2    1.464553 S    
C30   C31   1.409120 A    
C39   C43   1.483871 S    
C5    C10   1.418211 A    
C11   C12   1.416536 A    
C41   H20   1.110582 S    
C6    H3    1.082927 S    
V4    O20   2.154851 S    
O4    C2    1.301041 A    
C33   C34   1.521687 S    
C24   C25   1.488967 S    
C27   C28   1.402798 A    
O2    C1    1.301776 A    
C16   C17   1.381732 A    
C2    C36   1.483559 S    
O23   H23   0.988877 S    
C11   C45   1.488644 S    
C19   C26   1.491317 S    
O3    C4    1.301613 A    
O1    V2    2.003011 S    
C38   C39   1.412369 A    
C21   H8    1.080757 S    
N2    O24   1.302641 A    
O6    V2    2.000594 S    
N2    O25   1.300772 A    
O9    V2    2.006967 S    
C42   H22   1.111230 S    
C9    C11   1.416478 A    
C5    H2    1.081022 S    
C22   H9    1.081571 S    
O2    V1    2.003172 S    
C20   C21   1.410391 A    
C28   C29   1.429303 A    
C31   C44   1.480725 S    
C25   C26   1.526183 S    
O11   V4    2.000803 S    
C34   H16   1.110142 S    
O1    C2    1.300234 A    
C41   C42   1.527980 S    
O5    V1    2.000127 S    
O8    C3    1.302928 A    
C29   C30   1.413068 A    
C8    H5    1.081831 S    
C34   H17   1.111542 S    
C35   C36   1.401113 A    
C12   C13   1.428599 A    
O4    V1    2.001923 S    
C3    C23   1.485797 S    
O3    V1    2.000183 S    
V3    O20   1.710329 S    
O15   V3    2.000101 S    
C32   C33   1.490918 S    
C19   C20   1.397685 A    
C25   N1    1.462524 S    
O15   C45   1.298402 A    
O7    V2    1.707446 S    
C40   C41   1.492267 S    
C27   C34   1.492663 S    
C7    C8    1.392932 A    
C15   H6    1.078753 S    
N3    O27   1.300823 A    
C36   C37   1.411302 A    
C16   H7    1.083186 S    
C9    C10   1.425297 A    
V1    O10   1.710319 S    
O19   C46   1.300788 A    
C8    C9    1.415881 A    
O13   V3    2.000224 S    
