data_mof_unit_34329.cif
_audit_creation_date              2012-10-26T20:20:15-0400
_audit_creation_method            fapswitch 2.2
_symmetry_space_group_name_H-M    P1
_symmetry_Int_Tables_number       1
_space_group_crystal_system       triclinic
_cell_length_a                    15.046423
_cell_length_b                    13.711284
_cell_length_c                    27.7885
_cell_angle_alpha                 90.186559
_cell_angle_beta                  89.506744
_cell_angle_gamma                 90.252952
_cell_volume                      5732.63014063

loop_
_atom_site_label
_atom_site_type_symbol
_atom_type_description
_atom_site_fract_x
_atom_site_fract_y
_atom_site_fract_z
_atom_type_partial_charge
C1    C     C_R   0.328617 0.499831 0.500023 0.531150
C2    C     C_R   0.412056 0.492067 0.872470 0.012407
C3    C     C_R   0.493737 0.496859 0.354317 -0.036720
C4    C     C_R   0.498633 0.500066 0.645252 -0.030157
C5    C     C_R   0.407118 0.492003 0.974196 0.032967
C6    C     C_R   0.571958 0.490715 0.024813 0.032989
C7    C     C_R   0.570157 0.509844 0.974630 -0.033371
C8    C     C_R   0.408662 0.476278 0.024810 -0.032959
C9    C     C_R   0.489411 0.501844 0.949170 0.013443
C10   C     C_R   0.489862 0.482999 0.050082 0.013249
C11   C     C_R   0.327226 0.502923 0.947138 -0.015352
C12   C     C_R   0.671406 0.500206 0.500036 0.531109
C13   C     C_R   0.651992 0.474954 0.051065 -0.015821
C14   C     C_R   0.330890 0.488562 0.897232 -0.098821
C15   C     C_R   0.649872 0.484897 0.101221 -0.099583
C16   C     C_R   0.498658 0.499522 0.407377 0.578762
C17   C     C_R   0.500037 0.500041 0.592445 0.589185
C18   C     C_R   0.333109 0.444450 0.050623 -0.142858
C19   C     C_R   0.645033 0.546062 0.949696 -0.141382
C20   C     C_R   0.814270 0.418343 0.484095 -0.142570
C21   C     C_R   0.185973 0.582130 0.516005 -0.140359
C22   C     C_R   0.768119 0.500648 0.500112 -0.033350
C23   C     C_R   0.489031 0.478814 0.101069 -0.082131
C24   C     C_R   0.231960 0.499691 0.499903 -0.026578
C25   C     C_R   0.814221 0.583270 0.516208 -0.123661
C26   C     C_R   0.185663 0.417641 0.483386 -0.137141
C27   C     C_R   0.907216 0.584636 0.516671 0.035781
C28   C     C_R   0.092866 0.417475 0.482539 0.025804
C29   C     C_R   0.953541 0.501462 0.499672 -0.001398
C30   C     C_R   0.046574 0.500701 0.499400 0.002337
C31   C     C_R   0.906680 0.418397 0.483336 -0.033098
C32   C     C_R   0.093461 0.582936 0.516255 -0.027400
C33   C     C_R   0.953885 0.667391 0.533708 0.274218
C34   C     C_R   0.490896 0.507021 0.898221 -0.081120
C35   C     C_R   0.045560 0.336126 0.464970 0.260557
C36   C     C_R   0.047791 0.664707 0.533522 -0.126671
C37   C     C_R   0.952646 0.336445 0.466462 -0.116798
C38   C     C_R   0.433794 0.792723 0.523100 0.045227
C39   C     C_R   0.565777 0.207529 0.476664 0.051328
C40   C     C_R   0.565713 0.792974 0.476544 0.049541
C41   C     C_R   0.434606 0.207248 0.523666 0.042909
C42   C     C_R   0.409113 0.473716 0.177343 0.460471
C43   C     C_R   0.570114 0.526528 0.822276 0.456967
C44   C     C_R   0.568535 0.896593 0.475706 -0.012455
C45   C     C_R   0.408232 0.467147 0.126672 0.027491
C46   C     C_R   0.431286 0.103781 0.524095 -0.012405
C47   C     C_R   0.429894 0.896216 0.522958 -0.014156
C48   C     C_R   0.569339 0.104123 0.476480 -0.012161
C49   C     C_R   0.499626 0.948425 0.499690 0.016078
C50   C     C_R   0.499803 0.051857 0.499847 0.017302
C51   C     C_R   0.638217 0.948700 0.451710 0.005180
C52   C     C_R   0.361427 0.052076 0.547926 0.003351
C53   C     C_R   0.358627 0.947955 0.545472 0.006024
C54   C     C_R   0.640371 0.052840 0.453676 0.005408
C55   C     C_R   0.567130 0.488523 0.176894 0.378852
C56   C     C_R   0.570881 0.527097 0.873062 0.025745
C57   C     C_R   0.415339 0.488026 0.822090 0.378425
C58   C     C_R   0.522915 0.570491 0.276300 -0.108496
C59   C     C_R   0.443910 0.568104 0.720470 -0.100157
C60   C     C_R   0.529863 0.573349 0.326410 0.195081
C61   C     C_R   0.442958 0.565468 0.670289 0.194039
C62   C     C_R   0.454465 0.415674 0.330879 0.201726
C63   C     C_R   0.551542 0.433853 0.671011 0.205166
C64   C     C_R   0.456352 0.409293 0.280452 0.316041
C65   C     C_R   0.546698 0.431928 0.721517 0.314765
C66   C     C_R   0.487687 0.488539 0.253047 0.139936
C67   C     C_R   0.329892 0.446885 0.100956 0.278020
C68   C     C_R   0.495106 0.501659 0.746311 0.144427
C69   C     C_3   0.328224 0.357295 0.365489 -0.076208
C70   C     C_3   0.689180 0.410689 0.639425 -0.069897
C71   C     C_3   0.950577 0.834844 0.552917 -0.135638
C72   C     C_3   0.089034 0.251104 0.398783 -0.139802
C73   C     C_3   0.708375 0.893204 0.422695 -0.269992
C74   C     C_3   0.783244 0.855752 0.454964 -0.293393
C75   C     C_3   0.849421 0.794065 0.426312 -0.443130
C76   C     C_3   0.291629 0.108159 0.577184 -0.274208
C77   C     C_3   0.218250 0.149328 0.545011 -0.284988
C78   C     C_R   0.648035 0.549644 0.899433 0.276058
C79   C     C_3   0.154048 0.212499 0.574173 -0.436133
C80   C     C_3   0.277606 0.892926 0.565036 -0.270190
C81   C     C_3   0.291141 0.861639 0.617468 -0.298025
C82   C     C_3   0.203978 0.827436 0.640433 -0.448377
C83   C     C_3   0.720204 0.109444 0.433551 -0.262474
C84   C     C_3   0.702675 0.146771 0.382418 -0.301268
C85   C     C_3   0.779274 0.210554 0.364370 -0.457022
C86   C     C_3   0.494266 0.260288 0.251940 -0.087744
C87   C     C_3   0.544322 0.281435 0.754616 -0.094498
C88   C     C_3   0.186042 0.489201 0.116789 -0.089217
C89   C     C_R   0.569141 0.486511 0.126451 0.012637
C90   C     C_3   0.790727 0.510007 0.880116 -0.084475
C91   C     C_3   0.305712 0.579457 0.638673 -0.120861
C92   C     C_3   0.665370 0.627646 0.348536 -0.118043
C93   C     C_3   0.240858 0.543755 0.968090 -0.271998
C94   C     C_3   0.208275 0.634270 0.940849 -0.296356
C95   C     C_3   0.127646 0.679633 0.965891 -0.451935
C96   C     C_3   0.737021 0.434243 0.028505 -0.271427
C97   C     C_3   0.767001 0.339063 0.052585 -0.296479
C98   C     C_3   0.846537 0.294714 0.026099 -0.451845
Cu1   Cu    Cu3+1 0.500000 0.597420 0.500000 0.969225
Cu2   Cu    Cu3+1 0.500000 0.402580 0.500000 0.961789
H1    H     H_    0.777076 0.645969 0.528847 0.174725
H2    H     H_    0.548705 0.630790 0.255224 0.165122
H3    H     H_    0.269497 0.484854 0.877236 0.156779
H4    H     H_    0.711772 0.483571 0.120803 0.157139
H5    H     H_    0.275553 0.416637 0.032019 0.123107
H6    H     H_    0.702329 0.572572 0.969052 0.125079
H7    H     H_    0.778176 0.354663 0.471558 0.113334
H8    H     H_    0.222285 0.645410 0.528853 0.111650
H9    H     H_    0.290712 0.360621 0.331188 0.151650
H10   H     H_    0.318422 0.425612 0.386610 0.102504
H11   H     H_    0.300103 0.296409 0.387044 0.137958
H12   H     H_    0.222234 0.354686 0.470550 0.156570
H13   H     H_    0.722052 0.428034 0.674173 0.158008
H14   H     H_    0.684611 0.477400 0.616860 0.105297
H15   H     H_    0.731942 0.357964 0.619762 0.141681
H16   H     H_    0.985227 0.849357 0.518108 0.102094
H17   H     H_    0.997494 0.837915 0.583552 0.123941
H18   H     H_    0.901624 0.894169 0.558444 0.142827
H19   H     H_    0.118851 0.318516 0.383096 0.108142
H20   H     H_    0.020457 0.239867 0.385103 0.117900
H21   H     H_    0.129809 0.188585 0.386311 0.144642
H22   H     H_    0.817713 0.724862 0.414626 0.142881
H23   H     H_    0.086325 0.725336 0.547190 0.087780
H24   H     H_    0.874213 0.834616 0.394333 0.147369
H25   H     H_    0.907017 0.775773 0.449109 0.167476
H26   H     H_    0.819165 0.918512 0.471176 0.159612
H27   H     H_    0.755633 0.811129 0.484870 0.182103
H28   H     H_    0.676822 0.832793 0.402551 0.147005
H29   H     H_    0.737223 0.938008 0.393371 0.142793
H30   H     H_    0.124735 0.170037 0.604407 0.145081
H31   H     H_    0.189244 0.277498 0.588681 0.149993
H32   H     H_    0.099303 0.237525 0.550852 0.184346
H33   H     H_    0.247239 0.193903 0.515485 0.180629
H34   H     H_    0.916569 0.272380 0.454397 0.112097
H35   H     H_    0.180455 0.088550 0.528226 0.171533
H36   H     H_    0.260570 0.062738 0.605591 0.147064
H37   H     H_    0.323835 0.167027 0.598394 0.131562
H38   H     H_    0.156473 0.889062 0.643013 0.145105
H39   H     H_    0.173652 0.768081 0.618792 0.140592
H40   H     H_    0.216743 0.799733 0.677223 0.163377
H41   H     H_    0.340306 0.801823 0.618854 0.212420
H42   H     H_    0.317929 0.923120 0.639147 0.165061
H43   H     H_    0.216722 0.937561 0.562005 0.142662
H44   H     H_    0.261434 0.828767 0.542269 0.115796
H45   H     H_    0.385041 0.749331 0.542002 0.142044
H46   H     H_    0.786485 0.276112 0.387608 0.145148
H47   H     H_    0.842441 0.168908 0.364341 0.148939
H48   H     H_    0.765656 0.234778 0.327074 0.150909
H49   H     H_    0.694352 0.084114 0.357417 0.161348
H50   H     H_    0.640461 0.189962 0.381482 0.171529
H51   H     H_    0.737826 0.170597 0.457991 0.121266
H52   H     H_    0.781659 0.065358 0.433519 0.142477
H53   H     H_    0.521874 0.237704 0.287226 0.133227
H54   H     H_    0.547836 0.291083 0.228576 0.124664
H55   H     H_    0.468396 0.193843 0.233898 0.143644
H56   H     H_    0.614583 0.251289 0.458034 0.130268
H57   H     H_    0.524409 0.246756 0.720038 0.141347
H58   H     H_    0.484517 0.298357 0.776922 0.128652
H59   H     H_    0.584363 0.227636 0.774677 0.139284
H60   H     H_    0.160535 0.484285 0.079442 0.083439
H61   H     H_    0.209877 0.564615 0.124639 0.119956
H62   H     H_    0.129418 0.473990 0.141504 0.154677
H63   H     H_    0.766709 0.437979 0.866697 0.132434
H64   H     H_    0.814969 0.503458 0.917644 0.079963
H65   H     H_    0.848217 0.531846 0.857273 0.155506
H66   H     H_    0.270225 0.568011 0.673509 0.135377
H67   H     H_    0.616133 0.749465 0.459218 0.143050
H68   H     H_    0.314193 0.508737 0.619362 0.112278
H69   H     H_    0.263387 0.625734 0.615836 0.127937
H70   H     H_    0.691655 0.606772 0.312344 0.134251
H71   H     H_    0.678477 0.568822 0.375009 0.115512
H72   H     H_    0.702829 0.693147 0.359807 0.122388
H73   H     H_    0.072313 0.625869 0.968073 0.150410
H74   H     H_    0.145125 0.704155 0.002771 0.149944
H75   H     H_    0.104974 0.743799 0.945118 0.152341
H76   H     H_    0.262500 0.689537 0.938950 0.175595
H77   H     H_    0.188803 0.614635 0.903604 0.163461
H78   H     H_    0.384935 0.250927 0.541502 0.130985
H79   H     H_    0.188647 0.486172 0.967300 0.134313
H80   H     H_    0.250106 0.568874 0.005610 0.149031
H81   H     H_    0.828665 0.276092 0.988457 0.150940
H82   H     H_    0.903294 0.346816 0.025822 0.150804
H83   H     H_    0.867326 0.226998 0.044612 0.151089
H84   H     H_    0.786679 0.352735 0.090429 0.163038
H85   H     H_    0.711324 0.285451 0.052539 0.174824
H86   H     H_    0.727166 0.414938 0.990222 0.149585
H87   H     H_    0.790794 0.489817 0.031111 0.134096
H88   H     H_    0.403207 0.620881 0.739473 0.162702
N1    N     N_R   0.487810 0.484128 0.201276 -0.389208
N2    N     N_R   0.493684 0.504509 0.798061 -0.388919
N3    N     N_R   0.500000 0.743810 0.500000 -0.245733
N4    N     N_R   0.500000 0.256190 0.500000 -0.238327
O1    O     O_R   0.370260 0.582280 0.500010 -0.511961
O2    O     O_2   0.644741 0.547784 0.797108 -0.417597
O3    O     O_2   0.340770 0.467709 0.797251 -0.531331
O4    O     O_2   0.644025 0.493573 0.201478 -0.536307
O5    O     O_3   0.419116 0.338776 0.356963 -0.536031
O6    O     O_3   0.605005 0.367512 0.647007 -0.539959
O7    O     O_3   0.904368 0.745037 0.552508 -0.581429
O8    O     O_3   0.090084 0.253582 0.449493 -0.594693
O9    O     O_3   0.423747 0.326693 0.257959 -0.506603
O10   O     O_3   0.596769 0.365355 0.746677 -0.522533
O11   O     O_3   0.252728 0.419193 0.124907 -0.509981
O12   O     O_R   0.629740 0.417720 0.499990 -0.512686
O13   O     O_3   0.724597 0.582239 0.876529 -0.514452
O14   O     O_3   0.387582 0.627700 0.645779 -0.568521
O15   O     O_3   0.574046 0.650559 0.347613 -0.545762
O16   O     O_R   0.629740 0.582280 0.499990 -0.525385
O17   O     O_R   0.370260 0.417720 0.500010 -0.525626
O18   O     O_R   0.500020 0.582260 0.430260 -0.457260
O19   O     O_R   0.499980 0.417740 0.569740 -0.472700
O20   O     O_R   0.499980 0.582260 0.569740 -0.465292
O21   O     O_R   0.500020 0.417740 0.430260 -0.467798
O22   O     O_2   0.332125 0.471613 0.202567 -0.421478

loop_
_geom_bond_atom_site_label_1
_geom_bond_atom_site_label_2
_ccdc_geom_bond_type
C44   C49   A    
Cu1   N3    S    
C64   O9    S    
C63   C65   A    
C34   C56   A    
C93   C94   S    
C23   C45   A    
C12   C22   S    
C72   H21   S    
C27   C29   A    
C75   H22   S    
Cu2   O12   S    
C73   C74   S    
C91   H66   S    
C1    O1    A    
C85   H48   S    
C17   O20   A    
C97   C98   S    
C93   H79   S    
C2    C57   A    
C47   C49   A    
C76   H37   S    
C70   H14   S    
C97   H85   S    
C4    C63   A    
C82   H39   S    
C57   O3    S    
C43   O2    S    
C55   N1    A    
C35   C37   A    
C86   H53   S    
C24   C26   A    
C5    C11   A    
C63   O6    S    
C11   C14   A    
C15   C89   A    
C33   O7    S    
C92   H71   S    
C58   C60   A    
C88   H61   S    
C66   N1    S    
C46   C52   A    
Cu2   O17   S    
C33   C36   A    
C56   C78   A    
C98   H83   S    
C95   H75   S    
C40   H67   S    
C62   C64   A    
C51   C73   S    
C69   H9    S    
C58   C66   A    
C65   O10   S    
C74   H27   S    
C28   C35   A    
C92   H70   S    
C80   H44   S    
C22   C25   A    
C45   C67   A    
C82   H40   S    
C41   C46   A    
C23   C89   A    
C58   H2    S    
C15   H4    S    
C87   O10   S    
C41   N4    A    
C61   O14   S    
C47   C53   A    
C20   H7    S    
C84   H49   S    
C11   C93   S    
C81   H41   S    
C55   O4    S    
C70   O6    S    
C69   O5    S    
C96   H87   S    
C72   H20   S    
Cu2   N4    S    
C77   H33   S    
C54   C83   S    
C93   H80   S    
C35   O8    S    
C81   C82   S    
C83   H51   S    
Cu1   O20   S    
C77   C79   S    
C70   H13   S    
C76   H36   S    
C21   C32   A    
C73   H29   S    
Cu2   O21   S    
C59   C61   A    
C74   C75   S    
C71   H17   S    
C13   C96   S    
C1    O17   A    
C75   H24   S    
C96   H86   S    
C91   H68   S    
C36   H23   S    
C84   C85   S    
C43   N2    A    
C91   H69   S    
C17   O19   A    
C18   C67   A    
C79   H30   S    
C4    C61   A    
C27   C33   A    
C87   H57   S    
C90   H64   S    
C75   H25   S    
C42   C45   A    
C64   C66   A    
C98   H82   S    
C19   C78   A    
C48   C54   A    
C86   H55   S    
C38   H45   S    
C5    C9    A    
C29   C30   A    
C42   O22   S    
C80   H43   S    
C59   C68   A    
C72   O8    S    
C90   O13   S    
C69   H10   S    
C41   H78   S    
C83   C84   S    
C68   N2    S    
C65   C68   A    
C79   H31   S    
C96   C97   S    
C53   C80   S    
C59   H88   S    
C85   H46   S    
C26   H12   S    
C48   C50   A    
C86   O9    S    
C38   C47   A    
C4    C17   S    
C44   C51   A    
C8    C10   A    
C81   H42   S    
C20   C22   A    
C49   C50   A    
C94   C95   S    
C7    C19   A    
C13   C15   A    
C90   H65   S    
C9    C34   A    
C70   H15   S    
Cu1   O1    S    
C12   O16   A    
C91   O14   S    
C39   N4    A    
C52   C53   A    
C97   H84   S    
C83   H52   S    
C3    C62   A    
C7    C9    A    
C46   C50   A    
C71   H18   S    
C2    C34   A    
C95   H74   S    
C85   H47   S    
C62   O5    S    
C80   C81   S    
C52   C76   S    
C6    C10   A    
C5    C8    A    
C88   H60   S    
C32   C36   A    
C60   O15   S    
C71   O7    S    
C6    C7    A    
C20   C31   A    
C10   C23   A    
C25   C27   A    
C73   H28   S    
C90   H63   S    
Cu2   O19   S    
C26   C28   A    
C87   H58   S    
Cu1   O16   S    
C51   C54   A    
C98   H81   S    
C28   C30   A    
C95   H73   S    
C78   O13   S    
C57   N2    A    
C55   C89   A    
C92   O15   S    
Cu1   Cu2   S    
C82   H38   S    
C6    C13   A    
C30   C32   A    
C76   C77   S    
C69   H11   S    
C42   N1    A    
C25   H1    S    
C14   H3    S    
C74   H26   S    
C40   N3    A    
C92   H72   S    
C88   H62   S    
C79   H32   S    
C72   H19   S    
C16   O18   A    
C87   H59   S    
C71   H16   S    
C12   O12   A    
C88   O11   S    
C86   H54   S    
C16   O21   A    
C2    C14   A    
C8    C18   A    
C18   H5    S    
C21   H8    S    
C67   O11   S    
C39   H56   S    
C19   H6    S    
C31   C37   A    
C43   C56   A    
C40   C44   A    
C1    C24   S    
C29   C31   A    
C38   N3    A    
C21   C24   A    
C37   H34   S    
C77   H35   S    
C3    C60   A    
C94   H77   S    
C3    C16   S    
C94   H76   S    
C39   C48   A    
Cu1   O18   S    
C84   H50   S    
