data_mof_unit_19451.cif
_audit_creation_date              2012-12-10T20:53:06-0500
_audit_creation_method            fapswitch 2.2
_symmetry_space_group_name_H-M    P1
_symmetry_Int_Tables_number       1
_space_group_crystal_system       triclinic
_cell_length_a                    18.289857
_cell_length_b                    18.278843
_cell_length_c                    18.356885
_cell_angle_alpha                 59.832653
_cell_angle_beta                  60.064472
_cell_angle_gamma                 60.066426
_cell_volume                      4338.28990153

loop_
_atom_site_label
_atom_site_type_symbol
_atom_type_description
_atom_site_fract_x
_atom_site_fract_y
_atom_site_fract_z
_atom_type_partial_charge
C1    C     C_R   0.389889 0.110214 0.109962 0.482539
C2    C     C_R   0.324629 0.818220 0.017735 -0.130516
C3    C     C_R   0.031246 0.560285 0.913934 -0.033282
C4    C     C_R   0.443233 0.087833 0.966654 -0.042966
C5    C     C_R   0.558888 0.912875 0.032493 -0.049615
C6    C     C_R   0.946367 0.945606 0.554827 0.016675
C7    C     C_R   0.054168 0.054055 0.445837 0.018076
C8    C     C_R   0.945809 0.553570 0.946108 0.021362
C9    C     C_R   0.053770 0.446328 0.054189 0.015760
C10   C     C_R   0.554747 0.946082 0.945896 0.011335
C11   C     C_R   0.445992 0.054003 0.053905 0.013849
C12   C     C_3   0.887257 0.549987 0.306470 0.012096
C13   C     C_R   0.171378 0.013913 0.643923 -0.112046
C14   C     C_3   0.803382 0.526813 0.378153 -0.271680
C15   C     C_3   0.785906 0.463599 0.362226 -0.475114
C16   C     C_3   0.131443 0.346732 0.683587 -0.004451
C17   C     C_3   0.172710 0.276242 0.757048 -0.264747
C18   C     C_3   0.262176 0.210277 0.720558 -0.478247
C19   C     C_3   0.455287 0.391893 0.827103 0.012106
C20   C     C_3   0.529029 0.400941 0.735434 -0.276726
C21   C     C_3   0.506781 0.391193 0.671619 -0.481828
C22   C     C_3   0.531108 0.568417 0.175553 -0.020980
C23   C     C_3   0.568643 0.590007 0.217928 -0.248967
C24   C     C_R   0.815284 0.024980 0.327216 -0.128808
C25   C     C_3   0.561267 0.527374 0.314020 -0.488929
C26   C     C_3   0.410355 0.773792 0.518312 0.002834
C27   C     C_3   0.507564 0.712524 0.494409 -0.247587
C28   C     C_3   0.513614 0.620501 0.507752 -0.498393
C29   C     C_3   0.544473 0.177341 0.524546 -0.005842
C30   C     C_3   0.563970 0.250844 0.522505 -0.268663
C31   C     C_3   0.487991 0.340076 0.509158 -0.501529
C32   C     C_R   0.124291 0.610447 0.256936 -0.109631
C33   C     C_R   0.861690 0.381720 0.724378 -0.137431
C34   C     C_R   0.630965 0.256198 0.017857 -0.134445
C35   C     C_R   0.357836 0.736794 0.004684 -0.141381
C36   C     C_R   0.253387 0.023185 0.616614 -0.111769
C37   C     C_R   0.736184 0.007474 0.360354 -0.128327
C38   C     C_R   0.043277 0.592735 0.309719 0.073822
C39   C     C_R   0.610225 0.889636 0.890151 0.485379
C40   C     C_R   0.936424 0.407478 0.689989 0.058143
C41   C     C_R   0.568037 0.329461 0.978119 0.074153
C42   C     C_R   0.434031 0.668879 0.026410 0.059872
C43   C     C_R   0.331605 0.973140 0.565894 0.071246
C44   C     C_R   0.666218 0.029711 0.435042 0.054533
C45   C     C_R   0.980379 0.621112 0.269980 0.298732
C46   C     C_R   0.979160 0.385730 0.747999 0.328502
C47   C     C_R   0.538426 0.321265 0.925537 0.302252
C48   C     C_R   0.475740 0.682718 0.063492 0.304899
C49   C     C_R   0.328609 0.909722 0.545927 0.287220
C50   C     C_R   0.110189 0.110225 0.389748 0.482749
C51   C     C_R   0.675457 0.072191 0.475019 0.300809
C52   C     C_R   0.999585 0.667344 0.177486 -0.090054
C53   C     C_R   0.942413 0.344394 0.840068 -0.068757
C54   C     C_R   0.572810 0.236325 0.915964 -0.105789
C55   C     C_R   0.442280 0.765201 0.075364 -0.071032
C56   C     C_R   0.244358 0.902824 0.572427 -0.108502
C57   C     C_R   0.755320 0.088985 0.441315 -0.076875
C58   C     C_R   0.081004 0.683476 0.125267 -0.136275
C59   C     C_R   0.867550 0.319688 0.873657 -0.148693
C60   C     C_R   0.634347 0.163682 0.957172 -0.121872
C61   C     C_R   0.889906 0.889755 0.610315 0.483078
C62   C     C_R   0.367015 0.832538 0.052693 -0.127197
C63   C     C_R   0.166760 0.954512 0.621119 -0.117359
C64   C     C_R   0.824901 0.065532 0.367761 -0.128744
C65   C     C_R   0.972801 0.593320 0.462970 -0.126981
C66   C     C_R   0.022050 0.406758 0.536891 -0.170158
C67   C     C_R   0.585464 0.470116 0.942289 -0.152365
C68   C     C_R   0.415757 0.528851 0.060844 -0.168819
C69   C     C_R   0.471241 0.938678 0.584573 -0.142241
C70   C     C_R   0.528398 0.060711 0.415878 -0.170346
C71   C     C_R   0.945052 0.551753 0.555711 0.030840
C72   C     C_R   0.110154 0.390018 0.110039 0.476405
C73   C     C_R   0.051582 0.448225 0.444306 0.013793
C74   C     C_R   0.553888 0.553856 0.950126 0.047865
C75   C     C_R   0.446957 0.445542 0.052218 0.043590
C76   C     C_R   0.553977 0.948713 0.553658 0.045563
C77   C     C_R   0.445547 0.051152 0.446911 0.034942
C78   C     C_R   0.968882 0.457010 0.593229 -0.008968
C79   C     C_R   0.024504 0.543046 0.406731 -0.001092
C80   C     C_R   0.468723 0.583331 0.011048 -0.005792
C81   C     C_R   0.532811 0.415524 0.992500 0.010437
C82   C     C_R   0.582658 0.011040 0.468829 -0.010867
C83   C     C_R   0.889505 0.609983 0.890248 0.486494
C84   C     C_R   0.416582 0.989206 0.531985 0.009328
C85   C     C_R   0.109111 0.390710 0.389578 0.490650
C86   C     C_R   0.889781 0.609275 0.610430 0.513629
C87   C     C_R   0.390192 0.389973 0.108795 0.520152
C88   C     C_R   0.609949 0.609979 0.891598 0.538330
C89   C     C_R   0.389899 0.108470 0.390218 0.512227
C90   C     C_R   0.610012 0.891269 0.609895 0.535241
C91   C     C_R   0.180893 0.926553 0.400997 -0.045196
C92   C     C_R   0.821869 0.071224 0.605043 -0.045645
C93   C     C_R   0.935794 0.379475 0.172031 -0.048348
C94   C     C_R   0.143002 0.655470 0.164991 -0.114862
C95   C     C_R   0.064797 0.618094 0.826970 -0.025203
C96   C     C_R   0.387895 0.175838 0.931658 -0.054827
C97   C     C_R   0.616265 0.825784 0.066614 -0.050579
C98   C     C_R   0.216772 0.837084 0.406279 0.238623
C99   C     C_R   0.786737 0.160075 0.601320 0.246281
C100  C     C_R   0.852546 0.371350 0.202326 0.240693
C101  C     C_R   0.148434 0.625571 0.795971 0.255358
C102  C     C_R   0.387446 0.209942 0.844656 0.225599
C103  C     C_R   0.620231 0.793543 0.151898 0.237034
C104  C     C_R   0.162326 0.783075 0.461140 -0.103583
C105  C     C_R   0.827936 0.337371 0.815735 -0.136323
C106  C     C_R   0.840204 0.214963 0.544118 -0.112875
C107  C     C_R   0.798790 0.425577 0.148021 -0.123177
C108  C     C_R   0.201298 0.573279 0.851125 -0.117538
C109  C     C_R   0.443727 0.156493 0.790408 -0.119329
C110  C     C_R   0.564350 0.847233 0.205903 -0.101530
C111  C     C_R   0.073370 0.818451 0.509699 -0.107380
C112  C     C_R   0.927869 0.180684 0.492485 -0.114215
C113  C     C_R   0.828314 0.486600 0.064646 -0.123124
C114  C     C_R   0.171207 0.513522 0.935389 -0.118190
C115  C     C_R   0.498503 0.069826 0.823360 -0.106706
C116  C     C_R   0.663616 0.173642 0.007656 -0.124173
C117  C     C_R   0.506229 0.932133 0.174556 -0.108187
C118  C     C_R   0.036007 0.909257 0.504531 -0.000454
C119  C     C_R   0.964934 0.090083 0.496992 0.000124
C120  C     C_R   0.914175 0.493115 0.031509 0.002270
C121  C     C_R   0.085434 0.506725 0.968661 0.004039
C122  C     C_R   0.498584 0.033734 0.912030 -0.002850
C123  C     C_R   0.503636 0.967056 0.087042 -0.004824
C124  C     C_R   0.090464 0.963934 0.449622 -0.045111
C125  C     C_R   0.910915 0.035008 0.552990 -0.049934
C126  C     C_R   0.968651 0.438900 0.085968 -0.038625
H1    H     H_    0.814080 0.284433 0.539376 0.089985
H2    H     H_    0.350944 0.550323 0.108747 0.118520
H3    H     H_    0.449877 0.889883 0.649179 0.129097
H4    H     H_    0.549620 0.109585 0.351261 0.124031
H5    H     H_    0.225352 0.965799 0.359152 0.149786
H6    H     H_    0.777747 0.031679 0.648391 0.158609
H7    H     H_    0.973681 0.338732 0.217480 0.145581
H8    H     H_    0.027154 0.657940 0.781312 0.151538
H9    H     H_    0.345333 0.220174 0.970532 0.149140
H10   H     H_    0.658425 0.781087 0.028130 0.159964
H11   H     H_    0.034743 0.773410 0.551999 0.130848
H12   H     H_    0.188797 0.713302 0.466775 0.100426
H13   H     H_    0.965896 0.226247 0.448889 0.122289
H14   H     H_    0.782588 0.528478 0.027039 0.154750
H15   H     H_    0.216519 0.472708 0.973424 0.147497
H16   H     H_    0.541537 0.032241 0.777873 0.156564
H17   H     H_    0.463458 0.969639 0.220098 0.147558
H18   H     H_    0.095529 0.718872 0.054098 0.118687
H19   H     H_    0.840177 0.286845 0.944644 0.113502
H20   H     H_    0.659724 0.099380 0.949550 0.136629
H21   H     H_    0.341735 0.895959 0.061994 0.134295
H22   H     H_    0.102828 0.948626 0.640980 0.140191
H23   H     H_    0.266253 0.578290 0.828573 0.093699
H24   H     H_    0.886235 0.078964 0.342128 0.147630
H25   H     H_    0.205368 0.669161 0.124546 0.109420
H26   H     H_    0.770376 0.317624 0.841724 0.123211
H27   H     H_    0.711610 0.117202 0.039098 0.119315
H28   H     H_    0.266250 0.870461 0.000251 0.119813
H29   H     H_    0.111109 0.053790 0.681752 0.115400
H30   H     H_    0.869187 0.007074 0.270033 0.122261
H31   H     H_    0.172998 0.588786 0.286975 0.099451
H32   H     H_    0.829183 0.396722 0.680414 0.107271
H33   H     H_    0.653915 0.262990 0.057630 0.106107
H34   H     H_    0.733506 0.421254 0.170502 0.096114
H35   H     H_    0.324834 0.726976 0.976616 0.110758
H36   H     H_    0.255776 0.071075 0.632941 0.101367
H37   H     H_    0.729667 0.975854 0.328347 0.121728
H38   H     H_    0.950978 0.691967 0.146261 0.118896
H39   H     H_    0.972285 0.331026 0.885547 0.122195
H40   H     H_    0.554191 0.224146 0.876778 0.111840
H41   H     H_    0.474747 0.777339 0.101826 0.117515
H42   H     H_    0.237898 0.858223 0.555284 0.120601
H43   H     H_    0.763031 0.121168 0.471628 0.134787
H44   H     H_    0.320534 0.740273 0.368886 0.313101
H45   H     H_    0.565628 0.823482 0.272466 0.107091
H46   H     H_    0.685452 0.254850 0.643775 0.312110
H47   H     H_    0.764916 0.313610 0.297553 0.312789
H48   H     H_    0.236978 0.681465 0.699395 0.308683
H49   H     H_    0.341214 0.310910 0.751215 0.315134
H50   H     H_    0.672906 0.695918 0.242415 0.316405
H51   H     H_    0.945897 0.486791 0.309001 0.135280
H52   H     H_    0.879129 0.580773 0.239885 0.148584
H53   H     H_    0.811560 0.494435 0.444816 0.166658
H54   H     H_    0.744636 0.589392 0.378062 0.171094
H55   H     H_    0.774248 0.496148 0.297312 0.181788
H56   H     H_    0.445444 0.181991 0.722349 0.099652
H57   H     H_    0.725528 0.447045 0.416246 0.140677
H58   H     H_    0.843742 0.400404 0.362273 0.174091
H59   H     H_    0.179498 0.382214 0.628940 0.156141
H60   H     H_    0.122096 0.313065 0.653776 0.113662
H61   H     H_    0.182840 0.310067 0.785793 0.209312
H62   H     H_    0.126769 0.238165 0.811166 0.150772
H63   H     H_    0.253365 0.175651 0.691636 0.141515
H64   H     H_    0.289500 0.159055 0.775549 0.167450
H65   H     H_    0.310675 0.245998 0.668258 0.127090
H66   H     H_    0.393900 0.449149 0.817308 0.158931
H67   H     H_    0.952968 0.665835 0.433419 0.148965
H68   H     H_    0.436072 0.331928 0.855323 0.155421
H69   H     H_    0.536270 0.467851 0.706714 0.163645
H70   H     H_    0.594190 0.349360 0.741903 0.158463
H71   H     H_    0.505255 0.322521 0.696323 0.185572
H72   H     H_    0.558787 0.402810 0.604662 0.133461
H73   H     H_    0.440871 0.440848 0.665131 0.158314
H74   H     H_    0.563765 0.496077 0.183113 0.147301
H75   H     H_    0.458098 0.579099 0.212724 0.111915
H76   H     H_    0.640048 0.583581 0.178231 0.213655
H77   H     H_    0.531265 0.660096 0.217650 0.179928
H78   H     H_    0.039729 0.334349 0.566165 0.131361
H79   H     H_    0.490097 0.534203 0.355469 0.140608
H80   H     H_    0.589191 0.545076 0.342284 0.156773
H81   H     H_    0.599559 0.456638 0.316423 0.141318
H82   H     H_    0.377398 0.777450 0.478917 0.179181
H83   H     H_    0.376836 0.743481 0.591121 0.114364
H84   H     H_    0.544838 0.743251 0.423757 0.171054
H85   H     H_    0.539486 0.704359 0.537278 0.169012
H86   H     H_    0.475942 0.588948 0.577966 0.148998
H87   H     H_    0.584633 0.576541 0.492582 0.138108
H88   H     H_    0.485591 0.626885 0.462500 0.155380
H89   H     H_    0.650404 0.448265 0.894757 0.130105
H90   H     H_    0.478224 0.173949 0.575599 0.148337
H91   H     H_    0.538781 0.195388 0.459270 0.114148
H92   H     H_    0.572951 0.230791 0.586318 0.210981
H93   H     H_    0.626727 0.259760 0.467058 0.158879
H94   H     H_    0.477229 0.361185 0.446003 0.143983
H95   H     H_    0.505221 0.392372 0.505450 0.151370
H96   H     H_    0.425234 0.334147 0.566037 0.136598
O1    O     O_3   0.250000 0.250000 0.250000 -0.438702
O2    O     O_R   0.865800 0.694910 0.573470 -0.557419
O3    O     O_R   0.305090 0.426530 0.134200 -0.545558
O4    O     O_R   0.694910 0.573470 0.865800 -0.548459
O5    O     O_R   0.426530 0.134200 0.305090 -0.547478
O6    O     O_R   0.573470 0.865800 0.694910 -0.550677
O7    O     O_R   0.134190 0.426530 0.134200 -0.554444
O8    O     O_R   0.865810 0.573470 0.865800 -0.536179
O9    O     O_R   0.426530 0.134200 0.134190 -0.540508
O10   O     O_R   0.573470 0.865800 0.865810 -0.538552
O11   O     O_R   0.134200 0.134190 0.426530 -0.541985
O12   O     O_3   0.750000 0.750000 0.750000 -0.447087
O13   O     O_R   0.865800 0.865810 0.573470 -0.539559
O14   O     O_R   0.426530 0.305080 0.134210 -0.540267
O15   O     O_R   0.573470 0.694920 0.865790 -0.534079
O16   O     O_R   0.305080 0.134210 0.426530 -0.541815
O17   O     O_R   0.694920 0.865790 0.573470 -0.530641
O18   O     O_R   0.134210 0.426530 0.305080 -0.547149
O19   O     O_R   0.865790 0.573470 0.694920 -0.522512
O20   O     O_3   0.305259 0.804494 0.357476 -0.725343
O21   O     O_3   0.699858 0.191225 0.653969 -0.727981
O22   O     O_3   0.825324 0.310697 0.285712 -0.727419
O23   O     O_R   0.305080 0.134200 0.134200 -0.541747
O24   O     O_3   0.176640 0.684114 0.711356 -0.718295
O25   O     O_3   0.332267 0.296159 0.814361 -0.730926
O26   O     O_3   0.679072 0.709260 0.180525 -0.731173
O27   O     O_3   0.897317 0.611008 0.323627 -0.577847
O28   O     O_3   0.051940 0.411566 0.716460 -0.565852
O29   O     O_3   0.476726 0.398372 0.887248 -0.592051
O30   O     O_3   0.552341 0.617750 0.082880 -0.591806
O31   O     O_3   0.408356 0.860672 0.496515 -0.577893
O32   O     O_3   0.608919 0.092759 0.550109 -0.585601
O33   O     O_R   0.694920 0.865800 0.865800 -0.542827
O34   O     O_R   0.134200 0.134200 0.305080 -0.542113
O35   O     O_R   0.865800 0.865800 0.694920 -0.544549
O36   O     O_R   0.134200 0.305080 0.134200 -0.540266
O37   O     O_R   0.865800 0.694920 0.865800 -0.546214
O38   O     O_R   0.134200 0.305090 0.426530 -0.555853
Zn1   Zn    Zn3+2 0.206620 0.206630 0.380140 0.919591
Zn2   Zn    Zn3+2 0.793380 0.793370 0.619860 0.944667
Zn3   Zn    Zn3+2 0.206630 0.380140 0.206620 0.919339
Zn4   Zn    Zn3+2 0.793370 0.619860 0.793380 0.955527
Zn5   Zn    Zn3+2 0.380140 0.206620 0.206630 0.937109
Zn6   Zn    Zn3+2 0.619860 0.793380 0.793370 0.951917
Zn7   Zn    Zn3+2 0.206620 0.206620 0.206620 0.935733
Zn8   Zn    Zn3+2 0.793380 0.793380 0.793380 0.944808

loop_
_geom_bond_atom_site_label_1
_geom_bond_atom_site_label_2
_ccdc_geom_bond_type
C2    C35   A    
C68   C80   A    
C48   C55   A    
C12   H52   S    
C18   H63   S    
C72   O36   A    
C65   C79   A    
C96   C102  A    
C8    C83   S    
C32   C94   A    
C19   C20   S    
C1    C11   S    
C9    C72   S    
C55   H41   S    
C21   H72   S    
C92   C125  A    
O1    Zn3   S    
C107  H34   S    
C53   C59   A    
O4    Zn4   S    
H50   O26   S    
C106  C112  A    
C68   C75   A    
C40   C46   A    
O35   Zn8   S    
C77   C89   S    
C26   C27   S    
C59   C105  A    
C60   H20   S    
C90   O17   A    
C103  C110  A    
C6    C61   S    
C90   O6    A    
C92   H6    S    
C54   H40   S    
C31   H94   S    
C109  C115  A    
C44   C82   S    
C16   H59   S    
C109  H56   S    
C42   C80   S    
C120  C126  A    
O12   Zn6   S    
C91   H5    S    
C38   C79   S    
O36   Zn7   S    
C17   H62   S    
C34   C116  A    
C71   C86   S    
C55   C62   A    
C70   H4    S    
C69   C76   A    
C108  C114  A    
C105  H26   S    
C35   C42   A    
C93   C126  A    
C13   H29   S    
C38   C45   A    
O37   Zn8   S    
C45   O27   S    
C31   H95   S    
C114  C121  A    
C67   H89   S    
C99   O21   S    
C88   O4    A    
C91   C98   A    
H46   O21   S    
O10   Zn6   S    
C16   C17   S    
C87   O3    A    
O19   Zn4   S    
C15   H57   S    
C9    C121  A    
C52   C58   A    
O17   Zn2   S    
C83   O37   A    
C51   C57   A    
C61   O35   A    
O16   Zn1   S    
C7    C124  A    
C20   H69   S    
O1    Zn7   S    
C14   H53   S    
C100  O22   S    
C46   O28   S    
C19   H66   S    
C37   H37   S    
C66   H78   S    
C110  H45   S    
C101  C108  A    
C29   H91   S    
C12   H51   S    
C115  H16   S    
C24   C64   A    
C115  C122  A    
C74   C80   A    
C70   C77   A    
C36   H36   S    
C43   C84   S    
C112  H13   S    
O23   Zn7   S    
C34   C41   A    
C86   O2    A    
C89   O5    A    
C25   H79   S    
C101  O24   S    
C110  C117  A    
C24   C37   A    
C96   H9    S    
C65   H67   S    
O7    Zn3   S    
C28   H88   S    
C66   C78   A    
O8    Zn4   S    
C18   H65   S    
C56   C63   A    
C33   C40   A    
O1    Zn5   S    
C72   O7    A    
C21   H73   S    
C23   H76   S    
C111  H11   S    
C114  H15   S    
C107  C113  A    
C33   C105  A    
C6    C125  A    
C13   C36   A    
C3    C8    A    
C76   C82   A    
C16   O28   S    
C43   C49   A    
C29   H90   S    
C118  C124  A    
C35   H35   S    
C45   C52   A    
C10   C122  A    
C94   H25   S    
C65   C71   A    
C66   C73   A    
C26   H82   S    
C106  H1    S    
C95   H8    S    
C87   O14   A    
C22   H74   S    
C23   H77   S    
O15   Zn6   S    
C48   O30   S    
C50   O11   A    
C22   O30   S    
C29   C30   S    
C7    C119  A    
C104  C111  A    
C31   H96   S    
C49   O31   S    
C1    O9    A    
O12   Zn8   S    
C13   C63   A    
O12   Zn2   S    
C41   C81   S    
C15   H58   S    
C56   H42   S    
C27   H85   S    
C17   C18   S    
C41   C47   A    
C113  H14   S    
C4    C122  A    
C67   C74   A    
C42   C48   A    
C29   O32   S    
C4    C11   A    
C93   C100  A    
C73   C85   S    
C116  H27   S    
C97   C103  A    
O6    Zn6   S    
C52   H38   S    
C47   C54   A    
C91   C124  A    
C119  C125  A    
C44   C51   A    
C75   C87   S    
O34   Zn7   S    
C12   C14   S    
C67   C81   A    
O13   Zn2   S    
C32   C38   A    
C62   H21   S    
C111  C118  A    
O14   Zn5   S    
C61   O13   A    
C40   C78   S    
C60   C116  A    
O3    Zn3   S    
O18   Zn3   S    
C25   H80   S    
C49   C56   A    
C59   H19   S    
C63   H22   S    
O1    Zn1   S    
C33   H32   S    
H48   O24   S    
C57   C64   A    
O11   Zn1   S    
C32   H31   S    
C53   H39   S    
C28   H87   S    
C99   C106  A    
C68   H2    S    
C18   H64   S    
C100  C107  A    
O5    Zn5   S    
C22   H75   S    
C117  H17   S    
C22   C23   S    
C47   O29   S    
C89   O16   A    
H44   O20   S    
C11   C123  A    
C102  O25   S    
C103  O26   S    
C7    C50   S    
C21   H71   S    
O38   Zn1   S    
C36   C43   A    
C26   O31   S    
C112  C119  A    
O2    Zn2   S    
C8    C120  A    
C83   O8    A    
C75   C81   A    
C28   H86   S    
C73   C79   A    
C5    C123  A    
C93   H7    S    
C9    C126  A    
C77   C84   A    
C30   H92   S    
C54   C60   A    
C85   O18   A    
C24   H30   S    
C37   C44   A    
O9    Zn5   S    
C117  C123  A    
C5    C10   A    
C69   C84   A    
C16   H60   S    
C2    H28   S    
C34   H33   S    
H47   O22   S    
C19   O29   S    
C30   C31   S    
C113  C120  A    
C17   H61   S    
C86   O19   A    
C98   C104  A    
C88   O15   A    
C15   H55   S    
C46   C53   A    
H49   O25   S    
C3    C95   A    
C104  H12   S    
C4    C96   A    
C5    C97   A    
C26   H83   S    
C58   H18   S    
C23   C25   S    
C85   O38   A    
C58   C94   A    
C57   H43   S    
C70   C82   A    
C98   O20   S    
C50   O34   A    
C76   C90   S    
C12   O27   S    
O12   Zn4   S    
C108  H23   S    
C3    C121  A    
C39   O10   A    
C39   O33   A    
C20   C21   S    
C19   H68   S    
C69   H3    S    
C27   H84   S    
O33   Zn8   S    
C64   H24   S    
C27   C28   S    
C14   C15   S    
C10   C39   S    
C102  C109  A    
C1    O23   A    
C97   H10   S    
C74   C88   S    
C25   H81   S    
C51   O32   S    
C2    C62   A    
C20   H70   S    
C71   C78   A    
C14   H54   S    
C95   C101  A    
C92   C99   A    
C6    C118  A    
C30   H93   S    
