data_mof_unit_14116.cif
_audit_creation_date              2012-12-10T19:31:34-0500
_audit_creation_method            fapswitch 2.2
_symmetry_space_group_name_H-M    P1
_symmetry_Int_Tables_number       1
_space_group_crystal_system       triclinic
_cell_length_a                    17.755812
_cell_length_b                    16.43317
_cell_length_c                    27.598659
_cell_angle_alpha                 90.000402
_cell_angle_beta                  90.146124
_cell_angle_gamma                 90.000897
_cell_volume                      8052.8285747

loop_
_atom_site_label
_atom_site_type_symbol
_atom_type_description
_atom_site_fract_x
_atom_site_fract_y
_atom_site_fract_z
_atom_type_partial_charge
C1    C     C_R   0.355239 0.500021 0.499940 0.812543
C2    C     C_R   0.644761 0.500022 0.500060 0.812543
C3    C     C_R   0.502893 0.437635 0.101362 -0.051861
C4    C     C_R   0.497088 0.437632 0.898637 -0.051860
C5    C     C_R   0.436604 0.427958 0.128437 -0.053766
C6    C     C_R   0.563373 0.427921 0.871563 -0.053766
C7    C     C_R   0.370338 0.403017 0.105094 -0.176344
C8    C     C_R   0.629626 0.402946 0.894905 -0.176346
C9    C     C_R   0.569920 0.461679 0.124701 -0.008913
C10   C     C_R   0.430072 0.461709 0.875298 -0.008911
C11   C     C_R   0.498470 0.498323 0.353416 -0.088144
C12   C     C_R   0.501529 0.498325 0.646584 -0.088145
C13   C     C_R   0.430213 0.428714 0.975984 0.046621
C14   C     C_R   0.569763 0.428680 0.024016 0.046621
C15   C     C_R   0.567802 0.413253 0.973410 0.000132
C16   C     C_R   0.432167 0.413289 0.026589 0.000132
C17   C     C_R   0.498243 0.425493 0.949311 0.053462
C18   C     C_R   0.501732 0.425494 0.050688 0.053462
C19   C     C_R   0.364398 0.455558 0.952179 -0.237083
C20   C     C_R   0.635591 0.455491 0.047820 -0.237083
C21   C     C_R   0.364237 0.471437 0.902589 -0.152207
C22   C     C_R   0.635759 0.471373 0.097410 -0.152205
C23   C     C_R   0.497990 0.499961 0.407020 0.813316
C24   C     C_R   0.502012 0.499962 0.592980 0.813315
C25   C     C_R   0.368116 0.391126 0.054711 0.073631
C26   C     C_R   0.631843 0.391056 0.945288 0.073631
C27   C     C_R   0.845937 0.575466 0.495294 0.103795
C28   C     C_R   0.153347 0.426622 0.493186 0.106465
C29   C     C_R   0.154066 0.575461 0.504725 0.103796
C30   C     C_R   0.846652 0.426617 0.506784 0.106468
C31   C     C_R   0.766902 0.573504 0.494541 -0.210573
C32   C     C_R   0.232478 0.427490 0.493276 -0.209506
C33   C     C_R   0.233102 0.573498 0.505479 -0.210589
C34   C     C_R   0.767521 0.427486 0.506699 -0.209507
C35   C     C_R   0.727680 0.500250 0.500341 -0.100059
C36   C     C_R   0.272321 0.500248 0.499657 -0.100054
C37   C     C_R   0.885339 0.501206 0.500722 0.059730
C38   C     C_R   0.114662 0.501207 0.499269 0.059722
C39   C     C_1   0.966269 0.501539 0.500206 -0.090997
C40   C     C_1   0.033733 0.501540 0.499783 -0.090994
C41   C     C_R   0.553862 0.829114 0.527612 -0.000824
C42   C     C_R   0.448109 0.171116 0.470826 -0.002603
C43   C     C_R   0.446133 0.829110 0.472389 -0.000829
C44   C     C_R   0.551891 0.171118 0.529173 -0.002602
C45   C     C_R   0.552471 0.742670 0.526363 0.033725
C46   C     C_R   0.450130 0.257531 0.471584 0.042285
C47   C     C_R   0.447527 0.742666 0.473638 0.033727
C48   C     C_R   0.549870 0.257532 0.528415 0.042284
C49   C     C_R   0.499998 0.872924 0.500000 0.056024
C50   C     C_R   0.500000 0.127285 0.499999 0.054813
C51   C     C_1   0.499998 0.962898 0.500000 -0.071740
C52   C     C_1   0.499999 0.037324 0.499999 -0.070099
C53   C     C_R   0.438756 0.441350 0.178668 0.523233
C54   C     C_R   0.561227 0.441312 0.821331 0.523228
C55   C     C_R   0.568740 0.477849 0.174667 0.527043
C56   C     C_R   0.431258 0.477874 0.825332 0.527043
C57   C     C_R   0.542486 0.428388 0.281627 -0.136844
C58   C     C_R   0.457508 0.428388 0.718371 -0.136847
C59   C     C_R   0.541148 0.436941 0.331483 -0.260792
C60   C     C_R   0.458847 0.436943 0.668515 -0.260778
C61   C     C_R   0.456394 0.553580 0.324074 0.050274
C62   C     C_R   0.543608 0.553579 0.675927 0.050266
C63   C     C_R   0.463246 0.548726 0.272535 0.117872
C64   C     C_R   0.536765 0.548713 0.727467 0.117862
C65   C     C_R   0.503862 0.482927 0.251911 0.309339
C66   C     C_R   0.496139 0.482919 0.748088 0.309360
Cu1   Cu    Cu3+1 0.500000 0.580420 0.500000 0.926030
Cu2   Cu    Cu3+1 0.500000 0.419580 0.500000 0.924555
H1    H     H_    0.320145 0.391298 0.126193 0.182517
H2    H     H_    0.679814 0.391201 0.873806 0.182518
H3    H     H_    0.427083 0.394020 0.646751 0.168041
H4    H     H_    0.572907 0.394014 0.353246 0.168043
N1    N     N_R   0.503651 0.467973 0.200516 -0.462154
N2    N     N_R   0.496344 0.467966 0.799483 -0.462153
N3    N     N_R   0.500000 0.701220 0.500000 -0.191635
N4    N     N_R   0.500000 0.298780 0.500000 -0.195021
O1    O     O_R   0.391260 0.567930 0.500000 -0.586694
O2    O     O_R   0.608740 0.432070 0.500000 -0.590141
O3    O     O_R   0.608740 0.567930 0.500000 -0.586691
O4    O     O_R   0.391260 0.432070 0.500000 -0.590137
O5    O     O_R   0.500010 0.567900 0.430260 -0.579248
O6    O     O_R   0.499990 0.432100 0.569740 -0.582746
O7    O     O_R   0.499990 0.567900 0.569740 -0.579256
O8    O     O_R   0.500010 0.432100 0.430260 -0.582754
O9    O     O_2   0.376385 0.428704 0.205489 -0.559429
O10   O     O_2   0.623593 0.428636 0.794511 -0.559423
O11   O     O_2   0.368105 0.503676 0.802788 -0.552234
O12   O     O_2   0.631905 0.503621 0.197210 -0.552228
C67   C     C_3   0.398098 0.609549 0.347238 -0.438069
C68   C     C_3   0.328504 0.560705 0.362779 -0.321558
C69   C     C_3   0.268282 0.615579 0.384658 -0.857521
H5    H     H_    0.290257 0.645003 0.417930 0.243494
H6    H     H_    0.250835 0.663139 0.358329 0.253484
H7    H     H_    0.218188 0.578639 0.394396 0.255185
H8    H     H_    0.304261 0.529188 0.330678 0.232704
H9    H     H_    0.344363 0.513842 0.389943 0.206387
H10   H     H_    0.422589 0.642937 0.378163 0.207949
H11   H     H_    0.379065 0.658568 0.322746 0.200583
C70   C     C_3   0.601899 0.609556 0.652765 -0.438082
C71   C     C_3   0.671506 0.560726 0.637236 -0.321554
C72   C     C_3   0.731722 0.615611 0.615358 -0.857560
H12   H     H_    0.709748 0.645023 0.582083 0.243479
H13   H     H_    0.749155 0.663181 0.641686 0.253487
H14   H     H_    0.781825 0.578682 0.605626 0.255190
H15   H     H_    0.695747 0.529224 0.669342 0.232699
H16   H     H_    0.655660 0.513853 0.610074 0.206398
H17   H     H_    0.577412 0.642931 0.621835 0.207961
H18   H     H_    0.620914 0.658589 0.677254 0.200581
H19   H     H_    0.734957 0.628828 0.489625 0.148885
H20   H     H_    0.263960 0.371851 0.488453 0.143814
H21   H     H_    0.265047 0.628817 0.510412 0.148893
H22   H     H_    0.736038 0.371843 0.511505 0.143827
C73   C     C_3   0.611271 0.876544 0.557582 -0.405102
C74   C     C_3   0.667131 0.825210 0.587072 -0.380467
C75   C     C_3   0.721817 0.879011 0.615314 -0.834199
H23   H     H_    0.754782 0.917750 0.590098 0.252039
H24   H     H_    0.690655 0.918437 0.641086 0.252176
H25   H     H_    0.761504 0.840156 0.636156 0.241666
H26   H     H_    0.636090 0.786290 0.613204 0.219466
H27   H     H_    0.700201 0.786272 0.562164 0.209474
H28   H     H_    0.643901 0.916202 0.532615 0.205162
H29   H     H_    0.580075 0.916539 0.583111 0.206421
C76   C     C_3   0.391985 0.123888 0.439789 -0.405211
C77   C     C_3   0.335997 0.175555 0.410550 -0.375897
C78   C     C_3   0.280562 0.121924 0.382768 -0.830049
H30   H     H_    0.311088 0.082593 0.356632 0.252968
H31   H     H_    0.248221 0.083020 0.408217 0.247974
H32   H     H_    0.240336 0.160862 0.362419 0.246378
H33   H     H_    0.303681 0.215140 0.435563 0.208027
H34   H     H_    0.366904 0.214143 0.384154 0.222647
H35   H     H_    0.424083 0.084950 0.414153 0.205503
H36   H     H_    0.359217 0.083185 0.464084 0.206089
C79   C     C_3   0.388722 0.876535 0.442420 -0.405108
C80   C     C_3   0.332860 0.825197 0.412931 -0.380456
C81   C     C_3   0.278176 0.878996 0.384688 -0.834201
H37   H     H_    0.245211 0.917736 0.409902 0.252038
H38   H     H_    0.309339 0.918419 0.358915 0.252177
H39   H     H_    0.238490 0.840138 0.363846 0.241665
H40   H     H_    0.363901 0.786276 0.386801 0.219464
H41   H     H_    0.299789 0.786261 0.437840 0.209475
H42   H     H_    0.356092 0.916192 0.467388 0.205162
H43   H     H_    0.419916 0.916532 0.416891 0.206423
C82   C     C_3   0.608018 0.123892 0.560207 -0.405217
C83   C     C_3   0.664006 0.175561 0.589446 -0.375890
C84   C     C_3   0.719450 0.121932 0.617222 -0.830037
H44   H     H_    0.688929 0.082592 0.643355 0.252968
H45   H     H_    0.751792 0.083039 0.591769 0.247976
H46   H     H_    0.759672 0.160873 0.637573 0.246375
H47   H     H_    0.696317 0.215152 0.564433 0.208021
H48   H     H_    0.633100 0.214142 0.615845 0.222652
H49   H     H_    0.575922 0.084951 0.585843 0.205502
H50   H     H_    0.640784 0.083191 0.535910 0.206089
H51   H     H_    0.593219 0.707524 0.546345 0.120974
H52   H     H_    0.412003 0.292973 0.449580 0.125574
H53   H     H_    0.406779 0.707518 0.453656 0.120984
H54   H     H_    0.587997 0.292975 0.550419 0.125580
C85   C     C_3   0.429305 0.613454 0.239496 -0.388622
C86   C     C_3   0.473607 0.693509 0.243202 -0.368679
C87   C     C_3   0.435937 0.760790 0.213758 -0.841466
H55   H     H_    0.432226 0.743064 0.174981 0.257927
H56   H     H_    0.378447 0.772894 0.227819 0.252346
H57   H     H_    0.469614 0.817525 0.216650 0.245522
H58   H     H_    0.478504 0.713933 0.281423 0.218474
H59   H     H_    0.531577 0.683762 0.229188 0.240898
H60   H     H_    0.430509 0.595142 0.200907 0.209268
H61   H     H_    0.368675 0.622146 0.247710 0.203128
C88   C     C_3   0.570727 0.613427 0.760508 -0.388644
C89   C     C_3   0.526419 0.693480 0.756827 -0.368648
C90   C     C_3   0.564111 0.760754 0.786268 -0.841476
H62   H     H_    0.567866 0.743008 0.825040 0.257929
H63   H     H_    0.621583 0.772878 0.772184 0.252343
H64   H     H_    0.530422 0.817483 0.783402 0.245526
H65   H     H_    0.521491 0.713917 0.718611 0.218474
H66   H     H_    0.468461 0.683723 0.770860 0.240913
H67   H     H_    0.569549 0.595096 0.799094 0.209267
H68   H     H_    0.631351 0.622128 0.752280 0.203122
H69   H     H_    0.426235 0.378496 0.734228 0.153242
H70   H     H_    0.573751 0.378493 0.265769 0.153255
H71   H     H_    0.312440 0.492133 0.885833 0.182873
H72   H     H_    0.687566 0.492043 0.114166 0.182873
H73   H     H_    0.313329 0.468204 0.972081 0.148731
H74   H     H_    0.686666 0.468110 0.027918 0.148731
C91   C     C_3   0.300567 0.346240 0.033620 -0.429903
C92   C     C_3   0.289582 0.262334 0.057278 -0.335904
C93   C     C_3   0.225655 0.215300 0.033004 -0.842138
H75   H     H_    0.172027 0.249748 0.035926 0.255129
H76   H     H_    0.238588 0.204534 0.994169 0.254071
H77   H     H_    0.218575 0.155499 0.051163 0.243491
H78   H     H_    0.342417 0.226401 0.054115 0.227172
H79   H     H_    0.275881 0.269008 0.096308 0.220477
H80   H     H_    0.249145 0.383818 0.038752 0.194878
H81   H     H_    0.307849 0.334475 0.994409 0.217813
C94   C     C_3   0.699371 0.346137 0.966379 -0.429902
C95   C     C_3   0.710315 0.262223 0.942723 -0.335904
C96   C     C_3   0.774219 0.215156 0.966997 -0.842136
H82   H     H_    0.827864 0.249574 0.964074 0.255129
H83   H     H_    0.761281 0.204399 0.005833 0.254070
H84   H     H_    0.781269 0.155350 0.948839 0.243491
H85   H     H_    0.657462 0.226319 0.945886 0.227172
H86   H     H_    0.724018 0.268887 0.903693 0.220478
H87   H     H_    0.750811 0.383687 0.961247 0.194877
H88   H     H_    0.692084 0.334378 0.005591 0.217812
C97   C     C_3   0.889982 0.654918 0.490538 -0.397139
C98   C     C_3   0.842687 0.733149 0.488594 -0.363935
C99   C     C_3   0.892712 0.808549 0.486477 -0.844003
H89   H     H_    0.928708 0.812230 0.519371 0.254380
H90   H     H_    0.928985 0.806696 0.453764 0.251931
H91   H     H_    0.856955 0.863922 0.484773 0.242949
H92   H     H_    0.805979 0.732575 0.455908 0.222085
H93   H     H_    0.807249 0.737236 0.521576 0.217011
H94   H     H_    0.928669 0.659718 0.522170 0.201423
H95   H     H_    0.924885 0.651554 0.457201 0.199718
C100  C     C_3   0.108356 0.347997 0.487152 -0.397722
C101  C     C_3   0.154341 0.271098 0.476076 -0.367664
C102  C     C_3   0.103312 0.197007 0.470231 -0.845016
H96   H     H_    0.072324 0.185158 0.504416 0.254398
H97   H     H_    0.062319 0.206888 0.440331 0.252454
H98   H     H_    0.137981 0.142725 0.461558 0.244107
H99   H     H_    0.185883 0.280178 0.441790 0.220175
H100  H     H_    0.194498 0.258624 0.506134 0.220018
H101  H     H_    0.075616 0.337616 0.520883 0.200941
H102  H     H_    0.067651 0.356754 0.456897 0.200867
C103  C     C_3   0.110024 0.654910 0.509510 -0.397139
C104  C     C_3   0.157323 0.733137 0.511511 -0.363903
C105  C     C_3   0.107301 0.808534 0.513668 -0.844010
H103  H     H_    0.071319 0.812275 0.480769 0.254380
H104  H     H_    0.071014 0.806624 0.546374 0.251926
H105  H     H_    0.143059 0.863904 0.515413 0.242950
H106  H     H_    0.194015 0.732503 0.544204 0.222094
H107  H     H_    0.192778 0.737284 0.478540 0.216990
H108  H     H_    0.071359 0.659757 0.477869 0.201417
H109  H     H_    0.075098 0.651497 0.542834 0.199719
C106  C     C_3   0.891641 0.347987 0.512793 -0.397730
C107  C     C_3   0.845654 0.271081 0.523851 -0.367658
C108  C     C_3   0.896680 0.196985 0.529675 -0.845017
H110  H     H_    0.927661 0.185158 0.495484 0.254400
H111  H     H_    0.937679 0.206844 0.559574 0.252453
H112  H     H_    0.862009 0.142698 0.538337 0.244097
H113  H     H_    0.814119 0.280138 0.558143 0.220175
H114  H     H_    0.805491 0.258628 0.493793 0.220021
H115  H     H_    0.924373 0.337630 0.479056 0.200942
H116  H     H_    0.932352 0.356719 0.543046 0.200867

loop_
_geom_bond_atom_site_label_1
_geom_bond_atom_site_label_2
_ccdc_geom_bond_type
C2    C35   S    
Cu2   O4    S    
C81   H39   S    
C97   C98   S    
C63   C65   A    
Cu1   O7    S    
C72   H12   S    
C76   H36   S    
C31   H19   S    
C1    O1    A    
C90   H62   S    
C14   C18   A    
C103  C104  S    
Cu1   O1    S    
C102  H96   S    
C104  C105  S    
C33   C36   A    
C46   N4    A    
C74   C75   S    
C93   H75   S    
C20   H74   S    
C65   N1    S    
C76   C77   S    
C93   H77   S    
C99   H89   S    
C103  H109  S    
C89   H66   S    
C70   H18   S    
C71   H15   S    
C85   C86   S    
C78   H30   S    
C32   H20   S    
C27   C97   S    
C32   C36   A    
C5    C53   A    
C19   C21   A    
C24   O7    A    
C64   C88   S    
C101  H99   S    
C102  H97   S    
C80   H41   S    
C57   H70   S    
C9    C22   A    
C93   H76   S    
C22   H72   S    
C58   C60   A    
C82   C83   S    
C66   N2    S    
C29   C33   A    
C28   C100  S    
C105  H105  S    
C94   H87   S    
C92   C93   S    
C3    C18   A    
C81   H38   S    
C34   C35   A    
C42   C46   A    
C11   C23   S    
C55   O12   S    
C43   C79   S    
C24   O6    A    
C62   C64   A    
C2    O3    A    
C54   N2    A    
C100  H101  S    
C58   C66   A    
C95   H86   S    
C73   H29   S    
C87   H55   S    
C103  H108  S    
C49   C51   S    
C29   C38   A    
C78   H32   S    
C50   C52   S    
C108  H110  S    
C87   H56   S    
C33   H21   S    
C10   C56   A    
C106  C107  S    
C74   H26   S    
C86   H59   S    
C59   H4    S    
C96   H84   S    
C82   H49   S    
C95   C96   S    
C48   H54   S    
C72   H13   S    
C91   H81   S    
C108  H111  S    
C97   H94   S    
C89   H65   S    
C80   H40   S    
C6    C54   A    
C11   C59   A    
C28   C32   A    
C41   C49   A    
C84   H45   S    
C88   C89   S    
C61   C67   S    
C42   C76   S    
C84   H44   S    
C99   H90   S    
C10   C21   A    
Cu2   O2    S    
C8    C26   A    
C46   H52   S    
C56   N2    A    
C23   O8    A    
C30   C34   A    
C27   C31   A    
Cu1   Cu2   S    
Cu2   O8    S    
C90   H64   S    
C14   C20   A    
C34   H22   S    
C68   H8    S    
Cu1   O3    S    
C4    C6    A    
C102  H98   S    
C83   H48   S    
C69   H5    S    
C5    C7    A    
C13   C19   A    
C101  C102  S    
C43   C49   A    
C56   O11   S    
C6    C8    A    
C81   H37   S    
C60   H3    S    
C11   C61   A    
C100  C101  S    
C94   H88   S    
C96   H82   S    
C30   C37   A    
C67   H10   S    
C55   N1    A    
C98   H92   S    
C91   C92   S    
C83   H47   S    
C3    C9    A    
C104  H107  S    
C69   H6    S    
C12   C62   A    
C100  H102  S    
C70   C71   S    
C28   C38   A    
C75   H25   S    
C61   C63   A    
C105  H103  S    
C79   H43   S    
C87   H57   S    
C77   H34   S    
C107  H114  S    
C68   H9    S    
C19   H73   S    
C86   H58   S    
C42   C50   A    
C9    C55   A    
C4    C17   A    
C106  H115  S    
C89   C90   S    
C20   C22   A    
Cu1   O5    S    
C72   H14   S    
C86   C87   S    
C108  H112  S    
C92   H79   S    
C97   H95   S    
Cu1   N3    S    
C107  C108  S    
C63   C85   S    
C85   H60   S    
C3    C5    A    
C39   C40   T    
C84   H46   S    
C2    O2    A    
C54   O10   S    
C73   C74   S    
C90   H63   S    
C99   H91   S    
C44   C50   A    
C16   C25   A    
C29   C103  S    
C75   H24   S    
C82   H50   S    
C23   O5    A    
C76   H35   S    
C92   H78   S    
C71   H16   S    
C53   N1    A    
C57   C65   A    
C83   C84   S    
C15   C26   A    
C91   H80   S    
C85   H61   S    
C7    H1    S    
C15   C17   A    
C80   C81   S    
Cu2   N4    S    
C73   H28   S    
C70   H17   S    
C12   C24   S    
C8    H2    S    
C7    C25   A    
C13   C17   A    
C67   H11   S    
C45   N3    A    
Cu2   O6    S    
C47   N3    A    
C51   C52   T    
C37   C39   S    
C101  H100  S    
C104  H106  S    
C69   H7    S    
C38   C40   S    
C62   C70   S    
C68   C69   S    
C79   C80   S    
C47   H53   S    
C27   C37   A    
C44   C82   S    
C41   C73   S    
C71   C72   S    
C105  H104  S    
C88   H67   S    
C77   H33   S    
C58   H69   S    
C31   C35   A    
C107  H113  S    
C30   C106  S    
C43   C47   A    
C57   C59   A    
C48   N4    A    
C12   C60   A    
C95   H85   S    
C25   C91   S    
C106  H116  S    
C21   H71   S    
C45   H51   S    
C98   C99   S    
C16   C18   A    
C94   C95   S    
C13   C16   A    
C98   H93   S    
C78   H31   S    
C1    O4    A    
C41   C45   A    
C14   C15   A    
C77   C78   S    
C53   O9    S    
C79   H42   S    
C75   H23   S    
C67   C68   S    
C26   C94   S    
C4    C10   A    
C74   H27   S    
C44   C48   A    
C1    C36   S    
C64   C66   A    
C88   H68   S    
C96   H83   S    
