data_mof_unit_27638.cif
_audit_creation_date              2013-03-05T15:43:18-0500
_audit_creation_method            fapswitch 2.2
_symmetry_space_group_name_H-M    P1
_symmetry_Int_Tables_number       1
_space_group_crystal_system       triclinic
_cell_length_a                    10.580058
_cell_length_b                    10.64644
_cell_length_c                    10.082743
_cell_angle_alpha                 88.127885
_cell_angle_beta                  88.739688
_cell_angle_gamma                 91.207938
_cell_volume                      1134.56878595

loop_
_atom_site_label
_atom_site_type_symbol
_atom_site_description
_atom_site_fract_x
_atom_site_fract_y
_atom_site_fract_z
_atom_type_partial_charge
O1    O     O_R   0.499980 0.319060 0.613040 -0.572764
O2    O     O_R   0.500020 0.319100 0.386900 -0.621127
C1    C     C_R   0.488764 0.262587 0.502541 0.828803
O3    O     O_R   0.316750 0.499980 0.613090 -0.620854
O4    O     O_R   0.316790 0.500020 0.386950 -0.619240
C2    C     C_R   0.259541 0.487669 0.501694 0.876992
Zn1   Zn    Zn3+2 0.499970 0.499970 0.650990 1.097953
Zn2   Zn    Zn3+2 0.500030 0.500030 0.349010 1.076685
O5    O     O_R   0.499980 0.680900 0.613100 -0.571846
O6    O     O_R   0.500020 0.680940 0.386960 -0.545239
O7    O     O_R   0.683210 0.499980 0.613050 -0.590108
O8    O     O_R   0.683250 0.500020 0.386910 -0.549077
C3    C     C_R   0.498739 0.737555 0.497522 0.991074
C4    C     C_R   0.736977 0.477379 0.499238 0.906766
H1    H     H_    0.116292 0.488683 0.289324 0.210846
C5    C     C_R   0.122674 0.336577 0.719777 -0.159793
H2    H     H_    0.223718 0.328443 0.720771 0.227852
C6    C     C_R   0.054558 0.272474 0.821453 -0.129633
H3    H     H_    0.104532 0.223645 0.899523 0.212435
C7    C     C_R   0.923385 0.264349 0.818352 0.354479
C8    C     C_R   0.859322 0.323372 0.714684 -0.150788
H4    H     H_    0.758231 0.307596 0.710690 0.196302
C9    C     C_R   0.927053 0.389473 0.610824 0.021178
C10   C     C_R   0.060408 0.396654 0.613459 0.085141
C11   C     C_R   0.126036 0.454868 0.502724 -0.149095
C12   C     C_R   0.064976 0.466798 0.381654 -0.192558
C13   C     C_R   0.937151 0.447105 0.376437 0.304333
C14   C     C_R   0.867066 0.436405 0.495962 -0.198119
C15   C     C_2   0.428154 0.934045 0.403802 0.327881
C16   C     C_2   0.500551 0.870683 0.489236 -0.293646
H5    H     H_    0.565065 0.918500 0.554263 0.183250
C17   C     C_2   0.440912 0.069020 0.398706 -0.232982
C18   C     C_2   0.448712 0.132928 0.510417 0.064432
H6    H     H_    0.456930 0.114021 0.301336 0.218106
C19   C     C_2   0.553436 0.587058 0.923099 0.251791
N1    N     N_2   0.501340 0.501330 0.852150 -0.084803
C20   C     C_2   0.576141 0.570279 0.069444 0.300491
N2    N     N_2   0.501380 0.501360 0.147810 -0.213694
H7    H     H_    0.418043 0.470210 0.108183 0.172839
Br1   Br    Br    0.387545 0.065600 0.681855 -0.342134
N3    N     N_R   0.595956 0.703299 0.860031 0.237958
O9    O     O_R   0.556949 0.808728 0.906192 -0.290083
O10   O     O_R   0.694514 0.704848 0.780540 -0.303442
N4    N     N_R   0.494624 0.379580 0.907076 0.246037
O11   O     O_R   0.393192 0.311113 0.892296 -0.359436
O12   O     O_R   0.596115 0.325926 0.949430 -0.332177
N5    N     N_R   0.684890 0.635222 0.119461 0.260587
O13   O     O_R   0.788045 0.643486 0.046679 -0.284322
O14   O     O_R   0.672089 0.713570 0.214342 -0.305122
Br2   Br    Br    0.834281 0.158940 0.947494 -0.252096
Br3   Br    Br    0.870883 0.411171 0.205864 -0.337933
Br4   Br    Br    0.312876 0.858287 0.282878 -0.352100

loop_
_geom_bond_atom_site_label_1
_geom_bond_atom_site_label_2
_geom_bond_distance
_ccdc_geom_bond_type
O4    Zn2   1.967796 S    
C9    C10   1.412242 A    
C10   C11   1.419634 A    
C20   N2    1.303269 D    
C20   N5    1.439087 S    
Zn1   N1    2.029136 S    
C5    C10   1.412887 A    
C19   N1    1.298982 D    
C16   H5    1.087090 S    
Zn2   O8    1.984016 S    
C17   C18   1.337990 D    
O2    C1    1.296421 A    
O8    C4    1.296229 A    
N5    O14   1.296344 A    
O1    Zn1   1.975913 S    
C9    C14   1.414786 A    
N4    O11   1.298601 A    
Zn1   O7    1.967797 S    
N3    O10   1.300631 A    
C12   C13   1.366595 A    
C15   C16   1.340387 D    
Zn2   N2    2.027968 S    
O3    Zn1   1.984014 S    
Zn2   O6    1.975913 S    
C19   C20   1.505675 S    
C13   Br3   1.918472 S    
C6    H3    1.082863 S    
C15   C17   1.439627 S    
C6    C7    1.389796 A    
C8    C9    1.415257 A    
O4    C2    1.295578 A    
C19   N3    1.432059 S    
O7    C4    1.301326 A    
N1    N4    1.392609 S    
C18   Br1   1.941867 S    
C1    C18   1.434605 S    
C2    C11   1.447593 S    
C3    C16   1.416769 S    
N2    H7    1.029006 S    
C7    C8    1.397505 A    
C5    C6    1.391821 A    
O3    C2    1.296630 A    
N3    O9    1.300786 A    
C13   C14   1.401184 A    
Zn1   O5    1.951496 S    
O5    C3    1.295030 A    
H1    C12   1.083499 S    
C7    Br2   1.910371 S    
C4    C14   1.452569 S    
C11   C12   1.397015 A    
C8    H4    1.080988 S    
O6    C3    1.284437 A    
O2    Zn2   1.951496 S    
N5    O13   1.301492 A    
N4    O12   1.300686 A    
C5    H2    1.074614 S    
O1    C1    1.289742 A    
C15   Br4   1.926868 S    
C17   H6    1.086570 S    
