data_mof_unit_42609.cif
_audit_creation_date              2012-12-10T19:54:26-0500
_audit_creation_method            fapswitch 2.2
_symmetry_space_group_name_H-M    P1
_symmetry_Int_Tables_number       1
_space_group_crystal_system       triclinic
_cell_length_a                    15.731285
_cell_length_b                    14.881156
_cell_length_c                    14.268863
_cell_angle_alpha                 89.856762
_cell_angle_beta                  89.496732
_cell_angle_gamma                 91.873547
_cell_volume                      3338.40917757

loop_
_atom_site_label
_atom_site_type_symbol
_atom_type_description
_atom_site_fract_x
_atom_site_fract_y
_atom_site_fract_z
_atom_type_partial_charge
C1    C     C_R   0.497744 0.327360 0.500119 0.891193
C2    C     C_R   0.512041 0.911120 0.572513 -0.151022
C3    C     C_R   0.456990 0.046297 0.501441 0.024881
C4    C     C_R   0.459172 0.949395 0.505970 0.012219
C5    C     C_R   0.424943 0.474134 0.106740 0.390296
C6    C     C_R   0.526825 0.578929 0.893630 0.374443
C7    C     C_R   0.431033 0.464894 0.204699 0.401633
C8    C     C_R   0.534733 0.572325 0.795436 0.418750
C9    C     C_R   0.567794 0.536296 0.202282 0.342467
C10   C     C_R   0.463921 0.429405 0.797831 0.341132
C11   C     C_R   0.571331 0.529565 0.103706 0.367810
C12   C     C_R   0.499124 0.672245 0.499906 0.892818
C13   C     C_R   0.469818 0.426091 0.896573 0.349490
C14   C     C_R   0.497557 0.502754 0.053343 -0.236876
C15   C     C_R   0.497475 0.503196 0.946796 -0.239570
C16   C     C_R   0.338054 0.500147 0.500402 0.892939
C17   C     C_R   0.661974 0.500376 0.499545 0.899697
C18   C     C_3   0.968779 0.441843 0.562191 -0.476297
C19   C     C_3   0.031674 0.566830 0.435811 -0.452134
C20   C     C_3   0.026762 0.423591 0.477031 0.371744
C21   C     C_3   0.973601 0.585067 0.521039 0.378653
C22   C     C_1   0.249390 0.502359 0.501468 -0.150252
C23   C     C_R   0.451571 0.187949 0.580945 -0.303489
C24   C     C_1   0.750788 0.501368 0.498101 -0.158345
C25   C     C_3   0.025860 0.525702 0.584908 0.442669
C26   C     C_3   0.974582 0.483030 0.413132 0.460700
C27   C     C_3   0.083677 0.505921 0.500804 -0.021732
C28   C     C_3   0.916741 0.502784 0.497275 -0.018910
C29   C     C_1   0.174293 0.504385 0.501919 0.093001
C30   C     C_1   0.826012 0.502216 0.496880 0.090824
C31   C     C_R   0.434611 0.095483 0.581082 0.472704
C32   C     C_R   0.417438 0.895886 0.438345 0.494125
C33   C     C_3   0.693493 0.486214 0.030241 0.113458
C34   C     C_R   0.434842 0.805253 0.433708 -0.274800
C35   C     C_3   0.751465 0.457246 0.109970 -0.292814
C36   C     C_3   0.810739 0.383959 0.078093 -0.992852
C37   C     C_3   0.499616 0.283446 0.940446 0.122035
C38   C     C_3   0.469740 0.205129 0.003217 -0.319885
C39   C     C_3   0.530927 0.127798 0.998244 -0.957252
C40   C     C_3   0.009039 0.444906 0.259807 0.114694
C41   C     C_3   0.012425 0.520433 0.186794 -0.379460
C42   C     C_3   0.082510 0.506075 0.114188 -0.896641
C43   C     C_3   0.991634 0.548270 0.740166 0.099863
C44   C     C_3   0.021241 0.595940 0.829393 -0.318109
C45   C     C_R   0.484796 0.230775 0.500489 -0.088811
C46   C     C_3   0.951536 0.593137 0.904607 -0.959684
C47   C     C_3   0.325742 0.084244 0.691515 0.060367
C48   C     C_3   0.335024 0.121844 0.790727 -0.332939
C49   C     C_3   0.252322 0.161370 0.825697 -0.879864
C50   C     C_3   0.282722 0.944101 0.414426 0.091346
C51   C     C_3   0.227225 0.857679 0.407061 -0.376434
C52   C     C_3   0.137069 0.871820 0.443136 -0.921392
C53   C     C_R   0.488029 0.767536 0.500168 -0.101331
C54   C     C_R   0.500866 0.181579 0.419287 -0.211078
C55   C     C_R   0.525311 0.819930 0.570587 -0.184103
C56   C     C_R   0.487831 0.089325 0.420138 -0.177607
H1    H     H_    0.942022 0.390641 0.611911 0.176283
H2    H     H_    0.993636 0.707488 0.558067 0.341580
H3    H     H_    0.610638 0.609768 0.301999 0.376063
H4    H     H_    0.394447 0.385871 0.697259 0.376225
H5    H     H_    0.734019 0.508458 0.969811 0.168137
H6    H     H_    0.653934 0.427918 0.005144 0.092509
H7    H     H_    0.790054 0.516298 0.134618 0.259139
H8    H     H_    0.712223 0.430802 0.169617 0.234260
H9    H     H_    0.773235 0.324073 0.053701 0.265251
H10   H     H_    0.850854 0.363645 0.137641 0.286172
H11   H     H_    0.852941 0.409084 0.020347 0.260556
H12   H     H_    0.058714 0.617963 0.386230 0.176719
H13   H     H_    0.562429 0.309082 0.966179 0.099509
H14   H     H_    0.507079 0.258679 0.867370 0.164295
H15   H     H_    0.465080 0.228756 0.076896 0.233236
H16   H     H_    0.405639 0.180439 0.981055 0.237301
H17   H     H_    0.534814 0.101748 0.925480 0.273059
H18   H     H_    0.507709 0.072388 0.045064 0.279807
H19   H     H_    0.595336 0.150666 0.021267 0.264993
H20   H     H_    0.995464 0.380074 0.223626 0.163588
H21   H     H_    0.072959 0.439370 0.292329 0.169312
H22   H     H_    0.950311 0.522932 0.150606 0.242633
H23   H     H_    0.438527 0.225980 0.643448 0.204159
H24   H     H_    0.024613 0.585954 0.222088 0.228314
H25   H     H_    0.145288 0.502583 0.148854 0.295015
H26   H     H_    0.085246 0.563077 0.063861 0.263971
H27   H     H_    0.069435 0.442878 0.074835 0.269462
H28   H     H_    0.974798 0.476864 0.757406 0.142663
H29   H     H_    0.933980 0.581986 0.714402 0.170421
H30   H     H_    0.078384 0.563046 0.856927 0.234695
H31   H     H_    0.038764 0.667218 0.812769 0.233853
H32   H     H_    0.893167 0.624324 0.878149 0.279442
H33   H     H_    0.973601 0.631094 0.967179 0.273407
H34   H     H_    0.404519 0.763916 0.380352 0.172733
H35   H     H_    0.936185 0.522557 0.925685 0.260013
H36   H     H_    0.278634 0.026965 0.693412 0.163056
H37   H     H_    0.298733 0.135944 0.644360 0.131383
H38   H     H_    0.353508 0.067270 0.839053 0.230474
H39   H     H_    0.385964 0.175158 0.791576 0.252389
H40   H     H_    0.234131 0.217859 0.779769 0.277603
H41   H     H_    0.261026 0.187355 0.897965 0.276534
H42   H     H_    0.200388 0.108969 0.826613 0.252374
H43   H     H_    0.251697 0.998266 0.374911 0.179224
H44   H     H_    0.286053 0.967139 0.488753 0.124852
H45   H     H_    0.525814 0.213970 0.356281 0.168412
H46   H     H_    0.224473 0.835802 0.332694 0.239274
H47   H     H_    0.255405 0.803365 0.449010 0.216857
H48   H     H_    0.138317 0.892399 0.517911 0.263105
H49   H     H_    0.098852 0.808030 0.437203 0.267669
H50   H     H_    0.106233 0.924368 0.401118 0.269551
H51   H     H_    0.343881 0.485023 0.005675 0.345790
H52   H     H_    0.520480 0.664637 0.995807 0.346661
H53   H     H_    0.389591 0.388378 0.303644 0.362783
H54   H     H_    0.605940 0.615791 0.694980 0.360069
H55   H     H_    0.566255 0.790711 0.622312 0.200670
H56   H     H_    0.505211 0.051018 0.358789 0.179159
H57   H     H_    0.544953 0.952345 0.624106 0.182087
H58   H     H_    0.006785 0.301200 0.439854 0.339789
N1    N     N_R   0.500000 0.499980 0.252470 -0.254606
N2    N     N_R   0.500000 0.500020 0.747530 -0.246371
O1    O     O_R   0.500010 0.369070 0.579480 -0.612085
O2    O     O_3   0.942525 0.668894 0.545308 -0.749789
O3    O     O_3   0.634307 0.580487 0.246040 -0.709209
O4    O     O_3   0.419163 0.360814 0.754516 -0.765950
O5    O     O_3   0.644560 0.560049 0.057480 -0.553093
O6    O     O_3   0.438698 0.350888 0.944486 -0.560941
O7    O     O_3   0.942008 0.458660 0.324549 -0.634851
O8    O     O_3   0.058079 0.552157 0.672986 -0.629802
O9    O     O_3   0.404633 0.050850 0.660933 -0.652378
O10   O     O_3   0.363784 0.932330 0.373080 -0.652423
O11   O     O_3   0.347073 0.453663 0.066742 -0.667830
O12   O     O_R   0.499990 0.630930 0.420520 -0.641837
O13   O     O_3   0.549287 0.660407 0.934100 -0.653623
O14   O     O_3   0.364777 0.421134 0.250792 -0.691688
O15   O     O_3   0.576646 0.641928 0.749344 -0.700981
O16   O     O_R   0.500010 0.369060 0.420520 -0.645714
O17   O     O_R   0.499990 0.630940 0.579480 -0.595794
O18   O     O_R   0.376780 0.500000 0.579460 -0.630338
O19   O     O_R   0.623220 0.500000 0.420540 -0.592183
O20   O     O_R   0.376780 0.499990 0.420510 -0.593330
O21   O     O_R   0.623220 0.500010 0.579490 -0.644523
O22   O     O_3   0.057870 0.339736 0.452879 -0.756755
Zn1   Zn    Zn3+2 0.500000 0.500010 0.606140 0.952751
Zn2   Zn    Zn3+2 0.500000 0.499990 0.393860 0.952538

loop_
_geom_bond_atom_site_label_1
_geom_bond_atom_site_label_2
_ccdc_geom_bond_type
C23   C45   A    
C22   C29   T    
C37   H13   S    
C27   C29   S    
C41   C42   S    
C54   H45   S    
C35   C36   S    
C42   H26   S    
O20   Zn2   S    
C1    O16   A    
C16   O18   A    
C41   H24   S    
C36   H11   S    
C46   H33   S    
C11   O5    S    
C51   H46   S    
C42   H25   S    
C50   H43   S    
C21   O2    S    
C48   H38   S    
C48   H39   S    
C2    C55   A    
C38   C39   S    
C2    H57   S    
C36   H10   S    
C51   H47   S    
H2    O2    S    
C47   H36   S    
C39   H18   S    
C20   O22   S    
C19   C26   S    
C7    O14   S    
C33   C35   S    
C49   H42   S    
C33   H6    S    
C17   O19   A    
H3    O3    S    
C35   H8    S    
C50   O10   S    
C39   H19   S    
C44   H31   S    
C19   C27   S    
C12   C53   S    
N2    Zn1   S    
C55   H55   S    
C39   H17   S    
C6    C15   A    
C52   H50   S    
C37   H14   S    
C33   O5    S    
C43   H28   S    
O1    Zn1   S    
C18   C25   S    
C6    O13   S    
C44   H30   S    
C44   C46   S    
C47   O9    S    
C46   H32   S    
C53   C55   A    
O19   Zn2   S    
C38   H16   S    
C17   C24   S    
C51   C52   S    
C9    N1    A    
C19   H12   S    
C18   C28   S    
H52   O13   S    
C41   H22   S    
C5    C7    A    
C36   H9    S    
C6    C8    A    
C46   H35   S    
C40   H20   S    
C32   C34   A    
C2    C4    A    
C43   C44   S    
C34   H34   S    
C37   C38   S    
O21   Zn1   S    
C3    C56   A    
C18   H1    S    
C47   C48   S    
C5    O11   S    
C8    O15   S    
C50   C51   S    
C47   H37   S    
H54   O15   S    
C1    O1    A    
C3    C31   A    
C9    C11   A    
C5    C14   A    
C4    C32   A    
C32   O10   S    
C40   C41   S    
C21   C28   S    
C45   C54   A    
O17   Zn1   S    
C43   H29   S    
C12   O17   A    
C13   C15   A    
C9    O3    S    
O16   Zn2   S    
C26   O7    S    
C31   O9    S    
C3    C4    S    
C16   O20   A    
O18   Zn1   S    
C10   N2    A    
C40   O7    S    
C21   C25   S    
C38   H15   S    
C52   H48   S    
C16   C22   S    
C19   C21   S    
C14   C15   S    
C50   H44   S    
C7    N1    A    
C42   H27   S    
C10   C13   A    
C52   H49   S    
C17   O21   A    
C54   C56   A    
C12   O12   A    
C20   C27   S    
C25   C27   S    
C26   C28   S    
C28   C30   S    
O12   Zn2   S    
H51   O11   S    
C13   O6    S    
C1    C45   S    
C20   C26   S    
C48   C49   S    
C11   C14   A    
H4    O4    S    
C18   C20   S    
H58   O22   S    
C49   H40   S    
C25   O8    S    
C24   C30   T    
C10   O4    S    
C8    N2    A    
C49   H41   S    
C37   O6    S    
N1    Zn2   S    
C34   C53   A    
C33   H5    S    
H53   O14   S    
C40   H21   S    
C35   H7    S    
C23   H23   S    
C43   O8    S    
C56   H56   S    
C23   C31   A    
