data_mof_unit_54377.cif
_audit_creation_date              2012-12-10T16:39:33-0500
_audit_creation_method            fapswitch 2.2
_symmetry_space_group_name_H-M    P1
_symmetry_Int_Tables_number       1
_space_group_crystal_system       triclinic
_cell_length_a                    16.873525
_cell_length_b                    16.9009
_cell_length_c                    16.784848
_cell_angle_alpha                 66.396534
_cell_angle_beta                  66.609675
_cell_angle_gamma                 66.947194
_cell_volume                      3868.70256889

loop_
_atom_site_label
_atom_site_type_symbol
_atom_type_description
_atom_site_fract_x
_atom_site_fract_y
_atom_site_fract_z
_atom_type_partial_charge
C1    C     C_R   0.326371 0.947733 0.459048 -0.000817
C2    C     C_R   0.327417 0.457854 0.943587 -0.011077
C3    C     C_R   0.551420 0.420333 0.964729 -0.043467
C4    C     C_R   0.030113 0.449107 0.580540 -0.043764
C5    C     C_R   0.989939 0.544989 0.412004 -0.042661
C6    C     C_3   0.290375 0.879311 0.290308 -0.846071
C7    C     C_3   0.743940 0.940119 0.746832 -0.818477
C8    C     C_3   0.876905 0.292242 0.291650 -0.850424
C9    C     C_3   0.929899 0.736176 0.740033 -0.832502
C10   C     C_3   0.249949 0.249091 0.060217 -0.761135
C11   C     C_3   0.754891 0.754934 0.958457 -0.784081
C12   C     C_3   0.290155 0.997991 0.824151 -0.926625
C13   C     C_R   0.054651 0.672745 0.539884 -0.002147
C14   C     C_3   0.703634 0.019040 0.171923 -0.926430
C15   C     C_3   0.991856 0.823822 0.289840 -0.921952
C16   C     C_3   0.028941 0.171634 0.702448 -0.933415
C17   C     C_3   0.827471 0.298762 0.971154 -0.926481
C18   C     C_3   0.178850 0.706115 0.002103 -0.925468
C19   C     C_3   0.193434 0.961214 0.736678 -0.934434
C20   C     C_3   0.805915 0.039141 0.265764 -0.926437
C21   C     C_3   0.734228 0.198122 0.947680 -0.927589
C22   C     C_3   0.269934 0.804883 0.030793 -0.930980
C23   C     C_3   0.966247 0.731662 0.189948 -0.930777
C24   C     C_R   0.954331 0.324587 0.457191 -0.003796
C25   C     C_3   0.051601 0.263969 0.804010 -0.931383
C26   C     C_3   0.388351 0.145348 0.745608 -0.853851
C27   C     C_3   0.613148 0.864854 0.253711 -0.841580
C28   C     C_3   0.141379 0.745191 0.384571 -0.893955
C29   C     C_3   0.872035 0.249869 0.616748 -0.837917
C30   C     C_3   0.741350 0.391245 0.126496 -0.863257
C31   C     C_3   0.253637 0.610149 0.851709 -0.845506
C32   C     C_3   0.258457 0.850809 0.610619 -0.864470
C33   C     C_3   0.739687 0.151560 0.392030 -0.905247
C34   C     C_3   0.603495 0.258726 0.839879 -0.865864
C35   C     C_R   0.455714 0.980814 0.457552 0.018678
C36   C     C_3   0.398929 0.734040 0.141987 -0.889595
C37   C     C_3   0.850852 0.607924 0.259306 -0.861764
C38   C     C_3   0.159214 0.393901 0.742264 -0.869586
C39   C     C_R   0.537782 0.032020 0.538854 0.018044
C40   C     C_R   0.983817 0.455958 0.455853 0.018205
C41   C     C_R   0.035331 0.538196 0.536907 0.017036
C42   C     C_R   0.462778 0.463274 0.958877 0.018670
C43   C     C_R   0.546201 0.546103 0.006224 0.018934
C44   C     C_R   0.964383 0.179357 0.436970 0.933046
C45   C     C_R   0.671529 0.054442 0.540929 -0.001940
C46   C     C_R   0.033520 0.821050 0.563510 0.927345
C47   C     C_R   0.178228 0.435448 0.969330 0.929017
C48   C     C_R   0.822078 0.565051 0.028615 0.928820
C49   C     C_R   0.437184 0.963802 0.179496 0.929507
C50   C     C_R   0.563443 0.033501 0.821128 0.935799
C51   C     C_R   0.564884 0.821632 0.029625 0.928252
C52   C     C_R   0.435725 0.178548 0.968330 0.931056
C53   C     C_R   0.035851 0.562603 0.820756 0.924113
C54   C     C_R   0.963463 0.437368 0.179537 0.926457
C55   C     C_R   0.820999 0.034116 0.563019 0.921262
C56   C     C_R   0.947811 0.457993 0.327326 -0.001743
C57   C     C_R   0.179435 0.963502 0.437435 0.930426
C58   C     C_R   0.412477 0.960749 0.414019 -0.020512
C59   C     C_R   0.583450 0.046635 0.583936 -0.012278
C60   C     C_R   0.963214 0.412439 0.412923 -0.021868
C61   C     C_R   0.050300 0.583462 0.582017 -0.011138
C62   C     C_R   0.416216 0.416695 0.948016 -0.008926
C63   C     C_R   0.590768 0.590260 0.023575 -0.014476
C64   C     C_R   0.278595 0.941118 0.408954 -0.141502
C65   C     C_R   0.724551 0.042910 0.595985 -0.137146
C66   C     C_R   0.940653 0.408788 0.279371 -0.136817
C67   C     C_R   0.062074 0.540065 0.669215 -0.001401
C68   C     C_R   0.048148 0.595128 0.722946 -0.142861
C69   C     C_R   0.401858 0.274318 0.959684 -0.137659
C70   C     C_R   0.600425 0.727449 0.031298 -0.135706
C71   C     C_R   0.596237 0.043832 0.724404 -0.143136
C72   C     C_R   0.408183 0.941628 0.279035 -0.140437
C73   C     C_R   0.728454 0.600373 0.029535 -0.135805
C74   C     C_R   0.273711 0.401679 0.961000 -0.137534
C75   C     C_R   0.045083 0.724117 0.595260 -0.146578
C76   C     C_R   0.943597 0.278166 0.408327 -0.143936
C77   C     C_R   0.446683 0.068150 0.705040 0.200631
C78   C     C_R   0.458077 0.329040 0.940466 -0.008455
C79   C     C_R   0.550298 0.942592 0.292489 0.202015
C80   C     C_R   0.062976 0.707442 0.445943 0.210693
C81   C     C_R   0.949297 0.289682 0.551001 0.201189
C82   C     C_R   0.709980 0.453258 0.043568 0.208282
C83   C     C_R   0.294820 0.552034 0.929398 0.197104
C84   C     C_R   0.295697 0.931609 0.554641 0.208915
C85   C     C_R   0.702301 0.071950 0.445648 0.213155
C86   C     C_R   0.553264 0.299651 0.918151 0.202552
C87   C     C_R   0.451724 0.703330 0.057701 0.215587
C88   C     C_R   0.931191 0.552813 0.296762 0.208184
C89   C     C_R   0.546827 0.675343 0.037552 -0.005506
C90   C     C_R   0.082353 0.445123 0.699583 0.201844
C91   C     C_R   0.324521 0.925595 0.324850 0.088847
C92   C     C_R   0.688709 0.018656 0.688884 0.089852
C93   C     C_R   0.925423 0.325079 0.325109 0.088690
C94   C     C_R   0.019416 0.687283 0.688027 0.103974
C95   C     C_R   0.309026 0.308910 0.987515 0.071500
C96   C     C_R   0.693226 0.692951 0.010375 0.066037
C97   C     C_R   0.666038 0.042097 0.402874 0.016979
C98   C     C_R   0.329604 0.966236 0.595768 0.012576
C99   C     C_R   0.052511 0.401290 0.663730 0.016768
C100  C     C_R   0.540930 0.055446 0.671864 -0.008324
C101  C     C_R   0.965862 0.594074 0.330051 0.012309
C102  C     C_R   0.409324 0.669879 0.024111 0.013909
C103  C     C_R   0.598128 0.336785 0.945241 0.015688
C104  C     C_R   0.586613 0.983141 0.323986 0.012839
C105  C     C_R   0.407133 0.031361 0.672165 0.016482
C106  C     C_R   0.329524 0.591884 0.963723 0.016460
C107  C     C_R   0.678206 0.416643 0.003232 0.014603
C108  C     C_R   0.990645 0.322063 0.586106 0.014607
C109  C     C_R   0.026463 0.673217 0.408016 0.017288
C110  C     C_R   0.710469 0.031845 0.314103 0.194685
C111  C     C_R   0.456880 0.950236 0.326582 -0.006076
C112  C     C_R   0.285801 0.976329 0.684908 0.197504
C113  C     C_R   0.042826 0.312581 0.708495 0.195266
C114  C     C_R   0.975425 0.682912 0.285274 0.195549
C115  C     C_R   0.319999 0.712790 0.016501 0.197687
C116  C     C_R   0.686647 0.293027 0.954995 0.193524
C117  C     C_R   0.668092 0.007229 0.273103 0.192407
C118  C     C_R   0.326187 0.006225 0.723755 0.193558
C119  C     C_R   0.279250 0.671886 0.989517 0.192690
C120  C     C_R   0.727745 0.335169 0.980126 0.192356
C121  C     C_R   0.016473 0.271905 0.667055 0.191735
C122  C     C_R   0.677676 0.547091 0.033180 -0.009373
C123  C     C_R   0.001477 0.723682 0.326703 0.190973
C124  C     C_R   0.541091 0.996791 0.410254 -0.039373
C125  C     C_R   0.451876 0.017566 0.585768 -0.040406
C126  C     C_R   0.002674 0.408575 0.540466 -0.038697
C127  C     C_R   0.016942 0.585524 0.452205 -0.039724
C128  C     C_R   0.416682 0.548408 0.974114 -0.040244
C129  C     C_R   0.592523 0.461424 0.989966 -0.039346
C130  C     C_R   0.581877 0.023235 0.450579 -0.043402
C131  C     C_R   0.411558 0.989515 0.546102 -0.043176
C132  C     C_R   0.457668 0.589038 0.999994 -0.043914
H1    H     H_    0.347431 0.833795 0.254201 0.231032
H2    H     H_    0.887684 0.777854 0.693578 0.216482
H3    H     H_    0.891631 0.687935 0.790645 0.220035
H4    H     H_    0.938431 0.777009 0.772397 0.259747
H5    H     H_    0.193159 0.286221 0.106051 0.224328
H6    H     H_    0.223323 0.222403 0.028384 0.254659
H7    H     H_    0.287649 0.192430 0.106010 0.224618
H8    H     H_    0.724899 0.816624 0.912653 0.233419
H9    H     H_    0.772581 0.771522 0.005913 0.256995
H10   H     H_    0.815978 0.726304 0.910969 0.232807
H11   H     H_    0.261340 0.940366 0.861942 0.247883
H12   H     H_    0.252941 0.835356 0.348460 0.229675
H13   H     H_    0.344534 0.982098 0.854002 0.257180
H14   H     H_    0.237859 0.060507 0.835884 0.234909
H15   H     H_    0.730092 0.078640 0.136204 0.249567
H16   H     H_    0.757985 0.958450 0.157772 0.232299
H17   H     H_    0.649554 0.033142 0.142346 0.257747
H18   H     H_    0.934213 0.859545 0.260942 0.247212
H19   H     H_    0.976030 0.853643 0.344294 0.256655
H20   H     H_    0.054219 0.836978 0.236631 0.235323
H21   H     H_    0.090007 0.138401 0.725793 0.256440
H22   H     H_    0.969709 0.155706 0.759491 0.234883
H23   H     H_    0.247322 0.928395 0.245979 0.269125
H24   H     H_    0.041417 0.142710 0.648358 0.257221
H25   H     H_    0.863594 0.274469 0.910292 0.251911
H26   H     H_    0.857332 0.351630 0.959976 0.256447
H27   H     H_    0.839761 0.242822 0.032470 0.233541
H28   H     H_    0.143999 0.732276 0.061643 0.247845
H29   H     H_    0.164096 0.760122 0.940595 0.233882
H30   H     H_    0.149386 0.651347 0.018322 0.258925
H31   H     H_    0.156127 0.995386 0.790367 0.241530
H32   H     H_    0.150583 0.989671 0.690477 0.250496
H33   H     H_    0.199558 0.888547 0.770388 0.243305
H34   H     H_    0.805859 0.904311 0.706064 0.232930
H35   H     H_    0.841316 0.002928 0.213592 0.240683
H36   H     H_    0.805679 0.110557 0.231248 0.241748
H37   H     H_    0.846660 0.007389 0.314358 0.250161
H38   H     H_    0.787611 0.162707 0.982461 0.241167
H39   H     H_    0.686323 0.156504 0.981885 0.250388
H40   H     H_    0.765982 0.199384 0.875425 0.241910
H41   H     H_    0.216230 0.841660 0.996548 0.240578
H42   H     H_    0.237634 0.798345 0.104154 0.241892
H43   H     H_    0.316175 0.847921 0.000969 0.249912
H44   H     H_    0.003886 0.782886 0.152762 0.240842
H45   H     H_    0.762759 0.961266 0.789936 0.262976
H46   H     H_    0.995454 0.684040 0.148820 0.250766
H47   H     H_    0.894700 0.766663 0.192301 0.240347
H48   H     H_    0.017171 0.210105 0.840293 0.241989
H49   H     H_    0.123396 0.232437 0.802142 0.242014
H50   H     H_    0.018520 0.311101 0.845961 0.250397
H51   H     H_    0.354021 0.122511 0.818757 0.263836
H52   H     H_    0.428944 0.187916 0.737228 0.218166
H53   H     H_    0.336381 0.189099 0.709709 0.224617
H54   H     H_    0.576322 0.818454 0.262841 0.221314
H55   H     H_    0.647746 0.887425 0.180571 0.260210
H56   H     H_    0.705231 0.890076 0.786080 0.214376
H57   H     H_    0.665160 0.824721 0.290257 0.222760
H58   H     H_    0.119704 0.818963 0.355479 0.269164
H59   H     H_    0.189422 0.727132 0.423057 0.219199
H60   H     H_    0.178618 0.714968 0.327520 0.234900
H61   H     H_    0.824373 0.258312 0.581606 0.221088
H62   H     H_    0.895070 0.177438 0.651342 0.259558
H63   H     H_    0.833077 0.285507 0.669538 0.221985
H64   H     H_    0.813277 0.353766 0.108564 0.261436
H65   H     H_    0.730117 0.429953 0.171925 0.217104
H66   H     H_    0.701760 0.341506 0.166325 0.228539
H67   H     H_    0.837273 0.348695 0.248152 0.232091
H68   H     H_    0.257757 0.568987 0.811830 0.216668
H69   H     H_    0.182253 0.646855 0.874898 0.263310
H70   H     H_    0.291462 0.660167 0.804618 0.223566
H71   H     H_    0.184993 0.870262 0.642145 0.265204
H72   H     H_    0.271943 0.807800 0.568484 0.220171
H73   H     H_    0.292572 0.807420 0.664302 0.228994
H74   H     H_    0.724557 0.192533 0.436765 0.217125
H75   H     H_    0.813140 0.130425 0.361347 0.272084
H76   H     H_    0.706918 0.196243 0.337510 0.239036
H77   H     H_    0.636965 0.186098 0.862237 0.268421
H78   H     H_    0.923977 0.242688 0.254199 0.269440
H79   H     H_    0.557259 0.267003 0.803166 0.215604
H80   H     H_    0.654791 0.293877 0.789792 0.230194
H81   H     H_    0.443806 0.721150 0.182188 0.217398
H82   H     H_    0.363482 0.806519 0.125163 0.266513
H83   H     H_    0.348929 0.695584 0.186864 0.235285
H84   H     H_    0.870897 0.639474 0.185133 0.265698
H85   H     H_    0.807483 0.565825 0.273299 0.221245
H86   H     H_    0.807802 0.661180 0.293323 0.228807
H87   H     H_    0.197544 0.439157 0.732659 0.215685
H88   H     H_    0.136027 0.361803 0.815986 0.269187
H89   H     H_    0.826990 0.263562 0.350691 0.228821
H90   H     H_    0.207510 0.341703 0.708563 0.230029
O1    O     O_R   0.982940 0.138950 0.510160 -0.630960
O2    O     O_R   0.982940 0.510160 0.138950 -0.629263
O3    O     O_R   0.861050 0.017060 0.489840 -0.631302
O4    O     O_R   0.138950 0.982940 0.510160 -0.629723
O5    O     O_R   0.867700 0.025880 0.612340 -0.623233
O6    O     O_R   0.132300 0.974120 0.387660 -0.622189
O7    O     O_R   0.025880 0.612340 0.867700 -0.621371
O8    O     O_R   0.974120 0.387660 0.132300 -0.620370
O9    O     O_R   0.612340 0.867700 0.025880 -0.632777
O10   O     O_R   0.387660 0.132300 0.974120 -0.628721
O11   O     O_R   0.387660 0.974120 0.132300 -0.623426
O12   O     O_R   0.017060 0.861050 0.489840 -0.634955
O13   O     O_R   0.612340 0.025880 0.867700 -0.632528
O14   O     O_R   0.132300 0.387660 0.974120 -0.631101
O15   O     O_R   0.867700 0.612340 0.025880 -0.633878
O16   O     O_R   0.974120 0.132300 0.387660 -0.623525
O17   O     O_R   0.025880 0.867700 0.612340 -0.625369
O18   O     O_R   0.138950 0.510160 0.982940 -0.631831
O19   O     O_R   0.861050 0.489840 0.017060 -0.632893
O20   O     O_R   0.510160 0.982940 0.138950 -0.630007
O21   O     O_R   0.489840 0.017060 0.861050 -0.632303
O22   O     O_R   0.489840 0.861050 0.017060 -0.630598
O23   O     O_R   0.510160 0.138950 0.982940 -0.629023
O24   O     O_R   0.017060 0.489840 0.861050 -0.629368
Zn1   Zn    Zn3+2 0.004880 0.004880 0.583590 0.905635
Zn2   Zn    Zn3+2 0.995120 0.995120 0.416410 0.905761
Zn3   Zn    Zn3+2 0.004880 0.583590 0.004880 0.898140
Zn4   Zn    Zn3+2 0.995120 0.416410 0.995120 0.900954
Zn5   Zn    Zn3+2 0.583590 0.004880 0.004880 0.893999
Zn6   Zn    Zn3+2 0.416410 0.995120 0.995120 0.900817

loop_
_geom_bond_atom_site_label_1
_geom_bond_atom_site_label_2
_ccdc_geom_bond_type
C11   C96   S    
C65   C92   A    
C28   H59   S    
C33   H76   S    
C30   C82   S    
C40   C60   A    
C14   H16   S    
C106  C119  A    
C41   C127  A    
C37   C88   S    
C45   C85   A    
C51   O22   A    
C37   H85   S    
C108  C121  A    
C11   H8    S    
O9    Zn5   S    
C52   O23   A    
C22   H41   S    
C15   H19   S    
C49   O20   A    
C2    C83   A    
C25   H48   S    
C43   C63   A    
O4    Zn1   S    
C3    C42   A    
C19   C112  S    
C1    C84   A    
C32   C84   S    
C15   C123  S    
C35   C58   A    
C39   C125  A    
O20   Zn5   S    
C46   O12   A    
C35   C124  A    
C102  C132  A    
C97   C130  A    
C47   O14   A    
C6    H1    S    
C27   C79   S    
C36   H83   S    
C36   H81   S    
C18   H29   S    
C29   H61   S    
C56   C88   A    
C4    C41   A    
C12   H14   S    
C6    C91   S    
C106  C128  A    
C31   C83   S    
C7    H45   S    
C77   C100  A    
O17   Zn1   S    
C34   C86   S    
C55   O5    A    
C44   C76   S    
C53   C68   S    
C33   C85   S    
C53   O24   A    
C31   H68   S    
C31   H70   S    
C49   O11   A    
C102  C115  A    
C17   C120  S    
C36   H82   S    
C57   O6    A    
C109  C127  A    
C45   C59   A    
C71   C92   A    
C13   C75   A    
C23   H46   S    
C49   C72   S    
C80   C109  A    
C16   H24   S    
O10   Zn6   S    
C10   H5    S    
O13   Zn5   S    
C41   C61   A    
C17   H25   S    
C52   C69   S    
C37   H84   S    
C23   H47   S    
C6    H23   S    
C2    C74   A    
C42   C128  A    
C19   H32   S    
O12   Zn2   S    
C26   H51   S    
C78   C86   A    
O3    Zn2   S    
C20   H37   S    
O23   Zn5   S    
C81   C108  A    
C40   C126  A    
O18   Zn3   S    
C101  C114  A    
O15   Zn3   S    
C69   C78   A    
C37   H86   S    
C21   C116  S    
C8    H78   S    
C86   C103  A    
C128  C132  A    
C110  C117  A    
C46   C75   S    
C55   C65   S    
C17   H27   S    
C25   H49   S    
C22   H43   S    
C36   C87   S    
C20   H36   S    
C98   C131  A    
C5    C101  A    
C33   H74   S    
C26   C77   S    
C98   C112  A    
C8    C93   S    
C51   O9    A    
C58   C111  A    
C38   H88   S    
C7    H56   S    
C43   C129  A    
C18   H28   S    
C61   C67   A    
C59   C100  A    
C22   H42   S    
C44   O1    A    
C72   C91   A    
C13   C80   A    
C52   O10   A    
C27   H55   S    
C23   H44   S    
C10   H6    S    
O1    Zn1   S    
C90   C99   A    
C29   H63   S    
C16   H22   S    
C14   H15   S    
C67   C90   A    
C68   C94   A    
C107  C129  A    
C56   C60   A    
C28   H58   S    
C27   H54   S    
C12   H13   S    
C32   H72   S    
C70   C96   A    
C24   C81   A    
C29   C81   S    
C21   H38   S    
C34   H77   S    
C25   C113  S    
C76   C93   A    
C87   C102  A    
C125  C131  A    
C54   O2    A    
C20   H35   S    
C24   C60   A    
C14   C117  S    
C39   C59   A    
C5    C127  A    
C88   C101  A    
C124  C130  A    
C50   C71   S    
C19   H31   S    
C46   O17   A    
C17   H26   S    
C11   H9    S    
C31   H69   S    
C34   H80   S    
O2    Zn3   S    
C66   C93   A    
C12   C118  S    
C57   O4    A    
C9    H3    S    
C67   C68   A    
C30   H66   S    
C7    H34   S    
C50   O21   A    
C115  C119  A    
C113  C121  A    
C51   C70   S    
C45   C65   A    
C48   C73   S    
C20   C110  S    
C79   C104  A    
C5    C40   A    
C70   C89   A    
C10   H7    S    
C114  C123  A    
C6    H12   S    
C1    C64   A    
C35   C131  A    
C107  C120  A    
C74   C95   A    
C63   C122  A    
C105  C118  A    
C25   H50   S    
C57   C64   S    
C104  C117  A    
O24   Zn4   S    
C3    C103  A    
C16   C121  S    
C42   C62   A    
C33   H75   S    
O21   Zn6   S    
O22   Zn6   S    
C3    C129  A    
C38   H87   S    
C62   C78   A    
C24   C76   A    
O19   Zn4   S    
C47   C74   S    
O14   Zn4   S    
C48   O19   A    
C69   C95   A    
C44   O16   A    
C99   C113  A    
C30   H64   S    
C12   H11   S    
C54   C66   S    
C39   C130  A    
C105  C125  A    
C21   H40   S    
C19   H33   S    
C71   C100  A    
C38   C90   S    
C73   C96   A    
C83   C106  A    
C79   C111  A    
C4    C126  A    
C84   C98   A    
C38   H90   S    
C32   H71   S    
C87   C89   A    
C103  C116  A    
C32   H73   S    
C21   H39   S    
C1    C58   A    
C9    H2    S    
C23   C114  S    
C112  C118  A    
C97   C110  A    
C18   H30   S    
C55   O3    A    
O6    Zn2   S    
C22   C115  S    
C10   C95   S    
C82   C107  A    
C56   C66   A    
C7    C92   S    
C18   C119  S    
C14   H17   S    
C77   C105  A    
C26   H53   S    
C43   C132  A    
C63   C89   A    
C50   O13   A    
C28   C80   S    
C11   H10   S    
C82   C122  A    
C72   C111  A    
C85   C97   A    
C34   H79   S    
O5    Zn1   S    
C47   O18   A    
C9    H4    S    
C116  C120  A    
C48   O15   A    
C30   H65   S    
C13   C61   A    
O11   Zn6   S    
C73   C122  A    
C4    C99   A    
O16   Zn2   S    
C16   H21   S    
C28   H60   S    
C8    H67   S    
C109  C123  A    
C27   H57   S    
C64   C91   A    
C108  C126  A    
C104  C124  A    
O8    Zn4   S    
C15   H20   S    
C2    C62   A    
C9    C94   S    
C54   O8    A    
C15   H18   S    
O7    Zn3   S    
C8    H89   S    
C29   H62   S    
C75   C94   A    
C53   O7    A    
C26   H52   S    
