data_mof_unit_64124.cif
_audit_creation_date              2012-10-26T21:22:50-0400
_audit_creation_method            fapswitch 2.2
_symmetry_space_group_name_H-M    P1
_symmetry_Int_Tables_number       1
_space_group_crystal_system       triclinic
_cell_length_a                    19.412906
_cell_length_b                    18.238808
_cell_length_c                    15.900787
_cell_angle_alpha                 89.985746
_cell_angle_beta                  91.721638
_cell_angle_gamma                 89.931717
_cell_volume                      5627.4183961

loop_
_atom_site_label
_atom_site_type_symbol
_atom_type_description
_atom_site_fract_x
_atom_site_fract_y
_atom_site_fract_z
_atom_type_partial_charge
Br1   Br    Br    0.085464 0.640667 0.586246 -0.372362
Br2   Br    Br    0.080960 0.359644 0.410589 -0.372069
Br3   Br    Br    0.307702 0.479225 0.680727 -0.315596
Br4   Br    Br    0.299496 0.515869 0.316810 -0.221641
C1    C     C_R   0.368027 0.499995 0.499470 0.605450
C2    C     C_R   0.815868 0.565656 0.486609 -0.086941
C3    C     C_R   0.852923 0.500204 0.499266 0.032323
C4    C     C_R   0.708150 0.500019 0.499883 0.022387
C5    C     C_R   0.966418 0.557827 0.536667 -0.067912
C6    C     C_R   0.964480 0.442708 0.460719 -0.074688
C7    C     C_R   0.499787 0.500012 0.340205 0.573384
C8    C     C_R   0.038200 0.558321 0.536275 0.158643
C9    C     C_R   0.036271 0.442129 0.460684 0.159737
C10   C     C_R   0.073638 0.500187 0.498410 0.026614
C11   C     C_R   0.928975 0.500262 0.498856 -0.031978
C12   C     C_3   0.572730 0.506047 0.954727 0.334151
C13   C     C_R   0.186864 0.490774 0.574269 -0.027436
C14   C     C_R   0.183491 0.508600 0.423040 -0.033861
C15   C     C_R   0.258666 0.490958 0.574963 0.130285
C16   C     C_R   0.255282 0.507947 0.422794 0.162483
C17   C     C_R   0.293113 0.499864 0.499085 0.036840
C18   C     C_R   0.149189 0.499986 0.498577 0.005039
C19   C     C_R   0.456553 0.722324 0.446321 0.345875
C20   C     C_R   0.456497 0.277939 0.446243 0.346026
C21   C     C_R   0.455956 0.799392 0.445872 -0.149063
C22   C     C_R   0.455869 0.200856 0.445705 -0.148682
C23   C     C_3   0.571205 0.500896 0.052631 -0.279853
C24   C     C_R   0.499402 0.839336 0.500509 -0.060733
C25   C     C_R   0.499279 0.160707 0.500369 -0.060222
C26   C     C_R   0.632468 0.499977 0.500068 0.551028
C27   C     C_R   0.544582 0.799692 0.554577 0.233159
C28   C     C_R   0.544404 0.200144 0.554576 0.234886
C29   C     C_R   0.543943 0.721936 0.553680 0.364359
C30   C     C_R   0.543753 0.277881 0.553825 0.366604
C31   C     C_R   0.485372 0.961501 0.573975 -0.032422
C32   C     C_R   0.485286 0.038573 0.573920 -0.031897
C33   C     C_R   0.496942 0.078274 0.499754 0.058188
C34   C     C_1   0.498138 0.499708 0.824510 0.134708
C35   C     C_R   0.497089 0.921773 0.499858 0.058222
C36   C     C_R   0.506036 0.038616 0.424929 -0.081679
C37   C     C_R   0.506103 0.961401 0.424979 -0.081522
C38   C     C_R   0.500076 0.499988 0.659769 0.592247
C39   C     C_3   0.459408 0.570281 0.047048 0.167181
C40   C     C_3   0.460629 0.428887 0.048018 0.160109
C41   C     C_3   0.465906 0.425916 0.950120 0.135957
C42   C     C_3   0.453929 0.566175 0.948881 0.135246
C43   C     C_1   0.499166 0.499915 0.749162 0.144332
C44   C     C_3   0.495812 0.500073 0.083061 -0.078621
C45   C     C_1   0.497492 0.500102 0.175312 0.044551
C46   C     C_3   0.496999 0.499421 0.916792 -0.020931
C47   C     C_1   0.498728 0.500053 0.250740 0.088692
C48   C     C_R   0.745105 0.434513 0.512104 -0.085418
C49   C     C_R   0.744137 0.565628 0.487321 -0.085914
C50   C     C_R   0.816853 0.434673 0.512263 -0.085663
Cl1   Cl    Cl    0.366903 0.567695 0.906458 -0.318475
Cl2   Cl    Cl    0.374586 0.417125 0.084941 -0.290342
Cl3   Cl    Cl    0.612338 0.590966 0.924956 -0.466533
Cl4   Cl    Cl    0.628142 0.435390 0.915670 -0.456463
Cl5   Cl    Cl    0.388352 0.396607 0.894847 -0.340328
Cl6   Cl    Cl    0.399210 0.678534 0.375360 -0.452114
Cl7   Cl    Cl    0.398912 0.322170 0.375571 -0.454565
Cl8   Cl    Cl    0.604824 0.846728 0.620433 -0.432985
Cl9   Cl    Cl    0.604582 0.152880 0.620485 -0.436347
Cl10  Cl    Cl    0.601309 0.675585 0.623387 -0.421521
Cl11  Cl    Cl    0.600602 0.323992 0.624175 -0.438803
Cl12  Cl    Cl    0.379860 0.592502 0.096811 -0.314400
Cu1   Cu    Cu3+1 0.500000 0.573360 0.499980 1.142124
Cu2   Cu    Cu3+1 0.500000 0.426640 0.499980 1.145387
H1    H     H_    0.160315 0.483665 0.632676 0.192805
H2    H     H_    0.493153 0.617827 0.063516 0.132634
H3    H     H_    0.502263 0.380837 0.935867 0.163416
H4    H     H_    0.476157 0.617641 0.923951 0.167316
H5    H     H_    0.599846 0.547559 0.082147 0.179457
H6    H     H_    0.598109 0.450408 0.075418 0.168334
H7    H     H_    0.718703 0.383156 0.522165 0.187670
H8    H     H_    0.716906 0.616888 0.477204 0.169268
H9    H     H_    0.844104 0.383611 0.523527 0.146926
H10   H     H_    0.842276 0.616772 0.475067 0.140918
H11   H     H_    0.939971 0.602310 0.567249 0.169352
H12   H     H_    0.154323 0.515274 0.364367 0.186714
H13   H     H_    0.936471 0.398234 0.430339 0.159928
H14   H     H_    0.420749 0.828179 0.403202 0.170146
H15   H     H_    0.420642 0.172229 0.403014 0.170617
H16   H     H_    0.476300 0.932745 0.632187 0.170134
H17   H     H_    0.476161 0.067354 0.632100 0.171047
H18   H     H_    0.514427 0.067477 0.366605 0.139451
H19   H     H_    0.514520 0.932512 0.366685 0.139856
H20   H     H_    0.489611 0.380963 0.074378 0.123702
N1    N     N_R   0.500020 0.683620 0.499990 -0.255752
N2    N     N_R   0.500020 0.316380 0.499990 -0.253579
O1    O     O_R   0.400180 0.561980 0.499960 -0.452108
O2    O     O_R   0.400180 0.438020 0.499960 -0.447378
O3    O     O_R   0.500000 0.561980 0.379420 -0.466701
O4    O     O_R   0.500000 0.438020 0.379420 -0.469674
O5    O     O_R   0.599810 0.561930 0.500000 -0.485058
O6    O     O_R   0.599810 0.438070 0.500000 -0.488874
O7    O     O_R   0.499990 0.561930 0.620540 -0.462471
O8    O     O_R   0.499990 0.438070 0.620540 -0.454334

loop_
_geom_bond_atom_site_label_1
_geom_bond_atom_site_label_2
_ccdc_geom_bond_type
C23   C44   S    
C13   H1    S    
C22   H15   S    
C41   H3    S    
C31   C32   A    
C48   H7    S    
C35   C37   A    
C21   C24   A    
Cu2   O6    S    
C32   C33   A    
C15   C17   A    
C20   C22   A    
C25   C28   A    
C6    C11   A    
C38   O8    A    
C2    H10   S    
Cu1   N1    S    
C5    H11   S    
C36   H18   S    
Br2   C9    S    
C26   O6    A    
Cu2   O2    S    
C45   C47   T    
C42   Cl1   S    
Cu2   N2    S    
C19   N1    A    
Br3   C15   S    
C23   H6    S    
C39   C44   S    
C4    C48   A    
C42   H4    S    
C38   C43   S    
C50   H9    S    
C7    O3    A    
C12   C23   S    
C3    C11   S    
C9    C10   A    
Cu1   O5    S    
C27   Cl8   S    
Br1   C8    S    
C30   Cl11  S    
C39   C42   S    
C48   C50   A    
C19   Cl6   S    
C37   H19   S    
C27   C29   A    
Cu1   Cu2   S    
C38   O7    A    
C24   C35   S    
Cu2   O4    S    
C28   C30   A    
C31   C35   A    
C30   N2    A    
C26   O5    A    
C29   N1    A    
C40   Cl2   S    
Cu1   O1    S    
C12   Cl4   S    
C34   C43   T    
C1    O1    A    
C20   Cl7   S    
C7    O4    A    
C44   C45   S    
C8    C10   A    
C39   H2    S    
C21   H14   S    
C49   H8    S    
C2    C49   A    
C29   Cl10  S    
C40   C41   S    
C41   Cl5   S    
C14   C18   A    
C24   C27   A    
C28   Cl9   S    
C12   C46   S    
C6    C9    A    
C20   N2    A    
C4    C49   A    
C31   H16   S    
C2    C3    A    
C34   C46   S    
C32   H17   S    
C33   C36   A    
C42   C46   S    
C6    H13   S    
C13   C18   A    
C4    C26   S    
C10   C18   S    
C5    C11   A    
C23   H5    S    
C41   C46   S    
C39   Cl12  S    
C13   C15   A    
C14   C16   A    
C12   Cl3   S    
C19   C21   A    
C5    C8    A    
Cu2   O8    S    
C1    O2    A    
C7    C47   S    
Cu1   O7    S    
Br4   C16   S    
C1    C17   S    
C16   C17   A    
C22   C25   A    
C14   H12   S    
C25   C33   S    
Cu1   O3    S    
C36   C37   A    
C3    C50   A    
C40   H20   S    
C40   C44   S    
