data_mof_unit_33190.cif
_audit_creation_date              2012-12-10T17:05:44-0500
_audit_creation_method            fapswitch 2.2
_symmetry_space_group_name_H-M    P1
_symmetry_Int_Tables_number       1
_space_group_crystal_system       triclinic
_cell_length_a                    25.821559
_cell_length_b                    25.914605
_cell_length_c                    18.335126
_cell_angle_alpha                 89.914497
_cell_angle_beta                  135.009899
_cell_angle_gamma                 89.309096
_cell_volume                      8672.52780402

loop_
_atom_site_label
_atom_site_type_symbol
_atom_type_description
_atom_site_fract_x
_atom_site_fract_y
_atom_site_fract_z
_atom_type_partial_charge
C1    C     C_R   0.890760 0.749743 0.779964 0.774474
C2    C     C_R   0.512768 0.219164 0.573838 -0.086672
C3    C     C_R   0.245859 0.526869 0.433576 -0.207186
C4    C     C_R   0.892637 0.538128 0.653588 0.102246
C5    C     C_R   0.851314 0.452192 0.697247 0.129245
C6    C     C_R   0.376654 0.030692 0.710612 0.066668
C7    C     C_R   0.296212 0.944535 0.673532 0.115641
C8    C     C_R   0.944907 0.514743 0.754002 0.119153
C9    C     C_R   0.922969 0.472704 0.777638 0.149621
C10   C     C_R   0.411477 0.988889 0.785196 0.200783
C11   C     C_R   0.365901 0.952172 0.773938 0.131968
C12   C     C_R   0.804831 0.473353 0.595854 -0.042788
C13   C     C_R   0.010270 0.282012 0.570063 -0.098545
C14   C     C_R   0.818406 0.523262 0.584319 -0.037675
C15   C     C_R   0.279708 0.970773 0.591368 -0.033581
C16   C     C_R   0.305268 0.021124 0.607468 -0.081588
C17   C     C_R   0.758409 0.552639 0.495999 -0.133725
C18   C     C_R   0.744433 0.447131 0.505426 -0.120556
C19   C     C_R   0.263738 0.052981 0.515043 -0.114278
C20   C     C_R   0.243997 0.946579 0.497611 -0.119295
C21   C     C_R   0.701853 0.526578 0.405664 0.127124
C22   C     C_R   0.687969 0.475720 0.412880 0.154982
C23   C     C_R   0.231534 0.028933 0.422759 0.161415
C24   C     C_R   0.010664 0.716537 0.569333 -0.080817
C25   C     C_R   0.215826 0.976069 0.410839 0.132948
C26   C     C_R   0.753545 0.889999 0.503921 0.785400
C27   C     C_R   0.753367 0.109975 0.503605 0.791638
C28   C     C_R   0.248073 0.390307 0.499047 0.800291
C29   C     C_R   0.254534 0.610013 0.504740 0.793388
C30   C     C_R   0.893361 0.752403 0.505547 0.811405
C31   C     C_R   0.892872 0.247577 0.504711 0.800307
C32   C     C_R   0.393363 0.252616 0.505648 0.815238
C33   C     C_R   0.389256 0.750375 0.498926 0.806916
C34   C     C_R   0.610540 0.749898 0.500637 0.926500
C35   C     C_R   0.554962 0.709069 0.554657 -0.060320
C36   C     C_R   0.605763 0.245742 0.491360 0.845904
C37   C     C_R   0.105880 0.254582 0.491257 0.836766
C38   C     C_R   0.105553 0.745707 0.490828 0.851876
C39   C     C_R   0.608968 0.668235 0.610430 0.457947
C40   C     C_R   0.589834 0.157620 0.584129 0.523970
C41   C     C_R   0.086689 0.342178 0.580532 0.545849
C42   C     C_R   0.084904 0.655217 0.573657 0.519972
C43   C     C_R   0.603479 0.628454 0.656484 -0.292801
C44   C     C_R   0.608973 0.133712 0.670403 -0.391155
C45   C     C_R   0.104828 0.366517 0.663890 -0.379038
C46   C     C_R   0.549742 0.205301 0.546234 -0.036302
C47   C     C_R   0.103367 0.629143 0.657429 -0.379724
C48   C     C_R   0.549388 0.629086 0.655839 0.536728
C49   C     C_R   0.587967 0.155702 0.715680 0.542447
C50   C     C_R   0.082780 0.345615 0.709055 0.524390
C51   C     C_R   0.082990 0.649314 0.704635 0.539737
C52   C     C_3   0.502261 0.831608 0.390354 -0.413207
C53   C     C_3   0.545444 0.878605 0.457614 -0.849053
C54   C     C_3   0.451357 0.287526 0.306730 -0.375802
C55   C     C_3   0.370976 0.272827 0.217683 -0.910218
C56   C     C_3   0.952555 0.214377 0.306035 -0.358250
C57   C     C_R   0.047229 0.295340 0.542559 -0.062505
C58   C     C_3   0.871558 0.229167 0.215468 -0.929715
C59   C     C_3   0.953292 0.793274 0.310579 -0.368214
C60   C     C_3   0.871754 0.782383 0.219420 -0.911554
C61   C     C_3   0.287845 0.642077 0.897036 -0.377862
C62   C     C_3   0.290668 0.594455 0.949326 -0.890441
C63   C     C_3   0.465748 0.444823 0.905001 -0.400058
C64   C     C_3   0.539923 0.468043 0.961490 -0.889014
C65   C     C_3   0.797786 0.134021 0.906422 -0.387927
C66   C     C_3   0.802298 0.092101 0.969616 -0.875859
C67   C     C_3   0.031338 0.928329 0.917293 -0.415963
C68   C     C_R   0.047009 0.703640 0.540343 -0.044519
C69   C     C_3   0.112509 0.930204 0.978759 -0.867827
C70   C     C_3   0.684219 0.542757 0.310660 -0.448221
C71   C     C_3   0.734128 0.514485 0.305985 -0.889829
C72   C     C_3   0.611528 0.454772 0.324222 -0.387396
C73   C     C_3   0.571928 0.446422 0.357404 -0.836246
C74   C     C_3   0.225648 0.057385 0.344312 -0.427123
C75   C     C_3   0.287917 0.040853 0.355377 -0.882405
C76   C     C_3   0.156524 0.955480 0.302379 -0.416723
C77   C     C_3   0.082403 0.977271 0.255087 -0.878112
C78   C     C_3   0.917189 0.568673 0.610790 -0.304821
C79   C     C_R   0.555095 0.749489 0.502069 -0.128545
C80   C     C_3   0.964380 0.536172 0.605685 -0.873186
C81   C     C_3   0.819465 0.413876 0.720437 -0.368330
C82   C     C_3   0.809618 0.437502 0.786492 -0.886544
C83   C     C_3   0.415417 0.081423 0.735099 -0.308136
C84   C     C_3   0.491474 0.091398 0.841806 -0.904697
C85   C     C_3   0.238490 0.910950 0.651579 -0.391663
C86   C     C_3   0.207671 0.935888 0.690224 -0.885880
C87   C     C_3   0.021545 0.537201 0.836484 -0.352638
C88   C     C_3   0.082878 0.501449 0.868593 -0.854873
C89   C     C_3   0.977233 0.447121 0.884939 -0.337306
C90   C     C_R   0.542573 0.238401 0.477802 -0.136413
C91   C     C_3   0.994501 0.480673 0.968633 -0.911132
C92   C     C_3   0.492985 0.975222 0.858292 -0.389995
C93   C     C_3   0.513771 0.966674 0.798947 -0.846268
C94   C     C_3   0.393504 0.919544 0.865746 -0.412362
C95   C     C_3   0.419553 0.953251 0.954524 -0.892388
C96   C     C_3   0.731607 0.676170 0.713677 -0.309363
C97   C     C_3   0.635773 0.085692 0.563396 -0.247740
C98   C     C_3   0.043962 0.394353 0.447494 -0.378190
C99   C     C_3   0.096810 0.580819 0.513897 -0.302599
C100  C     C_3   0.172555 0.385559 0.867289 -0.349328
C101  C     C_R   0.041874 0.262486 0.476184 -0.157185
C102  C     C_3   0.121739 0.655827 0.863730 -0.382088
C103  C     C_3   0.523916 0.601630 0.748844 -0.318971
C104  C     C_3   0.636229 0.167572 0.878846 -0.353943
C105  C     C_3   0.386646 0.832494 0.390543 -0.426271
C106  C     C_3   0.317557 0.815489 0.282116 -0.884577
C107  C     C_3   0.402668 0.338645 0.399566 -0.373759
C108  C     C_3   0.431526 0.374171 0.487957 -0.838416
C109  C     C_3   0.905288 0.163079 0.400005 -0.367711
C110  C     C_3   0.936186 0.126778 0.489571 -0.853219
C111  C     C_3   0.908535 0.841169 0.410950 -0.365744
C112  C     C_R   0.887150 0.252301 0.779847 0.779016
C113  C     C_R   0.041670 0.738555 0.475729 -0.143253
C114  C     C_3   0.939958 0.873379 0.504333 -0.863749
C115  C     C_3   0.558875 0.629958 0.143937 -0.378380
C116  C     C_3   0.545598 0.593875 0.065905 -0.939121
C117  C     C_3   0.482080 0.340099 0.146634 -0.333199
C118  C     C_3   0.408194 0.367125 0.087873 -0.960549
C119  C     C_3   0.070303 0.128046 0.149303 -0.376679
C120  C     C_3   0.058482 0.090123 0.074443 -0.927184
C121  C     C_3   0.000748 0.856875 0.137208 -0.345876
C122  C     C_3   0.928708 0.888086 0.065829 -0.920651
C123  C     C_R   0.501443 0.789865 0.448724 0.103983
C124  C     C_R   0.481714 0.272433 0.411879 0.095516
C125  C     C_R   0.981787 0.229239 0.410411 0.096400
C126  C     C_R   0.982601 0.774450 0.413608 0.091960
C127  C     C_R   0.446460 0.790273 0.448196 0.135322
C128  C     C_R   0.444642 0.286942 0.439304 0.156102
C129  C     C_R   0.945079 0.214583 0.438067 0.159413
C130  C     C_R   0.946638 0.788184 0.443126 0.155036
C131  C     C_R   0.445789 0.749880 0.499426 -0.061081
C132  C     C_R   0.391398 0.250803 0.780086 0.782391
C133  C     C_R   0.453414 0.255243 0.511130 -0.107396
C134  C     C_R   0.952584 0.245727 0.509047 -0.103854
C135  C     C_R   0.953475 0.754478 0.511028 -0.102540
C136  C     C_R   0.494527 0.666413 0.088479 0.173242
C137  C     C_R   0.503766 0.342774 0.088261 0.140847
C138  C     C_R   0.002955 0.162009 0.091125 0.169146
C139  C     C_R   0.028199 0.847056 0.087566 0.132657
C140  C     C_R   0.428210 0.644464 0.043770 -0.156616
C141  C     C_R   0.496790 0.390719 0.046017 -0.191810
C142  C     C_R   0.938179 0.137971 0.048046 -0.161598
C143  C     C_R   0.386806 0.752703 0.779594 0.779332
C144  C     C_R   0.036352 0.889217 0.048222 -0.207498
C145  C     C_R   0.361299 0.665317 0.952358 0.160908
C146  C     C_R   0.475034 0.393197 0.951254 0.199100
C147  C     C_R   0.869887 0.158163 0.957900 0.160570
C148  C     C_R   0.017227 0.884724 0.955550 0.195551
C149  C     C_R   0.610941 0.748756 0.219440 0.770006
C150  C     C_R   0.608147 0.250078 0.219195 0.802871
C151  C     C_R   0.111495 0.248433 0.219673 0.779120
C152  C     C_R   0.108536 0.750166 0.219096 0.799912
C153  C     C_R   0.362938 0.706036 0.903725 -0.245999
C154  C     C_R   0.496723 0.669325 0.602376 -0.293906
C155  C     C_R   0.456027 0.347469 0.896768 -0.216700
C156  C     C_R   0.868553 0.199300 0.906855 -0.248717
C157  C     C_R   0.981961 0.839915 0.897637 -0.234009
C158  C     C_R   0.430168 0.726773 0.947531 0.045094
C159  C     C_R   0.470423 0.299151 0.944425 0.047156
C160  C     C_R   0.934106 0.222364 0.948806 0.047877
C161  C     C_R   0.982011 0.796207 0.943659 0.060731
C162  C     C_R   0.493751 0.714012 0.050092 0.059303
C163  C     C_R   0.507686 0.297461 0.048638 0.039434
C164  C     C_R   0.998726 0.210409 0.051243 0.057221
C165  C     C_R   0.537775 0.197350 0.665043 -0.256234
C166  C     C_R   0.019685 0.797906 0.047698 0.042659
C167  C     C_R   0.554815 0.747183 0.105911 -0.088474
C168  C     C_R   0.547253 0.251034 0.106322 -0.096453
C169  C     C_R   0.056807 0.246050 0.106522 -0.092939
C170  C     C_R   0.048856 0.750938 0.105959 -0.094518
C171  C     C_R   0.556980 0.783766 0.051858 -0.209890
C172  C     C_R   0.532012 0.205419 0.054007 -0.205946
C173  C     C_R   0.056529 0.284320 0.052197 -0.206061
C174  C     C_R   0.025598 0.703866 0.054205 -0.201464
C175  C     C_R   0.500894 0.786565 0.945142 -0.234999
C176  C     C_R   0.034319 0.304473 0.660097 -0.201727
C177  C     C_R   0.479390 0.205615 0.947186 -0.233414
C178  C     C_R   0.000100 0.287011 0.945505 -0.224745
C179  C     C_R   0.972772 0.703425 0.946882 -0.233749
C180  C     C_R   0.437812 0.757135 0.891635 -0.070894
C181  C     C_R   0.449602 0.252242 0.891938 -0.049524
C182  C     C_R   0.938957 0.255456 0.892326 -0.070010
C183  C     C_R   0.949768 0.749861 0.891388 -0.045536
C184  C     C_R   0.834215 0.946096 0.701232 -0.177537
C185  C     C_R   0.839099 0.052977 0.701540 -0.178733
C186  C     C_R   0.252698 0.452727 0.645391 -0.153759
C187  C     C_R   0.034707 0.692191 0.658236 -0.276075
C188  C     C_R   0.309194 0.550722 0.687601 -0.131835
C189  C     C_R   0.865676 0.973083 0.789788 -0.168878
C190  C     C_R   0.869415 0.026335 0.790582 -0.172015
C191  C     C_R   0.276633 0.479091 0.730740 -0.205709
C192  C     C_R   0.307958 0.527103 0.754416 -0.185794
C193  C     C_R   0.798960 0.027033 0.606803 0.088386
C194  C     C_R   0.797664 0.972302 0.606805 0.097706
C195  C     C_R   0.277378 0.526870 0.594280 0.089397
C196  C     C_R   0.258862 0.474396 0.580390 0.080835
C197  C     C_R   0.751933 0.609492 0.498379 0.810890
C198  C     C_R   0.498927 0.709454 0.552035 -0.065684
C199  C     C_R   0.748620 0.390419 0.501092 0.791125
C200  C     C_R   0.252920 0.109675 0.509329 0.781346
C201  C     C_R   0.248568 0.890190 0.497106 0.786656
C202  C     C_R   0.761276 0.945997 0.512986 -0.085686
C203  C     C_R   0.761688 0.053924 0.512663 -0.098766
C204  C     C_R   0.247280 0.446815 0.502114 -0.095391
C205  C     C_R   0.262186 0.553899 0.513526 -0.100327
C206  C     C_R   0.729783 0.973741 0.423890 -0.219310
C207  C     C_R   0.729577 0.026911 0.423548 -0.217891
C208  C     C_R   0.241551 0.473803 0.430483 -0.223940
H1    H     H_    0.311318 0.721205 0.831748 0.168346
H2    H     H_    0.701858 0.047112 0.351772 0.166595
H3    H     H_    0.869589 0.581094 0.529741 0.208219
H4    H     H_    0.945497 0.604544 0.654448 0.228885
H5    H     H_    0.862418 0.441130 0.867801 0.274956
H6    H     H_    0.782255 0.476061 0.755221 0.268056
H7    H     H_    0.774774 0.412132 0.785540 0.243732
H8    H     H_    0.763660 0.402098 0.649527 0.189896
H9    H     H_    0.852503 0.377562 0.755701 0.196701
H10   H     H_    0.493264 0.083671 0.903143 0.240345
H11   H     H_    0.534919 0.070085 0.854903 0.291956
H12   H     H_    0.504053 0.132650 0.845659 0.262337
H13   H     H_    0.231687 0.453950 0.369726 0.173382
H14   H     H_    0.420038 0.086902 0.679801 0.249139
H15   H     H_    0.380939 0.111562 0.727420 0.229137
H16   H     H_    0.250707 0.942141 0.774532 0.267185
H17   H     H_    0.181342 0.973726 0.650610 0.262637
H18   H     H_    0.165639 0.910531 0.672457 0.246472
H19   H     H_    0.190492 0.906352 0.567525 0.222470
H20   H     H_    0.260453 0.871443 0.684269 0.178258
H21   H     H_    0.116147 0.485534 0.947455 0.240033
H22   H     H_    0.060636 0.469130 0.813996 0.287836
H23   H     H_    0.120671 0.523481 0.870953 0.267381
H24   H     H_    0.235824 0.546798 0.372464 0.175640
H25   H     H_    0.024963 0.574401 0.810949 0.232070
H26   H     H_    0.032824 0.548213 0.904758 0.199652
H27   H     H_    0.049724 0.497459 0.018496 0.250837
H28   H     H_    0.953036 0.512187 0.934576 0.262124
H29   H     H_    0.995271 0.456621 0.019616 0.248246
H30   H     H_    0.957721 0.409685 0.885833 0.197436
H31   H     H_    0.028304 0.435724 0.907305 0.214461
H32   H     H_    0.483823 0.933147 0.747118 0.261989
H33   H     H_    0.500257 0.000845 0.751280 0.273732
H34   H     H_    0.573516 0.958393 0.854175 0.245526
H35   H     H_    0.841301 0.904846 0.710672 0.174099
H36   H     H_    0.528993 0.002747 0.921556 0.203948
H37   H     H_    0.508085 0.938614 0.900648 0.199019
H38   H     H_    0.467718 0.976023 0.986029 0.253818
H39   H     H_    0.374856 0.980057 0.927724 0.261742
H40   H     H_    0.435756 0.928397 0.017570 0.254092
H41   H     H_    0.351390 0.893877 0.846088 0.219725
H42   H     H_    0.437863 0.892481 0.892933 0.198026
H43   H     H_    0.748872 0.646196 0.771093 0.150760
H44   H     H_    0.729534 0.714933 0.737779 0.166441
H45   H     H_    0.774114 0.677077 0.712835 0.180800
H46   H     H_    0.849454 0.093751 0.709968 0.167049
H47   H     H_    0.601570 0.058003 0.560041 0.146486
H48   H     H_    0.692375 0.087398 0.641931 0.167696
H49   H     H_    0.640132 0.071013 0.511091 0.190827
H50   H     H_    0.997829 0.368536 0.388128 0.168102
H51   H     H_    0.059690 0.414548 0.412275 0.189311
H52   H     H_    0.026017 0.424299 0.469647 0.167422
H53   H     H_    0.047238 0.566693 0.493189 0.143033
H54   H     H_    0.147400 0.562052 0.586102 0.188646
H55   H     H_    0.092305 0.569192 0.451401 0.187103
H56   H     H_    0.174521 0.424636 0.844425 0.168914
H57   H     H_    0.226452 0.416869 0.630510 0.228918
H58   H     H_    0.212494 0.358626 0.880304 0.166538
H59   H     H_    0.189640 0.389415 0.942076 0.195756
H60   H     H_    0.071071 0.666585 0.843619 0.176757
H61   H     H_    0.151153 0.690877 0.874908 0.163398
H62   H     H_    0.158310 0.634736 0.938748 0.205886
H63   H     H_    0.463127 0.603446 0.691108 0.157766
H64   H     H_    0.548022 0.638639 0.791065 0.151413
H65   H     H_    0.542555 0.571327 0.806359 0.192647
H66   H     H_    0.589983 0.185270 0.863738 0.173284
H67   H     H_    0.669875 0.198085 0.886655 0.150962
H68   H     H_    0.336182 0.587391 0.710857 0.157198
H69   H     H_    0.671768 0.146846 0.954146 0.200186
H70   H     H_    0.330120 0.805759 0.236970 0.258402
H71   H     H_    0.293937 0.781262 0.285604 0.273811
H72   H     H_    0.275941 0.847294 0.241600 0.245507
H73   H     H_    0.372376 0.843182 0.433193 0.208197
H74   H     H_    0.404892 0.869281 0.384817 0.217855
H75   H     H_    0.423295 0.357628 0.534887 0.254234
H76   H     H_    0.490893 0.380806 0.538743 0.250812
H77   H     H_    0.401890 0.411951 0.455936 0.250773
H78   H     H_    0.408989 0.360356 0.354287 0.198794
H79   H     H_    0.890676 0.952347 0.859821 0.148557
H80   H     H_    0.342858 0.333485 0.345620 0.232566
H81   H     H_    0.995745 0.119887 0.539863 0.249232
H82   H     H_    0.927856 0.142786 0.536754 0.255752
H83   H     H_    0.908081 0.089189 0.458733 0.247283
H84   H     H_    0.845306 0.168494 0.346399 0.232704
H85   H     H_    0.912029 0.141834 0.354776 0.198570
H86   H     H_    0.929583 0.855510 0.547917 0.252592
H87   H     H_    0.999959 0.877612 0.556699 0.248750
H88   H     H_    0.913739 0.912396 0.477915 0.249284
H89   H     H_    0.916494 0.864347 0.368844 0.199539
H90   H     H_    0.897728 0.047014 0.861266 0.147729
H91   H     H_    0.848388 0.838031 0.356567 0.232873
H92   H     H_    0.526027 0.616188 0.998151 0.271151
H93   H     H_    0.597173 0.573730 0.101201 0.259582
H94   H     H_    0.504209 0.564647 0.039022 0.260825
H95   H     H_    0.610382 0.650385 0.183846 0.203551
H96   H     H_    0.565735 0.607915 0.202267 0.205690
H97   H     H_    0.411541 0.409358 0.082047 0.258115
H98   H     H_    0.365140 0.351106 0.009162 0.272998
H99   H     H_    0.392002 0.361126 0.129354 0.256946
H100  H     H_    0.475589 0.299301 0.157307 0.221049
H101  H     H_    0.272346 0.461620 0.779954 0.145106
H102  H     H_    0.524712 0.357641 0.223511 0.235753
H103  H     H_    0.031521 0.109928 0.000633 0.270887
H104  H     H_    0.111436 0.074147 0.107012 0.254119
H105  H     H_    0.023754 0.057778 0.057995 0.252307
H106  H     H_    0.119434 0.150737 0.184925 0.201021
H107  H     H_    0.081168 0.106983 0.211849 0.206411
H108  H     H_    0.934492 0.926040 0.044462 0.253315
H109  H     H_    0.885492 0.866351 0.994043 0.270759
H110  H     H_    0.910886 0.894776 0.105252 0.254057
H111  H     H_    0.987691 0.820082 0.151975 0.228231
H112  H     H_    0.433518 0.349629 0.819753 0.135261
H113  H     H_    0.330299 0.546462 0.823734 0.149801
H114  H     H_    0.042760 0.876364 0.211807 0.234561
H115  H     H_    0.642490 0.596451 0.694054 0.174989
H116  H     H_    0.641358 0.098436 0.705203 0.164102
H117  H     H_    0.135687 0.401716 0.692153 0.160156
H118  H     H_    0.135837 0.593821 0.689032 0.168025
H119  H     H_    0.453154 0.668523 0.598698 0.146170
H120  H     H_    0.520204 0.213279 0.699070 0.179126
H121  H     H_    0.019012 0.288875 0.697220 0.195476
H122  H     H_    0.018598 0.707519 0.694446 0.181535
H123  H     H_    0.603049 0.809160 0.091641 0.171428
H124  H     H_    0.815763 0.213705 0.835786 0.171940
H125  H     H_    0.558524 0.169242 0.095725 0.157604
H126  H     H_    0.100626 0.311556 0.091838 0.172857
H127  H     H_    0.046279 0.667584 0.096734 0.153478
H128  H     H_    0.430242 0.608664 0.076157 0.150167
H129  H     H_    0.500954 0.426088 0.081224 0.136420
H130  H     H_    0.942248 0.101608 0.080972 0.151476
H131  H     H_    0.051672 0.926388 0.083949 0.146277
H132  H     H_    0.523177 0.894943 0.486914 0.248437
H133  H     H_    0.603911 0.868053 0.524616 0.285088
H134  H     H_    0.542231 0.908835 0.411494 0.242508
H135  H     H_    0.960182 0.837818 0.821079 0.117274
H136  H     H_    0.526089 0.816826 0.362333 0.182060
H137  H     H_    0.445983 0.843721 0.318290 0.213319
H138  H     H_    0.363309 0.231961 0.226303 0.271940
H139  H     H_    0.334190 0.297991 0.214013 0.254472
H140  H     H_    0.354546 0.277139 0.143286 0.254987
H141  H     H_    0.458766 0.329232 0.303289 0.202770
H142  H     H_    0.480400 0.266040 0.291774 0.228757
H143  H     H_    0.835728 0.205626 0.214804 0.256323
H144  H     H_    0.862347 0.270656 0.219220 0.264834
H145  H     H_    0.855314 0.222536 0.141705 0.256249
H146  H     H_    0.507094 0.811779 0.904636 0.172127
H147  H     H_    0.980852 0.235872 0.290461 0.231732
H148  H     H_    0.961867 0.172656 0.304403 0.205715
H149  H     H_    0.861054 0.741013 0.219643 0.268287
H150  H     H_    0.837093 0.806530 0.221371 0.255358
H151  H     H_    0.855405 0.791309 0.146070 0.253270
H152  H     H_    0.963996 0.834904 0.313078 0.203032
H153  H     H_    0.980235 0.772131 0.291925 0.231762
H154  H     H_    0.322924 0.562736 0.955427 0.238341
H155  H     H_    0.314722 0.604210 0.027054 0.260017
H156  H     H_    0.234468 0.580290 0.902396 0.290127
H157  H     H_    0.461399 0.169412 0.907522 0.160527
H158  H     H_    0.252752 0.672160 0.888354 0.211417
H159  H     H_    0.261273 0.630962 0.818535 0.215055
H160  H     H_    0.571797 0.473990 0.044071 0.260385
H161  H     H_    0.571596 0.442140 0.955959 0.266257
H162  H     H_    0.531531 0.505978 0.925830 0.253616
H163  H     H_    0.434094 0.441241 0.821965 0.218663
H164  H     H_    0.434817 0.471476 0.910711 0.210235
H165  H     H_    0.833241 0.057776 0.979973 0.247352
H166  H     H_    0.828639 0.107165 0.045919 0.256230
H167  H     H_    0.746189 0.079700 0.927913 0.286174
H168  H     H_    0.004221 0.314095 0.904802 0.174586
H169  H     H_    0.760102 0.165045 0.888748 0.211431
H170  H     H_    0.773402 0.117304 0.832164 0.205292
H171  H     H_    0.145845 0.937080 0.061600 0.253570
H172  H     H_    0.130681 0.893311 0.971226 0.261400
H173  H     H_    0.121712 0.962160 0.948770 0.251290
H174  H     H_    0.999230 0.923601 0.834308 0.208786
H175  H     H_    0.014595 0.965707 0.925650 0.213411
H176  H     H_    0.792561 0.521992 0.376337 0.267099
H177  H     H_    0.724946 0.472252 0.299081 0.259399
H178  H     H_    0.721900 0.528238 0.237660 0.249801
H179  H     H_    0.950608 0.666988 0.907217 0.146532
H180  H     H_    0.627227 0.534175 0.239652 0.217961
H181  H     H_    0.692299 0.584743 0.311303 0.206864
H182  H     H_    0.600955 0.417824 0.421395 0.276052
H183  H     H_    0.567554 0.483498 0.383233 0.255705
H184  H     H_    0.515644 0.432680 0.291104 0.238114
H185  H     H_    0.575812 0.482246 0.258371 0.184976
H186  H     H_    0.613555 0.419552 0.292183 0.216823
H187  H     H_    0.341558 0.050486 0.433446 0.270801
H188  H     H_    0.286742 0.998717 0.343491 0.253157
H189  H     H_    0.282234 0.061610 0.296930 0.251671
H190  H     H_    0.702428 0.954184 0.352402 0.167222
H191  H     H_    0.172995 0.049540 0.265832 0.229305
H192  H     H_    0.227779 0.099883 0.351836 0.210239
H193  H     H_    0.067446 0.959070 0.292878 0.268037
H194  H     H_    0.083936 0.019626 0.264873 0.254558
H195  H     H_    0.038824 0.970405 0.171559 0.242467
H196  H     H_    0.165953 0.966055 0.254011 0.199354
H197  H     H_    0.155097 0.912955 0.299871 0.213453
H198  H     H_    0.021104 0.531775 0.682366 0.297837
H199  H     H_    0.940331 0.497512 0.573751 0.259492
H200  H     H_    0.967217 0.555758 0.554662 0.238393
O1    O     O_3   0.750020 0.750020 0.500000 -0.470726
O2    O     O_R   0.750010 0.134170 0.560720 -0.642513
O3    O     O_R   0.250010 0.365830 0.560720 -0.647929
O4    O     O_R   0.250010 0.634170 0.560720 -0.625449
O5    O     O_R   0.896180 0.719660 0.731600 -0.658048
O6    O     O_R   0.896180 0.280340 0.731600 -0.652252
O7    O     O_R   0.396180 0.219660 0.731600 -0.665917
O8    O     O_R   0.396180 0.780340 0.731600 -0.645409
O9    O     O_R   0.664580 0.780370 0.268400 -0.643275
O10   O     O_R   0.664580 0.219630 0.268400 -0.633152
O11   O     O_R   0.164580 0.280370 0.268400 -0.643705
O12   O     O_3   0.750020 0.249980 0.500000 -0.469375
O13   O     O_R   0.164580 0.719630 0.268400 -0.629860
O14   O     O_R   0.835450 0.780390 0.731600 -0.643725
O15   O     O_R   0.835450 0.219610 0.731600 -0.660521
O16   O     O_R   0.335450 0.280390 0.731600 -0.636795
O17   O     O_R   0.335450 0.719610 0.731600 -0.660377
O18   O     O_R   0.603870 0.719650 0.268400 -0.657377
O19   O     O_R   0.603870 0.280350 0.268400 -0.677975
O20   O     O_R   0.103870 0.219650 0.268400 -0.653524
O21   O     O_R   0.103870 0.780350 0.268400 -0.677317
O22   O     O_R   0.810750 0.634210 0.560720 -0.665935
O23   O     O_3   0.250020 0.250020 0.500000 -0.471008
O24   O     O_R   0.810750 0.365790 0.560720 -0.629107
O25   O     O_R   0.310750 0.134210 0.560720 -0.669739
O26   O     O_R   0.310750 0.865790 0.560720 -0.633145
O27   O     O_R   0.750010 0.865820 0.439280 -0.641052
O28   O     O_R   0.750010 0.134180 0.439280 -0.642624
O29   O     O_R   0.250010 0.365820 0.439280 -0.645184
O30   O     O_R   0.250010 0.634180 0.439280 -0.645980
O31   O     O_R   0.896180 0.719650 0.560720 -0.663258
O32   O     O_R   0.896180 0.280350 0.560720 -0.643080
O33   O     O_R   0.396180 0.219650 0.560720 -0.645296
O34   O     O_3   0.250020 0.749980 0.500000 -0.473371
O35   O     O_R   0.396180 0.780350 0.560720 -0.649085
O36   O     O_R   0.664570 0.780390 0.560720 -0.650627
O37   O     O_R   0.664570 0.219610 0.560720 -0.600224
O38   O     O_R   0.164570 0.280390 0.560720 -0.588755
O39   O     O_R   0.164570 0.719610 0.560720 -0.595746
O40   O     O_R   0.835460 0.780370 0.439280 -0.643283
O41   O     O_R   0.835460 0.219630 0.439280 -0.643873
O42   O     O_R   0.335460 0.280370 0.439280 -0.643911
O43   O     O_R   0.335460 0.719630 0.439280 -0.640911
O44   O     O_R   0.603860 0.719660 0.439280 -0.609024
O45   O     O_R   0.689310 0.634210 0.439280 -0.617996
O46   O     O_R   0.603860 0.280340 0.439280 -0.677628
O47   O     O_R   0.103860 0.219660 0.439280 -0.667667
O48   O     O_R   0.103860 0.780340 0.439280 -0.675946
O49   O     O_3   0.664069 0.664179 0.613683 -0.604268
O50   O     O_3   0.602553 0.135254 0.528280 -0.594991
O51   O     O_3   0.105320 0.366007 0.534350 -0.594881
O52   O     O_3   0.101993 0.635078 0.522029 -0.583021
O53   O     O_3   0.100419 0.366823 0.793947 -0.604982
O54   O     O_3   0.105387 0.622489 0.789028 -0.628004
O55   O     O_3   0.547290 0.587253 0.701457 -0.593859
O56   O     O_R   0.689310 0.365790 0.439280 -0.655389
O57   O     O_3   0.610468 0.131429 0.802062 -0.604114
O58   O     O_R   0.189310 0.134210 0.439280 -0.640104
O59   O     O_R   0.189310 0.865790 0.439280 -0.664975
O60   O     O_R   0.750010 0.865830 0.560720 -0.660273
Zn1   Zn    Zn3+2 0.663270 0.706640 0.413250 0.989935
Zn2   Zn    Zn3+2 0.750020 0.206610 0.413240 0.958454
Zn3   Zn    Zn3+2 0.250020 0.293390 0.413240 0.950453
Zn4   Zn    Zn3+2 0.250020 0.706610 0.413240 0.964645
Zn5   Zn    Zn3+2 0.750010 0.793400 0.586760 0.954107
Zn6   Zn    Zn3+2 0.750010 0.206600 0.586760 0.965790
Zn7   Zn    Zn3+2 0.250010 0.293400 0.586760 0.986037
Zn8   Zn    Zn3+2 0.250010 0.706600 0.586760 0.975673
Zn9   Zn    Zn3+2 0.663270 0.293360 0.413250 0.923036
Zn10  Zn    Zn3+2 0.163270 0.206640 0.413250 0.941334
Zn11  Zn    Zn3+2 0.163270 0.793360 0.413250 0.922868
Zn12  Zn    Zn3+2 0.836780 0.706640 0.586750 0.931909
Zn13  Zn    Zn3+2 0.836780 0.293360 0.586750 0.959336
Zn14  Zn    Zn3+2 0.336780 0.206640 0.586750 0.935610
Zn15  Zn    Zn3+2 0.336780 0.793360 0.586750 0.946515
Zn16  Zn    Zn3+2 0.750020 0.793390 0.413240 0.943565

loop_
_geom_bond_atom_site_label_1
_geom_bond_atom_site_label_2
_ccdc_geom_bond_type
C172  C177  A    
C88   H22   S    
C104  H66   S    
O1    Zn16  S    
C136  C140  A    
O41   Zn2   S    
C136  C162  A    
C59   C126  S    
C40   C46   A    
O24   Zn13  S    
C19   C200  S    
C200  O25   A    
C51   C187  A    
C152  O21   A    
O32   Zn13  S    
C20   C201  S    
C66   H167  S    
C95   H38   S    
C32   C133  S    
C81   H8    S    
C149  O9    A    
C115  C136  S    
C93   H32   S    
C158  C180  A    
C172  H125  S    
C137  C141  A    
O11   Zn3   S    
O12   Zn9   S    
C171  C175  A    
C100  H56   S    
O34   Zn4   S    
C207  H2    S    
C105  H73   S    
O3    Zn7   S    
C106  H70   S    
C196  C204  A    
C75   H189  S    
C63   C146  S    
C108  H76   S    
C83   H15   S    
C98   H50   S    
C7    C15   A    
C99   H55   S    
C59   C60   S    
C21   C22   A    
C175  H146  S    
C201  O26   A    
C76   C77   S    
C15   C20   A    
C190  H90   S    
C197  O22   A    
C191  C192  A    
C185  C190  A    
C107  H78   S    
C73   H182  S    
C33   O43   A    
C5    C12   A    
C38   O39   A    
C185  H46   S    
C105  C127  S    
C206  C207  A    
C167  C171  A    
C56   H147  S    
C201  O59   A    
C17   C21   A    
C80   H199  S    
C19   C23   A    
C4    C78   S    
C31   O32   A    
C152  C170  S    
C30   O31   A    
C111  C130  S    
C116  H94   S    
C119  C120  S    
C150  C168  S    
C91   H29   S    
O29   Zn3   S    
C85   H20   S    
C159  C181  A    
C154  H119  S    
C2    C165  A    
C178  C182  A    
C84   H10   S    
C97   H48   S    
C186  H57   S    
C3    H24   S    
C171  H123  S    
C120  H103  S    
O21   Zn11  S    
C78   H4    S    
O45   Zn1   S    
O37   Zn6   S    
C170  C174  A    
O12   Zn6   S    
C58   H144  S    
C54   H141  S    
C55   H139  S    
C6    C83   S    
O23   Zn7   S    
C89   H30   S    
C72   C73   S    
C66   H165  S    
C87   H25   S    
C140  C145  A    
C70   H181  S    
C112  C182  S    
C53   H134  S    
C65   H169  S    
C193  C203  A    
C93   H34   S    
C25   C76   S    
C82   H7    S    
C58   H145  S    
C100  H58   S    
C45   C50   A    
O33   Zn14  S    
C77   H194  S    
O23   Zn10  S    
C4    C14   A    
C150  O10   A    
C127  C131  A    
C6    C16   A    
C36   O37   A    
C125  C129  A    
O40   Zn16  S    
C99   H53   S    
C193  C194  A    
C155  H112  S    
C126  C130  A    
C62   H155  S    
C96   H43   S    
C109  H84   S    
C121  H111  S    
C28   O29   A    
C191  H101  S    
C102  H61   S    
C67   H175  S    
C71   H177  S    
C150  O19   A    
C73   H184  S    
O1    Zn1   S    
C1    C183  S    
C33   O35   A    
C85   C86   S    
C34   O36   A    
C109  H85   S    
C29   O4    A    
C27   C203  S    
C63   H164  S    
C186  C196  A    
C39   O49   S    
C154  C198  A    
C78   C80   S    
C44   H116  S    
C13   C57   A    
C60   H149  S    
C61   H159  S    
C91   H27   S    
C29   C205  S    
C34   O44   A    
O27   Zn16  S    
C74   H192  S    
C179  H179  S    
C84   H12   S    
C95   H39   S    
O25   Zn14  S    
C132  O16   A    
C101  C125  A    
C107  C108  S    
C115  H96   S    
C89   C91   S    
O15   Zn6   S    
C1    O5    A    
O59   Zn11  S    
O30   Zn4   S    
C14   C17   A    
C94   C95   S    
C76   H197  S    
C31   C134  S    
C178  H168  S    
C94   H42   S    
C48   O55   S    
C22   C72   S    
C51   O54   S    
O34   Zn15  S    
C155  C159  A    
C3    C205  A    
C50   O53   S    
C141  H129  S    
C156  C160  A    
O22   Zn12  S    
C49   O57   S    
O42   Zn3   S    
C137  C163  A    
C24   C68   A    
C113  C126  A    
O56   Zn9   S    
O34   Zn8   S    
C195  C196  A    
C103  H63   S    
C5    C9    A    
C34   C79   S    
C82   H5    S    
C123  C127  A    
C83   C84   S    
C104  H67   S    
C117  H100  S    
C52   H136  S    
C81   H9    S    
C118  H99   S    
C119  H106  S    
C96   O49   S    
C80   H198  S    
O43   Zn4   S    
C59   H152  S    
C110  H81   S    
C166  C170  A    
C75   H188  S    
C189  H79   S    
C109  C129  S    
C110  H83   S    
O2    Zn6   S    
C69   H171  S    
C23   C74   S    
C52   C53   S    
C36   C90   S    
C48   C154  A    
C54   C55   S    
C41   C45   A    
C18   C22   A    
C119  C138  S    
O6    Zn13  S    
C142  C147  A    
C36   O46   A    
C104  H69   S    
C122  H110  S    
C175  C180  A    
C41   O51   S    
C60   H151  S    
C57   C101  A    
C77   H195  S    
C151  C169  S    
O8    Zn15  S    
C97   H47   S    
C188  C192  A    
C121  C139  S    
C163  C168  A    
C93   H33   S    
C117  C118  S    
C37   C101  S    
C52   H137  S    
C173  C178  A    
C177  C181  A    
C176  H121  S    
C35   C79   A    
C56   C58   S    
C148  C157  A    
C61   C62   S    
C10   C11   A    
C45   H117  S    
C63   C64   S    
C156  H124  S    
C40   C44   A    
O17   Zn8   S    
C199  O24   A    
C143  O17   A    
C32   O42   A    
C86   H17   S    
C169  C173  A    
C106  H71   S    
C151  O20   A    
C98   H51   S    
C114  H87   S    
C87   C88   S    
C47   H118  S    
C114  H88   S    
O58   Zn10  S    
C130  C135  A    
C149  C167  S    
O34   Zn11  S    
O38   Zn7   S    
O18   Zn1   S    
O36   Zn5   S    
O23   Zn14  S    
C160  C164  A    
C72   H185  S    
C151  O11   A    
C20   C25   A    
C56   H148  S    
C194  C202  A    
C118  H97   S    
C149  O18   A    
C165  H120  S    
C186  C191  A    
C80   H200  S    
C61   C145  S    
C64   H161  S    
C146  C155  A    
C188  C195  A    
O31   Zn12  S    
O5    Zn12  S    
C70   C71   S    
C85   H19   S    
O1    Zn5   S    
C4    C8    A    
C68   C113  A    
C124  C128  A    
C88   H21   S    
C10   C92   S    
C120  H104  S    
C104  O57   S    
O19   Zn9   S    
C37   O47   A    
C54   H142  S    
C2    C133  A    
C65   C147  S    
C131  C198  A    
C76   H196  S    
O1    Zn12  S    
C66   H166  S    
C9    C89   S    
C38   C113  S    
C47   C51   A    
C161  C183  A    
C197  O45   A    
C49   C165  A    
C99   O52   S    
C5    C81   S    
O13   Zn4   S    
C42   O52   S    
C97   O50   S    
C152  O13   A    
O4    Zn8   S    
C56   C125  S    
C147  C156  A    
C103  H65   S    
O26   Zn15  S    
C108  H75   S    
C112  O6    A    
C141  C146  A    
C53   H132  S    
C11   C94   S    
C103  O55   S    
C114  H86   S    
C111  H91   S    
C24   C187  A    
C138  C142  A    
C119  H107  S    
C64   H160  S    
C62   H156  S    
C96   H44   S    
C157  C161  A    
O10   Zn2   S    
C54   C124  S    
C102  H62   S    
C90   C124  A    
C144  H131  S    
C73   H183  S    
O44   Zn1   S    
C6    C10   A    
C53   H133  S    
C92   H37   S    
C46   C90   A    
C105  C106  S    
C63   H163  S    
C120  H105  S    
C27   O2    A    
C41   C57   A    
C109  C110  S    
C153  H1    S    
C187  H122  S    
C7    C85   S    
C116  H93   S    
C16   C19   A    
C60   H150  S    
C61   H158  S    
C72   H186  S    
C92   C93   S    
C107  H80   S    
C111  C114  S    
C38   O48   A    
C189  C190  A    
C132  O7    A    
C157  H135  S    
C142  H130  S    
C129  C134  A    
C168  C172  A    
C88   H23   S    
C30   C135  S    
C67   C148  S    
C115  H95   S    
C78   H3    S    
C115  C116  S    
C44   C49   A    
C13   C176  A    
C58   H143  S    
C55   H140  S    
C77   H193  S    
C13   C134  A    
C89   H31   S    
C35   C39   A    
C144  C148  A    
C192  H113  S    
C70   H180  S    
C81   C82   S    
C97   H49   S    
C65   H170  S    
C2    C46   A    
C7    C11   A    
C102  O54   S    
C87   H26   S    
C26   O60   A    
C3    C208  A    
C140  H128  S    
C26   C202  S    
C40   O50   S    
C107  C128  S    
C132  C181  S    
C52   C123  S    
C184  C194  A    
C71   H176  S    
O60   Zn5   S    
C15   C16   A    
C153  C158  A    
O35   Zn15  S    
C50   C176  A    
O7    Zn14  S    
C108  H77   S    
C82   H6    S    
C83   H14   S    
C99   H54   S    
C8    C9    A    
C111  H89   S    
C100  O53   S    
O12   Zn13  S    
C62   H154  S    
C43   C48   A    
C161  C166  A    
O9    Zn16  S    
C145  C153  A    
C33   C131  S    
C23   C25   A    
C110  H82   S    
C75   H187  S    
C71   H178  S    
C42   C68   A    
C164  C169  A    
C86   H16   S    
C1    O14   A    
C160  C182  A    
C199  O56   A    
C105  H74   S    
C179  C183  A    
C174  H127  S    
C74   C75   S    
C28   C204  S    
O46   Zn9   S    
O20   Zn10  S    
C17   C197  S    
C43   H115  S    
C39   C43   A    
C188  H68   S    
O12   Zn2   S    
C208  H13   S    
C26   O27   A    
C79   C123  A    
C91   H28   S    
C67   C69   S    
O23   Zn3   S    
C139  C166  A    
C74   H191  S    
C173  H126  S    
C84   H11   S    
C95   H40   S    
C139  C144  A    
C98   O51   S    
C195  C205  A    
C96   H45   S    
C121  C122  S    
C143  O8    A    
O47   Zn10  S    
C143  C180  S    
C27   O28   A    
O14   Zn5   S    
C59   H153  S    
C32   O33   A    
C203  C207  A    
C24   C135  A    
C12   C14   A    
C55   H138  S    
C86   H18   S    
C159  C163  A    
C106  H72   S    
C94   H41   S    
C204  C208  A    
C98   H52   S    
C117  H102  S    
O48   Zn11  S    
C117  C137  S    
C185  C193  A    
O39   Zn8   S    
C28   O3    A    
C138  C164  A    
C100  H59   S    
C30   O40   A    
C122  H108  S    
C21   C70   S    
C8    C87   S    
C103  H64   S    
O28   Zn2   S    
C37   O38   A    
C69   H173  S    
C128  C133  A    
C92   H36   S    
C118  H98   S    
C184  H35   S    
C42   C47   A    
C206  H190  S    
O16   Zn7   S    
C64   H162  S    
C29   O30   A    
C158  C162  A    
C162  C167  A    
C121  H114  S    
C116  H92   S    
C122  H109  S    
C177  H157  S    
C65   C66   S    
C202  C206  A    
C67   H174  S    
C12   C18   A    
C18   C199  S    
C31   O41   A    
C184  C189  A    
C102  H60   S    
C69   H172  S    
C112  O15   A    
C174  C179  A    
C200  O58   A    
C35   C198  A    
