data_mof_unit_17896.cif
_audit_creation_date              2013-03-05T15:43:03-0500
_audit_creation_method            fapswitch 2.2
_symmetry_space_group_name_H-M    P1
_symmetry_Int_Tables_number       1
_space_group_crystal_system       triclinic
_cell_length_a                    9.712924
_cell_length_b                    10.949106
_cell_length_c                    15.34908
_cell_angle_alpha                 88.972208
_cell_angle_beta                  73.381112
_cell_angle_gamma                 88.261056
_cell_volume                      1563.3624187

loop_
_atom_site_label
_atom_site_type_symbol
_atom_site_description
_atom_site_fract_x
_atom_site_fract_y
_atom_site_fract_z
_atom_type_partial_charge
O1    O     O_R   0.117050 0.321960 0.499980 -0.500844
O2    O     O_R   0.882890 0.321920 0.500020 -0.510317
C1    C     C_R   0.999686 0.265089 0.505090 0.789026
O3    O     O_R   0.052910 0.500040 0.629810 -0.571074
O4    O     O_R   0.818750 0.499990 0.629840 -0.473616
C2    C     C_R   0.916301 0.496155 0.673336 0.858854
Cu1   Cu    Cu3+1 0.138640 0.500020 0.499980 1.110902
Cu2   Cu    Cu3+1 0.861360 0.499980 0.500020 1.116746
O5    O     O_R   0.117110 0.678080 0.499980 -0.588737
O6    O     O_R   0.882950 0.678040 0.500020 -0.558962
O7    O     O_R   0.181250 0.500010 0.370160 -0.497368
O8    O     O_R   0.947090 0.499960 0.370190 -0.602951
C3    C     C_R   0.998844 0.734151 0.497513 0.786803
C4    C     C_R   0.083402 0.504406 0.326968 0.874655
C5    C     C_R   0.870807 0.491903 0.774795 -0.232892
C6    C     C_R   0.130591 0.531712 0.227970 -0.242169
C7    C     C_R   0.926209 0.459803 0.920142 0.475031
C8    C     C_R   0.969010 0.455590 0.824148 0.244924
C9    C     C_R   0.727773 0.524292 0.822921 0.329921
C10   C     C_R   0.688759 0.540069 0.918523 -0.128918
C11   C     C_R   0.785101 0.498136 0.966895 -0.027813
C12   C     C_R   0.552446 0.590123 0.968151 -0.054185
C13   C     C_R   0.495853 0.556370 0.060578 -0.052001
C14   C     C_R   0.595168 0.521990 0.109666 0.299210
C15   C     C_R   0.738458 0.495016 0.062238 -0.116945
C16   C     C_R   0.472718 0.677042 0.930885 0.419852
C17   C     C_R   0.329035 0.701918 0.976305 -0.082445
C18   C     C_R   0.260673 0.642303 0.058288 -0.173730
C19   C     C_R   0.343811 0.565041 0.100207 -0.056798
C20   C     C_R   0.112113 0.662249 0.100808 0.361743
C21   C     C_R   0.048040 0.608880 0.186114 0.236607
C22   C     C_R   0.271346 0.497655 0.179079 0.398603
H1    H     H_    0.812837 0.469750 0.100699 0.213776
H2    H     H_    0.272316 0.769804 0.946643 0.219884
C23   C     C_2   0.888834 0.932383 0.542289 0.305815
C24   C     C_2   0.995728 0.865872 0.486170 0.270425
C25   C     C_2   0.881516 0.066500 0.529266 0.245563
C26   C     C_2   0.998290 0.133681 0.524952 0.166666
C27   C     C_2   0.408478 0.413239 0.536875 0.445616
N1    N     N_2   0.346430 0.498660 0.500980 -0.233036
H3    H     H_    0.389511 0.584094 0.494871 0.228797
C28   C     C_2   0.554939 0.430103 0.552734 0.559496
N2    N     N_2   0.652550 0.498630 0.501000 -0.042208
N3    N     N_R   0.025067 0.737746 0.058580 0.145807
O9    O     O_R   0.940436 0.823007 0.104737 -0.251709
O10   O     O_R   0.019388 0.713696 0.976998 -0.357456
O11   O     O_3   0.786085 0.875430 0.611330 -0.706519
H4    H     H_    0.721506 0.939387 0.647771 0.353869
O12   O     O_3   0.094430 0.920704 0.413709 -0.704233
H5    H     H_    0.160136 0.856396 0.378502 0.346673
O13   O     O_3   0.756662 0.121088 0.518954 -0.685039
H6    H     H_    0.687377 0.056337 0.519108 0.354217
N4    N     N_R   0.121870 0.079417 0.546559 0.125650
O14   O     O_R   0.250020 0.092895 0.491336 -0.248917
O15   O     O_R   0.106808 0.019728 0.622672 -0.343013
O16   O     O_3   0.336704 0.306242 0.563865 -0.655999
H7    H     H_    0.406243 0.243097 0.573494 0.342576
O17   O     O_3   0.588731 0.368619 0.623496 -0.678882
H8    H     H_    0.498436 0.341478 0.667316 0.313999
O18   O     O_3   0.626773 0.544278 0.425366 -0.630274
H9    H     H_    0.708363 0.597574 0.397721 0.395613
O19   O     O_3   0.331070 0.394034 0.207944 -0.649025
H10   H     H_    0.400193 0.355835 0.154336 0.333348
O20   O     O_3   0.904307 0.633301 0.226422 -0.650629
H11   H     H_    0.859412 0.553793 0.246388 0.363569
O21   O     O_3   0.018687 0.423969 0.970413 -0.719019
H12   H     H_    0.116436 0.407365 0.929732 0.377652
O22   O     O_3   0.104362 0.408870 0.780916 -0.704345
H13   H     H_    0.094448 0.350537 0.734569 0.357006
O23   O     O_3   0.625839 0.532207 0.775940 -0.633028
H14   H     H_    0.534626 0.499903 0.815527 0.340443
N5    N     N_R   0.557633 0.528206 0.207087 0.165552
O24   O     O_R   0.482890 0.621160 0.249409 -0.301473
O25   O     O_R   0.610755 0.447742 0.252863 -0.308334
O26   O     O_3   0.533628 0.747070 0.854663 -0.659862
H15   H     H_    0.638132 0.751506 0.847093 0.359872

loop_
_geom_bond_atom_site_label_1
_geom_bond_atom_site_label_2
_geom_bond_distance
_ccdc_geom_bond_type
C5    C8    1.421690 A    
C9    C10   1.419070 A    
Cu2   N2    2.024406 S    
C23   O11   1.384539 S    
C28   O17   1.380180 S    
Cu1   Cu2   2.693037 S    
N4    O14   1.301051 A    
C6    C21   1.415486 A    
Cu1   O7    1.915749 S    
C16   C17   1.391067 A    
O19   H10   0.990990 S    
C13   C19   1.428148 A    
C18   C19   1.420529 A    
C23   C25   1.480764 S    
C19   C22   1.420363 A    
C20   C21   1.404172 A    
C25   O13   1.383958 S    
O7    C4    1.304437 A    
C8    O22   1.379388 S    
O16   H7    0.990526 S    
O5    C3    1.295815 A    
C2    C5    1.492525 S    
O11   H4    0.991660 S    
C1    C26   1.465044 S    
O22   H13   0.991196 S    
Cu1   N1    2.022295 S    
O23   H14   0.991256 S    
O21   H12   0.989368 S    
C20   N3    1.438781 S    
O3    Cu1   1.927521 S    
N3    O10   1.300998 A    
C7    C8    1.413084 A    
C27   C28   1.527308 S    
N4    O15   1.301534 A    
C17   H2    1.081543 S    
O13   H6    0.991708 S    
C14   C15   1.399072 A    
C3    C24   1.450033 S    
O3    C2    1.305405 A    
C27   N1    1.295661 D    
O17   H8    0.990501 S    
C7    C11   1.408151 A    
O18   H9    0.987637 S    
O1    C1    1.297515 A    
C23   C24   1.347336 D    
C5    C9    1.412090 A    
O26   H15   0.990700 S    
C25   C26   1.355667 D    
C27   O16   1.377341 S    
Cu2   O8    1.927524 S    
C16   O26   1.380608 S    
C7    O21   1.385774 S    
N2    O18   1.340915 S    
N5    O25   1.301403 A    
N1    H3    1.028139 S    
C10   C12   1.423940 A    
C4    C6    1.483930 S    
C28   N2    1.297508 D    
N3    O9    1.301214 A    
C14   N5    1.436608 S    
Cu1   O5    1.954460 S    
C11   C15   1.402826 A    
O1    Cu1   1.967160 S    
C21   O20   1.375681 S    
O2    Cu2   1.954461 S    
O8    C4    1.302220 A    
N5    O24   1.301530 A    
O6    C3    1.289342 A    
O4    Cu2   1.915748 S    
C6    C22   1.401258 A    
O20   H11   0.989418 S    
C18   C20   1.415290 A    
O2    C1    1.298500 A    
C22   O19   1.381692 S    
O4    C2    1.305251 A    
C26   N4    1.442614 S    
C13   C14   1.422484 A    
C10   C11   1.413090 A    
Cu2   O6    1.967159 S    
O12   H5    0.992071 S    
C12   C16   1.421869 A    
C17   C18   1.403329 A    
C12   C13   1.413785 A    
C9    O23   1.381558 S    
C24   O12   1.384772 S    
C15   H1    1.083020 S    
