data_mof_unit_33496.cif
_audit_creation_date              2012-12-10T17:40:26-0500
_audit_creation_method            fapswitch 2.2
_symmetry_space_group_name_H-M    P1
_symmetry_Int_Tables_number       1
_space_group_crystal_system       triclinic
_cell_length_a                    13.854851
_cell_length_b                    15.005926
_cell_length_c                    15.573565
_cell_angle_alpha                 86.123813
_cell_angle_beta                  69.803398
_cell_angle_gamma                 89.055255
_cell_volume                      3031.70539939

loop_
_atom_site_label
_atom_site_type_symbol
_atom_type_description
_atom_site_fract_x
_atom_site_fract_y
_atom_site_fract_z
_atom_type_partial_charge
C1    C     C_R   0.500429 0.670944 0.497084 0.842171
C2    C     C_R   0.500211 0.329048 0.501088 0.824380
C3    C     C_R   0.357448 0.455213 0.113568 -0.064415
C4    C     C_R   0.579986 0.369575 0.930726 -0.078169
C5    C     C_R   0.288659 0.478126 0.066459 0.163694
C6    C     C_R   0.653531 0.357917 0.975150 0.172981
C7    C     C_R   0.455610 0.180606 0.584121 0.153902
C8    C     C_R   0.541942 0.818882 0.411673 0.053454
C9    C     C_R   0.500517 0.232493 0.502225 -0.053009
C10   C     C_R   0.500117 0.767457 0.494490 -0.077864
C11   C     C_R   0.544949 0.193166 0.419737 -0.239027
C12   C     C_R   0.456225 0.807247 0.576640 -0.244101
C13   C     C_R   0.550313 0.100004 0.417144 0.026921
C14   C     C_R   0.448182 0.900171 0.578266 0.055962
C15   C     C_R   0.498140 0.046812 0.498375 0.027127
C16   C     C_R   0.499261 0.953269 0.496577 0.052971
C17   C     C_R   0.443870 0.087554 0.581205 0.050209
C18   C     C_R   0.552943 0.912347 0.413669 -0.018502
C19   C     C_R   0.607855 0.059677 0.335616 -0.043341
C20   C     C_R   0.389362 0.940421 0.659370 -0.075812
C21   C     C_R   0.615630 0.965481 0.336105 -0.041213
C22   C     C_R   0.380642 0.034197 0.658222 -0.041231
C23   C     C_R   0.437001 0.501621 0.673391 0.820435
C24   C     C_R   0.562858 0.494425 0.327401 0.842601
C25   C     C_R   0.221579 0.569025 0.455281 0.124179
C26   C     C_R   0.778813 0.429561 0.542794 0.072835
C27   C     C_R   0.188937 0.431320 0.545426 0.325053
C28   C     C_R   0.811073 0.568776 0.454659 0.340777
C29   C     C_R   0.091237 0.423796 0.534838 -0.091325
C30   C     C_R   0.909364 0.575591 0.464260 -0.082072
C31   C     C_R   0.052200 0.498908 0.498560 0.062336
C32   C     C_R   0.948415 0.499932 0.499852 0.039996
C33   C     C_R   0.116943 0.573076 0.460810 -0.032298
C34   C     C_R   0.883652 0.425554 0.537636 -0.045006
C35   C     C_R   0.029088 0.345703 0.561815 0.172506
C36   C     C_R   0.971682 0.653909 0.438003 0.191859
C37   C     C_R   0.926033 0.348906 0.568035 -0.144924
C38   C     C_R   0.074767 0.650502 0.432074 -0.161553
C39   C     C_R   0.398127 0.499964 0.775177 -0.087713
C40   C     C_R   0.598391 0.470789 0.230521 -0.107070
C41   C     C_R   0.264641 0.523422 0.920877 -0.137209
C42   C     C_R   0.709894 0.391110 0.103253 -0.154620
C43   C     C_R   0.299693 0.531356 0.825336 0.160440
C44   C     C_R   0.690205 0.423805 0.189471 0.141517
C45   C     C_R   0.461486 0.466148 0.823408 -0.243495
C46   C     C_R   0.529325 0.482880 0.182959 -0.225304
C47   C     C_R   0.426113 0.455638 0.920362 0.068761
C48   C     C_R   0.541762 0.439495 0.102465 0.044403
C49   C     C_R   0.325874 0.485899 0.969607 0.031391
C50   C     C_R   0.636468 0.397135 0.059028 0.036221
C51   C     C_R   0.490815 0.422367 0.969522 -0.047219
C52   C     C_R   0.463280 0.440793 0.062704 -0.043277
Cu1   Cu    Cu3+1 0.402580 0.500010 0.499990 1.017814
Cu2   Cu    Cu3+1 0.597420 0.499990 0.500010 1.005867
H1    H     H_    0.881720 0.288204 0.592518 0.221912
H2    H     H_    0.119899 0.711382 0.410353 0.156366
H3    H     H_    0.463895 0.525397 0.210672 0.226571
H4    H     H_    0.540211 0.451211 0.784288 0.160997
H5    H     H_    0.189858 0.550533 0.956111 0.193194
H6    H     H_    0.782359 0.358063 0.073525 0.191692
H7    H     H_    0.578389 0.236701 0.358414 0.127179
H8    H     H_    0.425114 0.764071 0.638542 0.139019
N1    N     N_R   0.256170 0.500070 0.500040 -0.234750
N2    N     N_R   0.743830 0.499930 0.499960 -0.243236
O1    O     O_R   0.417730 0.629750 0.499970 -0.602069
O2    O     O_R   0.582270 0.370250 0.500030 -0.569276
O3    O     O_R   0.582270 0.629730 0.499980 -0.554470
O4    O     O_R   0.417730 0.370270 0.500020 -0.563577
O5    O     O_R   0.371590 0.500020 0.629830 -0.534546
O6    O     O_R   0.628410 0.499980 0.370170 -0.535421
O7    O     O_R   0.536130 0.499990 0.629840 -0.616828
O8    O     O_R   0.463870 0.500010 0.370160 -0.559051
I1    I     I_    0.126810 0.494426 0.140553 -0.180272
I2    I     I_    0.787025 0.275640 0.919605 -0.140208
C53   C     C_2   0.292206 0.640498 0.401193 0.498839
H9    H     H_    0.295040 0.703179 0.431176 0.050396
O9    O     O_2   0.342232 0.632150 0.320731 -0.503870
C54   C     C_2   0.706820 0.357668 0.594499 0.519687
H10   H     H_    0.638620 0.373242 0.650763 0.098257
O10   O     O_2   0.720446 0.280778 0.571972 -0.517838
I3    I     I_    0.208677 0.360131 0.661349 -0.137568
I4    I     I_    0.789530 0.641955 0.340229 -0.194741
I5    I     I_    0.087038 0.213369 0.565603 -0.159045
I6    I     I_    0.914166 0.786510 0.434972 -0.273768
I7    I     I_    0.801505 0.390010 0.252268 -0.250135
I8    I     I_    0.202278 0.603062 0.765258 -0.314395
C55   C     C_2   0.317157 0.430252 0.213884 0.423985
H11   H     H_    0.351271 0.374694 0.241283 0.073609
O11   O     O_2   0.250388 0.473437 0.267173 -0.486610
C56   C     C_2   0.582681 0.310820 0.857230 0.389835
H12   H     H_    0.511231 0.282696 0.857327 0.115555
O12   O     O_2   0.662291 0.295492 0.795341 -0.513110
I9    I     I_    0.434623 0.242295 0.709490 -0.303445
I10   I     I_    0.559504 0.755588 0.287251 -0.227580
C57   C     C_2   0.665061 0.116680 0.252192 0.465012
H13   H     H_    0.719090 0.166849 0.255290 0.072436
O13   O     O_2   0.648528 0.110439 0.180738 -0.452138
C58   C     C_2   0.330122 0.884193 0.743019 0.354892
H14   H     H_    0.284995 0.827709 0.737853 0.106635
O14   O     O_2   0.333752 0.899260 0.817902 -0.502457
C59   C     C_2   0.704029 0.923219 0.266512 0.462070
H15   H     H_    0.739953 0.864889 0.287387 0.106152
O15   O     O_2   0.736755 0.950975 0.186184 -0.444456
C60   C     C_2   0.291143 0.073404 0.728784 0.454716
H16   H     H_    0.269455 0.051013 0.800544 0.140120
O16   O     O_2   0.238068 0.129504 0.706256 -0.477259

loop_
_geom_bond_atom_site_label_1
_geom_bond_atom_site_label_2
_ccdc_geom_bond_type
C55   H11   S    
C59   H15   S    
C27   C29   A    
C18   C21   A    
C11   C13   A    
C23   O5    A    
C57   H13   S    
Cu1   O5    S    
C60   O16   D    
C24   O6    A    
C47   C49   A    
Cu1   Cu2   S    
C40   C46   A    
C26   C54   S    
C35   C37   A    
C2    O4    A    
C54   O10   D    
C15   C16   A    
C34   C37   A    
C12   H8    S    
C15   C17   A    
C25   N1    A    
Cu1   O4    S    
C26   N2    A    
C1    O3    A    
C26   C34   A    
Cu2   O7    S    
C7    C17   A    
C1    O1    A    
C31   C33   A    
Cu1   O1    S    
C39   C45   A    
C21   C59   S    
C48   C50   A    
C59   O15   D    
C41   C43   A    
C5    C49   A    
C42   C44   A    
C41   C49   A    
C60   H16   S    
C6    I2    S    
C4    C56   S    
C45   C47   A    
C7    I9    S    
C46   C48   A    
C45   H4    S    
C13   C19   A    
C4    C51   A    
C3    C55   S    
C51   C52   A    
C23   O7    A    
C27   I3    S    
C8    I10   S    
C41   H5    S    
C4    C6    A    
C42   H6    S    
C35   I5    S    
C54   H10   S    
C39   C43   A    
Cu2   O3    S    
C3    C5    A    
C28   I4    S    
C8    C18   A    
C25   C53   S    
C32   C34   A    
C2    C9    S    
C53   H9    S    
C14   C20   A    
C9    C11   A    
C56   O12   D    
C31   C32   A    
Cu2   O6    S    
C40   C44   A    
C38   H2    S    
C6    C50   A    
C53   O9    D    
C10   C12   A    
C42   C50   A    
C28   N2    A    
C16   C18   A    
C12   C14   A    
C58   O14   D    
C13   C15   A    
C46   H3    S    
C14   C16   A    
C44   I7    S    
C19   C57   S    
C24   O8    A    
C7    C9    A    
C19   C21   A    
C43   I8    S    
C1    C10   S    
C33   C38   A    
C20   C22   A    
C11   H7    S    
C47   C51   A    
C3    C52   A    
C57   O13   D    
C2    O2    A    
Cu2   O2    S    
C29   C35   A    
C17   C22   A    
C30   C36   A    
C28   C30   A    
C22   C60   S    
C29   C31   A    
C30   C32   A    
Cu1   N1    S    
C56   H12   S    
Cu2   N2    S    
C36   I6    S    
C23   C39   S    
C36   C38   A    
C24   C40   S    
C5    I1    S    
C37   H1    S    
C48   C52   A    
C20   C58   S    
C8    C10   A    
C58   H14   S    
C55   O11   D    
C27   N1    A    
Cu1   O8    S    
C25   C33   A    
