data_mof_unit_16147.cif
_audit_creation_date              2012-12-11T15:29:28-0500
_audit_creation_method            fapswitch 2.2
_symmetry_space_group_name_H-M    P1
_symmetry_Int_Tables_number       1
_space_group_crystal_system       triclinic
_cell_length_a                    13.49614
_cell_length_b                    13.492255
_cell_length_c                    27.571888
_cell_angle_alpha                 90.456885
_cell_angle_beta                  90.03612
_cell_angle_gamma                 60.037098
_cell_volume                      4349.47082399

loop_
_atom_site_label
_atom_site_type_symbol
_atom_type_description
_atom_site_fract_x
_atom_site_fract_y
_atom_site_fract_z
_atom_type_partial_charge
C1    C     C_R   0.620350 0.101121 0.569894 0.545631
C2    C     C_1   0.631370 0.731479 0.615884 -0.016277
C3    C     C_3   0.699516 0.560761 0.767129 -0.101373
C4    C     C_3   0.679565 0.654528 0.804385 0.052810
C5    C     C_3   0.590385 0.648152 0.740026 -0.099128
C6    C     C_3   0.663758 0.682808 0.709931 0.052792
C7    C     C_3   0.570652 0.741452 0.778013 -0.102098
C8    C     C_3   0.643826 0.776586 0.747178 -0.103010
C9    C     C_1   0.688286 0.633821 0.856592 -0.059715
C10   C     C_1   0.649844 0.704127 0.657785 -0.059007
C11   C     C_3   0.091042 0.132736 0.737351 -0.101835
C12   C     C_R   0.599777 0.779168 0.568432 0.546295
C13   C     C_3   0.182970 0.059355 0.775392 -0.100376
C14   C     C_1   0.097562 0.200258 0.900257 -0.016844
C15   C     C_1   0.229764 0.137462 0.617096 -0.016414
C16   C     C_3   0.055527 0.241284 0.768704 -0.101443
C17   C     C_3   0.147884 0.167732 0.805894 0.052784
C18   C     C_3   0.144102 0.262257 0.741944 -0.099129
C19   C     C_3   0.179222 0.153996 0.711360 0.052680
C20   C     C_3   0.235989 0.188968 0.779834 -0.101920
C21   C     C_3   0.271609 0.080401 0.748527 -0.102916
C22   C     C_1   0.125332 0.181075 0.858191 -0.059240
C23   C     C_R   0.277798 0.121580 0.569389 0.545555
C24   C     C_1   0.201840 0.146288 0.659109 -0.059021
C25   C     C_3   0.629324 0.276577 0.738780 -0.101682
C26   C     C_3   0.555149 0.258329 0.776682 -0.100040
C27   C     C_1   0.691488 0.206867 0.901364 -0.016812
C28   C     C_1   0.635707 0.133082 0.617817 -0.016200
C29   C     C_3   0.737172 0.203910 0.769862 -0.101378
C30   C     C_3   0.662840 0.185391 0.806930 0.052851
C31   C     C_3   0.758614 0.094128 0.742617 -0.099319
C32   C     C_3   0.651015 0.166943 0.712304 0.052597
C33   C     C_3   0.684523 0.075826 0.780402 -0.102196
C34   C     C_R   0.621735 0.100239 0.431467 0.542985
C35   C     C_3   0.576647 0.148427 0.749347 -0.102984
C36   C     C_1   0.674480 0.195994 0.859270 -0.059135
C37   C     C_1   0.644065 0.152000 0.659959 -0.059081
C38   C     C_R   0.619650 0.752823 0.378085 0.035315
C39   C     C_R   0.729936 0.696786 0.358025 -0.128404
C40   C     C_R   0.743315 0.687277 0.307675 -0.117202
C41   C     C_R   0.646351 0.737389 0.277695 0.033333
C42   C     C_R   0.537177 0.798810 0.298186 -0.125889
C43   C     C_R   0.523985 0.803798 0.347729 -0.118071
C44   C     C_R   0.580478 0.682860 0.204875 -0.130499
C45   C     C_R   0.599382 0.780900 0.429364 0.537769
C46   C     C_R   0.592940 0.648885 0.157166 -0.137318
C47   C     C_R   0.754148 0.681912 0.148464 -0.007940
C48   C     C_R   0.739796 0.716764 0.197276 -0.106698
C49   C     C_R   0.655612 0.713664 0.225687 0.023371
C50   C     C_R   0.683305 0.641055 0.129019 0.028602
C51   C     C_R   0.216758 0.143720 0.385242 0.024730
C52   C     C_R   0.217413 0.053500 0.359461 -0.136169
C53   C     C_R   0.193205 0.064367 0.310200 -0.125391
C54   C     C_R   0.162838 0.167543 0.286595 0.039023
C55   C     C_R   0.149024 0.261948 0.313830 -0.120793
C56   C     C_R   0.277319 0.121175 0.431446 0.540454
C57   C     C_R   0.176658 0.249908 0.362755 -0.125852
C58   C     C_R   0.178691 0.243911 0.206366 -0.120235
C59   C     C_R   0.153376 0.260669 0.157105 -0.137294
C60   C     C_R   0.074902 0.133704 0.161164 -0.124563
C61   C     C_R   0.097361 0.119410 0.210370 -0.123273
C62   C     C_R   0.146903 0.176463 0.233721 0.036075
C63   C     C_R   0.098396 0.208066 0.134544 0.022602
C64   C     C_R   0.639846 0.139019 0.384625 0.023514
C65   C     C_R   0.546200 0.229245 0.361097 -0.124576
C66   C     C_R   0.552823 0.248335 0.312187 -0.121084
C67   C     C_3   0.772768 0.595815 0.736242 -0.101599
C68   C     C_R   0.653843 0.179047 0.286266 0.036853
C69   C     C_R   0.750612 0.095291 0.310694 -0.118587
C70   C     C_R   0.743523 0.074966 0.359590 -0.124172
C71   C     C_R   0.716001 0.095145 0.203608 -0.121306
C72   C     C_R   0.728843 0.107878 0.154447 -0.131134
C73   C     C_R   0.614829 0.314120 0.163947 -0.129013
C74   C     C_R   0.603647 0.301469 0.213188 -0.124241
C75   C     C_R   0.657258 0.192065 0.233630 0.035894
C76   C     C_R   0.681646 0.217620 0.134734 0.024955
C77   C     C_R   0.049837 0.234898 0.947962 0.547571
C78   C     C_3   0.753065 0.689158 0.774365 -0.100456
C79   C     C_R   0.711948 0.561931 0.946434 0.544117
C80   C     C_R   0.722577 0.224144 0.949096 0.544865
C81   C     C_R   0.047141 0.243820 0.086567 0.541585
C82   C     C_R   0.708178 0.574295 0.083787 0.534770
C83   C     C_R   0.719683 0.233085 0.087341 0.540077
C84   C     C_1   0.697270 0.607606 0.898642 -0.017300
Cr1   Cr    Cr6+3 0.417550 0.169090 0.500530 1.019615
Cr2   Cr    Cr6+3 0.669180 0.913420 0.499920 1.024614
Cr3   Cr    Cr6+3 0.413260 0.917540 0.499520 1.019845
Cr4   Cr    Cr6+3 0.909770 0.175810 0.018240 1.017874
Cr5   Cr    Cr6+3 0.913300 0.427650 0.016090 1.004478
Cr6   Cr    Cr6+3 0.657770 0.431010 0.016900 1.017950
H1    H     H_    0.819533 0.706460 0.789133 0.103465
H2    H     H_    0.295810 0.211658 0.797722 0.102894
H3    H     H_    0.127655 0.345822 0.727665 0.104047
H4    H     H_    0.966276 0.307825 0.777582 0.099241
H5    H     H_    0.471406 0.325480 0.791283 0.103943
H6    H     H_    0.607128 0.358842 0.721209 0.102668
H7    H     H_    0.510332 0.125520 0.740300 0.100458
H8    H     H_    0.706785 0.993500 0.797934 0.102728
H9    H     H_    0.842427 0.026946 0.728077 0.104010
H10   H     H_    0.803568 0.226723 0.778877 0.099418
H11   H     H_    0.804629 0.660458 0.381134 0.109812
H12   H     H_    0.855549 0.535747 0.718561 0.102971
H13   H     H_    0.515149 0.678952 0.226218 0.104094
H14   H     H_    0.535723 0.620530 0.143678 0.130621
H15   H     H_    0.828405 0.638822 0.292265 0.101623
H16   H     H_    0.794906 0.745146 0.213256 0.097356
H17   H     H_    0.461433 0.840760 0.275748 0.108504
H18   H     H_    0.438383 0.851877 0.362335 0.130231
H19   H     H_    0.244573 0.971864 0.376425 0.117045
H20   H     H_    0.220507 0.285971 0.223233 0.102995
H21   H     H_    0.172775 0.317793 0.137181 0.118773
H22   H     H_    0.620853 0.865699 0.738324 0.100708
H23   H     H_    0.204014 0.990075 0.290332 0.094606
H24   H     H_    0.070611 0.068039 0.230393 0.101023
H25   H     H_    0.031452 0.092595 0.144879 0.136898
H26   H     H_    0.120610 0.344053 0.297028 0.097472
H27   H     H_    0.172764 0.321852 0.382204 0.124503
H28   H     H_    0.464964 0.280167 0.379468 0.131478
H29   H     H_    0.754817 0.009708 0.218387 0.102022
H30   H     H_    0.780124 0.032367 0.132366 0.116878
H31   H     H_    0.476987 0.313344 0.294190 0.099692
H32   H     H_    0.558143 0.377536 0.235587 0.102472
H33   H     H_    0.487809 0.801514 0.795657 0.102858
H34   H     H_    0.578542 0.399804 0.149631 0.126040
H35   H     H_    0.830662 0.043264 0.291649 0.100488
H36   H     H_    0.817154 0.005562 0.377047 0.127434
H37   H     H_    0.523869 0.630822 0.725329 0.104208
H38   H     H_    0.722401 0.471670 0.775976 0.098931
H39   H     H_    0.199375 0.975874 0.789746 0.103836
H40   H     H_    0.031219 0.110118 0.719419 0.102983
H41   H     H_    0.360875 0.013953 0.739615 0.100405
O1    O     O_R   0.301780 0.195490 0.553940 -0.507570
O2    O     O_R   0.658840 0.818280 0.449970 -0.497884
O3    O     O_R   0.503160 0.801780 0.445740 -0.523635
O4    O     O_R   0.319320 0.022190 0.450230 -0.508045
O5    O     O_3   0.499990 0.000010 0.499990 -0.245637
O6    O     O_R   0.819250 0.149410 0.965240 -0.508460
O7    O     O_R   0.006940 0.180310 0.968270 -0.493455
O8    O     O_R   0.028420 0.332670 0.963010 -0.507780
O9    O     O_R   0.810130 0.520390 0.966030 -0.497925
O10   O     O_R   0.636050 0.541380 0.962520 -0.505989
O11   O     O_R   0.666480 0.323610 0.968170 -0.493646
O12   O     O_R   0.522450 0.158840 0.550250 -0.494231
O13   O     O_R   0.817280 0.156800 0.072180 -0.523382
O14   O     O_R   0.005110 0.187160 0.067410 -0.504492
O15   O     O_R   0.026450 0.340060 0.069950 -0.527192
O16   O     O_R   0.808300 0.527240 0.065170 -0.505745
O17   O     O_R   0.634070 0.548770 0.069460 -0.526047
O18   O     O_R   0.664650 0.330470 0.067300 -0.504314
O19   O     O_3   0.826940 0.344820 0.017080 -0.240874
O20   O     O_R   0.694460 0.003360 0.553820 -0.507552
O21   O     O_R   0.657750 0.819520 0.549120 -0.494742
O22   O     O_R   0.501990 0.803120 0.552700 -0.505567
O23   O     O_R   0.318230 0.023430 0.549370 -0.493750
O24   O     O_R   0.302950 0.194150 0.446980 -0.522105
O25   O     O_R   0.523540 0.157600 0.451100 -0.505548
O26   O     O_R   0.695630 0.002030 0.446860 -0.516641
C85   C     C_3   0.844457 0.690441 0.119316 -0.246573
C86   C     C_3   0.964468 0.593932 0.132601 -0.282904
C87   C     C_3   0.055114 0.591592 0.098848 -0.438363
H42   H     H_    0.039363 0.575011 0.060886 0.162212
H43   H     H_    0.053945 0.674440 0.100762 0.143149
H44   H     H_    0.140994 0.522255 0.109925 0.135524
H45   H     H_    0.984597 0.606137 0.170525 0.139618
H46   H     H_    0.967782 0.510171 0.130359 0.206363
H47   H     H_    0.829098 0.690295 0.079804 0.159933
H48   H     H_    0.838382 0.774350 0.127105 0.122218

loop_
_geom_bond_atom_site_label_1
_geom_bond_atom_site_label_2
_ccdc_geom_bond_type
C44   C49   A    
C58   C62   A    
C66   C68   A    
C41   C42   A    
C73   C74   A    
C12   O21   A    
C12   O22   A    
Cr6   O19   S    
C2    C12   S    
Cr1   O12   S    
C82   O16   A    
C7    C8    S    
C53   C54   A    
C68   C75   S    
C34   O25   A    
C20   H2    S    
C11   C19   S    
C45   O3    A    
Cr2   O20   S    
C63   C81   S    
C60   C63   A    
C5    C6    S    
C52   H19   S    
C19   C21   S    
C51   C56   S    
Cr6   O18   S    
Cr1   O1    S    
C79   C84   S    
C45   O2    A    
C55   H26   S    
C80   O6    A    
C17   C20   S    
C18   C19   S    
C33   H8    S    
Cr1   O24   S    
C14   C77   S    
C21   H41   S    
C38   C45   S    
Cr6   O17   S    
C48   H16   S    
C31   C32   S    
C44   C46   A    
C16   C17   S    
Cr5   O8    S    
Cr1   O5    S    
C1    C28   S    
C59   H21   S    
C65   H28   S    
Cr3   O22   S    
C51   C57   A    
C31   H9    S    
C42   H17   S    
C30   C33   S    
C72   C76   A    
Cr5   O9    S    
C25   C32   S    
C15   C23   S    
C79   O9    A    
C31   C33   S    
C69   H35   S    
C8    C78   S    
Cr3   O3    S    
C5    H37   S    
C69   C70   A    
C67   C78   S    
Cr4   O19   S    
C56   O24   A    
C76   C83   S    
C41   C49   S    
C44   H13   S    
C53   H23   S    
C85   H48   S    
C39   H11   S    
C47   C50   A    
C25   C29   S    
Cr5   O15   S    
C66   H31   S    
C74   C75   A    
C51   C52   A    
C32   C35   S    
Cr3   O4    S    
C38   C39   A    
C77   O7    A    
C27   C80   S    
C39   C40   A    
C5    C7    S    
C3    H38   S    
C68   C69   A    
C6    C8    S    
C54   C62   S    
C4    C7    S    
C25   C26   S    
C46   H14   S    
C86   H46   S    
C60   C61   A    
Cr1   O25   S    
C87   H43   S    
C64   C70   A    
C87   H44   S    
C4    C78   S    
C29   C30   S    
C1    O12   A    
Cr2   O21   S    
C11   C16   S    
Cr2   O2    S    
C47   C48   A    
Cr4   O14   S    
C73   H34   S    
C72   H30   S    
C34   C64   S    
Cr3   O23   S    
C13   C21   S    
C32   C37   S    
Cr4   O7    S    
Cr6   O11   S    
Cr2   O5    S    
C15   C24   T    
C74   H32   S    
C26   C30   S    
C81   O14   A    
C55   C57   A    
C86   C87   S    
C85   C86   S    
C27   C36   T    
C73   C76   A    
C42   C43   A    
C3    C4    S    
C2    C10   T    
C11   H40   S    
Cr5   O19   S    
C56   O4    A    
C52   C53   A    
C50   C82   S    
C57   H27   S    
C26   H5    S    
Cr5   O16   S    
C54   C55   A    
C40   C41   A    
C80   O11   A    
C29   H10   S    
C58   H20   S    
C59   C63   A    
Cr3   O5    S    
C3    C67   S    
C77   O8    A    
C7    H33   S    
C3    C5    S    
C6    C10   S    
C82   O17   A    
C71   H29   S    
C78   H1    S    
C46   C50   A    
C16   H4    S    
C17   C22   S    
C30   C36   S    
C64   C65   A    
C14   C22   T    
C8    H22   S    
C19   C24   S    
C58   C59   A    
C38   C43   A    
C29   C31   S    
C6    C67   S    
C83   O13   A    
C87   H42   S    
C71   C75   A    
C11   C13   S    
C70   H36   S    
C79   O10   A    
C28   C37   T    
C48   C49   A    
C33   C35   S    
C23   O1    A    
C1    O20   A    
C18   C20   S    
C43   H18   S    
C65   C66   A    
C61   C62   A    
Cr2   O26   S    
Cr4   O6    S    
Cr6   O10   S    
C9    C84   T    
C13   C17   S    
C85   H47   S    
C26   C35   S    
C71   C72   A    
C20   C21   S    
C25   H6    S    
C16   C18   S    
C81   O15   A    
C23   O23   A    
C61   H24   S    
C18   H3    S    
C13   H39   S    
C86   H45   S    
C60   H25   S    
C4    C9    S    
C35   H7    S    
Cr4   O13   S    
C34   O26   A    
C67   H12   S    
C40   H15   S    
C83   O18   A    
C47   C85   S    
