data_mof_unit_14954.cif
_audit_creation_date              2012-12-10T17:57:52-0500
_audit_creation_method            fapswitch 2.2
_symmetry_space_group_name_H-M    P1
_symmetry_Int_Tables_number       1
_space_group_crystal_system       triclinic
_cell_length_a                    10.833217
_cell_length_b                    9.515113
_cell_length_c                    15.065527
_cell_angle_alpha                 89.982414
_cell_angle_beta                  90.223063
_cell_angle_gamma                 90.02288
_cell_volume                      1552.93176976

loop_
_atom_site_label
_atom_site_type_symbol
_atom_type_description
_atom_site_fract_x
_atom_site_fract_y
_atom_site_fract_z
_atom_type_partial_charge
C1    C     C_R   0.262050 0.499985 0.499958 0.777622
C2    C     C_R   0.737950 0.500015 0.500042 0.777653
C3    C     C_R   0.368189 0.705117 0.049394 -0.221722
C4    C     C_R   0.631695 0.294835 0.950609 -0.221694
C5    C     C_R   0.063790 0.372293 0.498557 -0.178167
C6    C     C_R   0.936210 0.627707 0.501443 -0.178169
C7    C     C_R   0.936085 0.372311 0.498592 -0.183497
C8    C     C_R   0.063915 0.627689 0.501408 -0.183478
C9    C     C_R   0.871787 0.500019 0.500027 -0.018728
C10   C     C_R   0.128213 0.499981 0.499973 -0.018699
C11   C     C_R   0.422598 0.074417 0.445195 -0.001976
C12   C     C_R   0.577402 0.925582 0.554805 -0.002035
C13   C     C_R   0.577402 0.074446 0.554807 -0.017011
C14   C     C_R   0.422598 0.925554 0.445193 -0.017011
C15   C     C_R   0.503804 0.500024 0.328814 0.808572
C16   C     C_R   0.496174 0.499975 0.671186 0.808494
C17   C     C_R   0.558309 0.397242 0.813348 -0.286146
C18   C     C_R   0.441614 0.602741 0.186655 -0.286189
C19   C     C_R   0.490146 0.499416 0.767829 -0.169225
C20   C     C_R   0.509789 0.500574 0.232170 -0.169189
C21   C     C_R   0.420563 0.600838 0.815003 0.344686
C22   C     C_R   0.579318 0.399114 0.184996 0.344617
C23   C     C_R   0.427028 0.602930 0.908080 0.075721
C24   C     C_R   0.572843 0.397011 0.091920 0.075674
C25   C     C_R   0.497403 0.499969 0.953351 0.006187
C26   C     C_R   0.502467 0.499973 0.046652 0.006214
C27   C     C_R   0.562313 0.396555 0.905571 0.114456
C28   C     C_R   0.437573 0.603400 0.094432 0.114464
C29   C     C_R   0.362679 0.704828 0.957081 -0.152756
C30   C     C_R   0.637194 0.295114 0.042921 -0.152792
Cu1   Cu    Cu3+1 0.500000 0.640660 0.500000 0.953208
Cu2   Cu    Cu3+1 0.500000 0.359340 0.500000 0.953263
H1    H     H_    0.610747 0.319634 0.776578 0.162360
H2    H     H_    0.389193 0.680364 0.223427 0.162359
H3    H     H_    0.307906 0.784887 0.924385 0.196620
H4    H     H_    0.691981 0.215067 0.075619 0.196602
H5    H     H_    0.317771 0.784842 0.085635 0.147892
H6    H     H_    0.682133 0.215127 0.914366 0.147884
H7    H     H_    0.111774 0.272455 0.497367 0.150315
H8    H     H_    0.888225 0.727545 0.502633 0.150317
H9    H     H_    0.888000 0.272480 0.497450 0.151618
H10   H     H_    0.112000 0.727520 0.502550 0.151613
H11   H     H_    0.360599 0.130543 0.401305 0.122140
H12   H     H_    0.639401 0.869457 0.598695 0.122144
H13   H     H_    0.639385 0.130597 0.598710 0.115515
H14   H     H_    0.360615 0.869403 0.401290 0.115514
N1    N     N_R   0.500000 0.852070 0.500000 -0.159542
N2    N     N_R   0.500000 0.147930 0.500000 -0.159537
O1    O     O_R   0.319640 0.618740 0.499990 -0.593847
O2    O     O_R   0.680360 0.381260 0.500010 -0.593815
O3    O     O_R   0.680360 0.618740 0.500010 -0.588943
O4    O     O_R   0.319640 0.381260 0.499990 -0.588958
O5    O     O_R   0.499970 0.618800 0.370260 -0.580384
O6    O     O_R   0.500030 0.381200 0.629740 -0.580353
O7    O     O_R   0.500030 0.618800 0.629740 -0.566741
O8    O     O_R   0.499970 0.381200 0.370260 -0.566597
O9    O     O_3   0.344447 0.696606 0.772672 -0.737535
H15   H     H_    0.314261 0.655032 0.716406 0.329279
O10   O     O_3   0.655384 0.303312 0.227335 -0.737450
H16   H     H_    0.685796 0.345030 0.283498 0.329183

loop_
_geom_bond_atom_site_label_1
_geom_bond_atom_site_label_2
_ccdc_geom_bond_type
C13   N2    A    
C13   H13   S    
C5    C7    A    
C21   O9    S    
C14   N1    A    
C25   C27   A    
Cu2   N2    S    
C29   H3    S    
C26   C28   A    
Cu1   Cu2   S    
C30   H4    S    
C8    H10   S    
C15   O8    A    
C4    C27   A    
C6    C9    A    
C5    H7    S    
C11   N2    A    
C16   O7    A    
O10   H16   S    
C14   H14   S    
Cu1   N1    S    
Cu1   O5    S    
C11   H11   S    
C18   H2    S    
Cu2   O2    S    
O9    H15   S    
C17   H1    S    
Cu1   O1    S    
C12   N1    A    
C23   C29   A    
Cu2   O6    S    
C3    C28   A    
C11   C14   A    
C4    H6    S    
C22   C24   A    
C23   C25   A    
C21   C23   A    
C16   C19   S    
C15   C20   S    
C1    O4    A    
C16   O6    A    
C24   C30   A    
C2    O3    A    
C17   C19   A    
C17   C27   A    
C15   O5    A    
C5    C10   A    
C6    H8    S    
C18   C28   A    
C12   C13   A    
C3    H5    S    
C18   C20   A    
C12   H12   S    
Cu1   O3    S    
C22   O10   S    
C3    C29   A    
C7    C9    A    
Cu2   O4    S    
C6    C8    A    
C2    O2    A    
Cu1   O7    S    
C25   C26   A    
C2    C9    S    
C1    O1    A    
Cu2   O8    S    
C8    C10   A    
C4    C30   A    
C1    C10   S    
C24   C26   A    
C7    H9    S    
C20   C22   A    
C19   C21   A    
