data_mof_unit_34939.cif
_audit_creation_date              2012-12-11T15:48:47-0500
_audit_creation_method            fapswitch 2.2
_symmetry_space_group_name_H-M    P1
_symmetry_Int_Tables_number       1
_space_group_crystal_system       triclinic
_cell_length_a                    10.907864
_cell_length_b                    11.043806
_cell_length_c                    18.753293
_cell_angle_alpha                 90.433786
_cell_angle_beta                  90.025434
_cell_angle_gamma                 60.21932
_cell_volume                      1960.67945141

loop_
_atom_site_label
_atom_site_type_symbol
_atom_type_description
_atom_site_fract_x
_atom_site_fract_y
_atom_site_fract_z
_atom_type_partial_charge
C1    C     C_R   0.237240 0.646508 0.609551 0.543519
C2    C     C_R   0.581310 0.125728 0.704563 -0.186237
C3    C     C_R   0.591257 0.113702 0.777344 -0.193348
C4    C     C_R   0.651716 0.619020 0.602178 0.549036
C5    C     C_3   0.919320 0.136613 0.781169 -0.273209
C6    C     C_3   0.901987 0.168281 0.701920 -0.276922
C7    C     C_R   0.681888 0.141725 0.666128 0.013012
C8    C     C_R   0.171642 0.674102 0.832828 0.037162
C9    C     C_R   0.154761 0.575672 0.793231 0.015174
C10   C     C_R   0.163799 0.571983 0.719359 -0.006161
C11   C     C_R   0.189867 0.776035 0.722384 -0.164439
C12   C     C_3   0.646412 0.563707 0.803066 -0.114987
C13   C     C_R   0.189837 0.774054 0.796192 -0.157325
C14   C     C_3   0.238591 0.420419 0.797744 -0.284023
C15   C     C_3   0.248119 0.417075 0.717213 -0.268768
C16   C     C_R   0.631059 0.223686 0.601087 0.547466
C17   C     C_R   0.185153 0.669608 0.682663 0.013851
C18   C     C_R   0.674545 0.681410 0.174129 0.018863
C19   C     C_R   0.795255 0.612495 0.216716 0.050560
C20   C     C_R   0.788969 0.610666 0.289523 0.016615
C21   C     C_R   0.535992 0.757540 0.282748 -0.162405
C22   C     C_R   0.544337 0.762960 0.208215 -0.184957
C23   C     C_3   0.697472 0.671131 0.813151 0.047608
C24   C     C_3   0.918348 0.467742 0.212584 -0.259846
C25   C     C_3   0.917733 0.469018 0.293435 -0.277996
C26   C     C_R   0.658161 0.670942 0.323330 0.016659
C27   C     C_R   0.627297 0.197454 0.166704 0.018840
C28   C     C_R   0.220725 0.648935 0.402206 0.547192
C29   C     C_R   0.511092 0.210242 0.204646 0.015343
C30   C     C_R   0.494524 0.245017 0.275741 0.008683
C31   C     C_R   0.688877 0.288576 0.270105 -0.164170
C32   C     C_R   0.708059 0.250509 0.197670 -0.168413
C33   C     C_3   0.462160 0.106766 0.214632 -0.264699
C34   C     C_3   0.665473 0.643082 0.677793 0.050030
C35   C     C_3   0.444437 0.144745 0.292998 -0.266253
C36   C     C_R   0.589861 0.273410 0.311248 0.017064
C37   C     C_R   0.117307 0.692204 0.188228 0.029144
C38   C     C_R   0.055296 0.810257 0.232760 0.046586
C39   C     C_R   0.071785 0.799037 0.305165 0.016661
C40   C     C_R   0.642719 0.624089 0.393019 0.545037
C41   C     C_R   0.192671 0.548416 0.291840 -0.168456
C42   C     C_R   0.178970 0.560258 0.218254 -0.178027
C43   C     C_3   0.065755 0.940056 0.230874 -0.265331
C44   C     C_3   0.081009 0.929651 0.311080 -0.278236
C45   C     C_3   0.823917 0.585148 0.694967 -0.246636
C46   C     C_R   0.151104 0.667682 0.335053 0.021741
C47   C     C_R   0.726468 0.046206 0.888511 0.546948
C48   C     C_R   0.724729 0.688734 0.888099 0.551297
C49   C     C_R   0.115178 0.708107 0.904876 0.545609
C50   C     C_R   0.672020 0.111895 0.102440 0.548457
C51   C     C_R   0.697565 0.691568 0.098654 0.549662
C52   C     C_R   0.578799 0.295389 0.388227 0.567539
C53   C     C_R   0.088861 0.712804 0.113624 0.532818
C54   C     C_3   0.592677 0.813333 0.778381 -0.238931
C55   C     C_3   0.584868 0.799379 0.697322 -0.251723
C56   C     C_3   0.600697 0.569918 0.724384 -0.218545
C57   C     C_3   0.840021 0.616595 0.772373 -0.244378
C58   C     C_R   0.543443 0.564284 0.859433 0.014311
C59   C     C_R   0.553261 0.436146 0.876520 -0.107640
C60   C     C_R   0.490283 0.421380 0.938396 -0.115973
C61   C     C_R   0.416961 0.534095 0.984623 -0.102016
C62   C     C_R   0.400866 0.663507 0.967380 -0.087723
C63   C     C_R   0.458824 0.679884 0.904229 -0.074211
C64   C     C_R   0.716520 0.083983 0.813125 -0.003853
C65   C     C_R   0.830745 0.068907 0.771966 0.022392
C66   C     C_R   0.811810 0.102230 0.699565 0.021664
Cr1   Cr    Cr6+3 0.392960 0.397920 0.502240 0.996516
Cr2   Cr    Cr6+3 0.398340 0.708480 0.501250 0.995914
Cr3   Cr    Cr6+3 0.708670 0.393570 0.496460 0.999053
Cr4   Cr    Cr6+3 0.937650 0.938540 0.007610 0.995302
Cr5   Cr    Cr6+3 0.625330 0.937370 0.994520 0.979742
Cr6   Cr    Cr6+3 0.937940 0.625230 0.001190 1.000638
H1    H     H_    0.635672 0.881825 0.789214 0.142804
H2    H     H_    0.001574 0.106942 0.671176 0.132986
H3    H     H_    0.206788 0.854461 0.697180 0.133184
H4    H     H_    0.484765 0.862391 0.800972 0.108687
H5    H     H_    0.201966 0.852759 0.824828 0.122067
H6    H     H_    0.175372 0.374592 0.818561 0.130160
H7    H     H_    0.342052 0.382796 0.824212 0.147917
H8    H     H_    0.356510 0.381231 0.697482 0.173797
H9    H     H_    0.190649 0.369328 0.691076 0.128881
H10   H     H_    0.432692 0.811330 0.307476 0.137104
H11   H     H_    0.449727 0.826361 0.177577 0.116250
H12   H     H_    0.632811 0.463523 0.704431 0.108146
H13   H     H_    0.012694 0.462737 0.188215 0.156801
H14   H     H_    0.889426 0.392753 0.189331 0.126567
H15   H     H_    0.903170 0.386039 0.316960 0.148209
H16   H     H_    0.471965 0.849069 0.681264 0.131962
H17   H     H_    0.007689 0.474027 0.317265 0.141801
H18   H     H_    0.757621 0.318954 0.295132 0.130232
H19   H     H_    0.793538 0.249749 0.168144 0.113803
H20   H     H_    0.548062 0.998684 0.203926 0.168326
H21   H     H_    0.360631 0.137978 0.187040 0.130403
H22   H     H_    0.332382 0.197776 0.310808 0.126741
H23   H     H_    0.925476 0.519315 0.796258 0.141425
H24   H     H_    0.519282 0.057460 0.327338 0.163740
H25   H     H_    0.246713 0.445360 0.314272 0.141504
H26   H     H_    0.221098 0.467343 0.185085 0.117355
H27   H     H_    0.966307 0.031184 0.213190 0.153666
H28   H     H_    0.632645 0.854539 0.669360 0.127431
H29   H     H_    0.162578 0.924742 0.203049 0.133103
H30   H     H_    0.185149 0.913340 0.328715 0.154470
H31   H     H_    0.988565 0.014481 0.339680 0.148545
H32   H     H_    0.873443 0.696792 0.774644 0.128737
H33   H     H_    0.870178 0.632711 0.659545 0.127416
H34   H     H_    0.884840 0.470350 0.686201 0.131349
H35   H     H_    0.743218 0.460583 0.809007 0.114710
H36   H     H_    0.483657 0.629743 0.720977 0.138704
H37   H     H_    0.614699 0.346438 0.843036 0.117691
H38   H     H_    0.500267 0.322144 0.951621 0.161906
H39   H     H_    0.370611 0.521752 0.033111 0.113415
H40   H     H_    0.341588 0.752067 0.002548 0.126331
H41   H     H_    0.439779 0.782798 0.893151 0.110459
H42   H     H_    0.484412 0.140783 0.680590 0.139475
H43   H     H_    0.500683 0.120375 0.804784 0.144301
H44   H     H_    0.029665 0.062806 0.795855 0.132747
H45   H     H_    0.868490 0.230057 0.816150 0.126773
H46   H     H_    0.844384 0.280788 0.689992 0.144410
O1    O     O_R   0.507380 0.255700 0.581440 -0.533255
O2    O     O_R   0.837170 0.593410 0.915250 -0.523739
O3    O     O_R   0.065200 0.635530 0.931570 -0.504748
O4    O     O_R   0.280320 0.527350 0.578930 -0.503286
O5    O     O_R   0.068260 0.828890 0.091840 -0.530254
O6    O     O_R   0.798870 0.057410 0.079340 -0.500615
O7    O     O_R   0.584930 0.080350 0.076780 -0.524595
O8    O     O_R   0.626960 0.809650 0.067060 -0.506851
O9    O     O_R   0.816040 0.596610 0.076510 -0.515007
O10   O     O_R   0.045610 0.638500 0.081060 -0.509413
O11   O     O_3   0.833640 0.833710 0.001100 -0.260416
O12   O     O_R   0.524480 0.695810 0.424040 -0.509030
O13   O     O_R   0.260510 0.739590 0.584590 -0.529470
O14   O     O_R   0.532300 0.695080 0.573820 -0.507551
O15   O     O_R   0.744840 0.503500 0.576370 -0.530368
O16   O     O_R   0.699120 0.276560 0.571960 -0.499555
O17   O     O_R   0.498940 0.256500 0.419860 -0.521404
O18   O     O_R   0.272500 0.528080 0.429150 -0.527438
O19   O     O_R   0.252060 0.740380 0.423010 -0.523498
O20   O     O_R   0.736390 0.504290 0.414790 -0.533812
O21   O     O_R   0.691300 0.277290 0.422170 -0.508593
O22   O     O_3   0.499990 0.499990 0.499980 -0.269223
O23   O     O_R   0.089400 0.825690 0.930570 -0.539924
O24   O     O_R   0.818460 0.054440 0.929850 -0.495244
O25   O     O_R   0.606060 0.077150 0.915510 -0.555010
O26   O     O_R   0.646550 0.806680 0.917570 -0.532060

loop_
_geom_bond_atom_site_label_1
_geom_bond_atom_site_label_2
_ccdc_geom_bond_type
Cr3   O21   S    
C21   C26   A    
C34   C56   S    
C8    C13   A    
C29   C33   S    
Cr6   O3    S    
C27   C29   A    
C11   C13   A    
C41   C42   A    
C2    C7    A    
C43   C44   S    
C16   O16   A    
Cr6   O11   S    
C15   H9    S    
C3    C64   A    
C12   C23   S    
C45   C57   S    
Cr3   O16   S    
C30   C35   S    
Cr6   O10   S    
C37   C38   A    
C43   H27   S    
C10   C15   S    
C42   H26   S    
C38   C39   A    
C32   H19   S    
C20   C25   S    
C10   C17   A    
C47   O25   A    
C25   H15   S    
C52   O21   A    
C48   O26   A    
C18   C19   A    
C37   C42   A    
Cr2   O14   S    
C1    O4    A    
C56   H36   S    
C59   H37   S    
Cr4   O5    S    
C15   H8    S    
C8    C9    A    
C40   O20   A    
C55   H28   S    
C41   C46   A    
Cr5   O8    S    
C56   H12   S    
C24   H13   S    
C31   C36   A    
C36   C52   S    
C27   C50   S    
C12   C58   S    
Cr3   O22   S    
C59   C60   A    
C18   C22   A    
C21   C22   A    
Cr2   O19   S    
C44   H31   S    
C45   H33   S    
C18   C51   S    
C6    H2    S    
C4    C34   S    
C13   H5    S    
Cr4   O24   S    
Cr6   O9    S    
C50   O6    A    
C24   C25   S    
C48   O2    A    
C53   O5    A    
C16   O1    A    
C55   H16   S    
C47   C64   S    
C50   O7    A    
C44   H30   S    
C58   C59   A    
C35   H24   S    
Cr4   O11   S    
C5    H45   S    
C60   C61   A    
Cr2   O13   S    
Cr1   O17   S    
C9    C14   S    
C43   H29   S    
C29   C30   A    
C53   O10   A    
C4    O14   A    
Cr5   O11   S    
C54   H1    S    
C31   C32   A    
C47   O24   A    
C31   H18   S    
C49   O3    A    
Cr6   O2    S    
C62   C63   A    
C34   C55   S    
C34   C45   S    
C14   H7    S    
Cr2   O12   S    
Cr1   O22   S    
C12   C56   S    
C39   C46   A    
C54   H4    S    
C5    C65   S    
C7    C16   S    
C5    H44   S    
C41   H25   S    
C33   H20   S    
C61   H39   S    
Cr1   O4    S    
C45   H34   S    
C23   C54   S    
Cr5   O25   S    
C9    C10   A    
C35   H22   S    
Cr3   O20   S    
C23   C57   S    
C57   H32   S    
C40   O12   A    
C54   C55   S    
C11   C17   A    
Cr4   O23   S    
Cr3   O15   S    
C23   C48   S    
C27   C32   A    
C28   O18   A    
C51   O8    A    
C25   H17   S    
C28   O19   A    
C58   C63   A    
C1    O13   A    
C33   H21   S    
C12   H35   S    
C39   C44   S    
C49   O23   A    
C4    O15   A    
C1    C17   S    
C30   C36   A    
C28   C46   S    
C51   O9    A    
C64   C65   A    
C19   C20   A    
Cr1   O1    S    
C19   C24   S    
C37   C53   S    
C38   C43   S    
C3    H43   S    
C22   H11   S    
C7    C66   A    
C2    H42   S    
C26   C40   S    
C5    C6    S    
C20   C26   A    
C60   H38   S    
C33   C35   S    
C2    C3    A    
C14   H6    S    
C61   C62   A    
Cr1   O18   S    
Cr2   O22   S    
C63   H41   S    
Cr4   O6    S    
C6    C66   S    
C62   H40   S    
C21   H10   S    
C65   C66   A    
C57   H23   S    
C52   O17   A    
C14   C15   S    
Cr5   O7    S    
C11   H3    S    
C24   H14   S    
C8    C49   S    
C6    H46   S    
Cr5   O26   S    
