data_mof_unit_60649.cif
_audit_creation_date              2012-10-26T17:24:16-0400
_audit_creation_method            fapswitch 2.2
_symmetry_space_group_name_H-M    P1
_symmetry_Int_Tables_number       1
_space_group_crystal_system       triclinic
_cell_length_a                    42.585733
_cell_length_b                    29.424816
_cell_length_c                    29.419679
_cell_angle_alpha                 90.000012
_cell_angle_beta                  133.836118
_cell_angle_gamma                 90.00342
_cell_volume                      26591.6971842

loop_
_atom_site_label
_atom_site_type_symbol
_atom_type_description
_atom_site_fract_x
_atom_site_fract_y
_atom_site_fract_z
_atom_type_partial_charge
C1    C     C_R   0.499984 0.585483 0.500003 0.551539
C2    C     C_1   0.835091 0.000377 0.338519 -0.077542
C3    C     C_3   0.761795 0.961848 0.247416 -0.093673
C4    C     C_1   0.373274 0.500183 0.374568 -0.038234
C5    C     C_1   0.873274 0.000184 0.374568 -0.038234
C6    C     C_1   0.120502 0.500029 0.121324 -0.032106
C7    C     C_1   0.620502 0.000029 0.121324 -0.032106
C8    C     C_3   0.260041 0.502659 0.308125 0.018125
C9    C     C_3   0.760041 0.002665 0.308125 0.018125
C10   C     C_3   0.289185 0.500520 0.295182 0.035486
C11   C     C_3   0.789185 0.000521 0.295182 0.035486
C12   C     C_3   0.217141 0.495564 0.130075 -0.275976
C13   C     C_1   0.158715 0.500116 0.160888 -0.071878
C14   C     C_3   0.254679 0.493870 0.133836 -0.436972
C15   C     C_3   0.717141 0.995553 0.130075 -0.275976
C16   C     C_3   0.754679 0.993855 0.133837 -0.436972
C17   C     C_R   0.270711 0.505287 0.368771 0.031643
C18   C     C_R   0.236370 0.506716 0.365866 -0.099011
C19   C     C_R   0.244957 0.509164 0.421072 -0.108705
C20   C     C_R   0.287898 0.510216 0.479675 -0.098571
C21   C     C_R   0.322278 0.508825 0.483099 -0.109567
C22   C     C_R   0.313821 0.506373 0.427971 -0.089452
C23   C     C_R   0.770711 0.005300 0.368771 0.031643
C24   C     C_1   0.658715 0.000116 0.160888 -0.071878
C25   C     C_R   0.736370 0.006732 0.365865 -0.099011
C26   C     C_R   0.744957 0.009187 0.421071 -0.108705
C27   C     C_R   0.787898 0.010241 0.479673 -0.098571
C28   C     C_R   0.822278 0.008846 0.483098 -0.109567
C29   C     C_R   0.813821 0.006389 0.427970 -0.089452
C30   C     C_1   0.499970 0.636530 0.499961 -0.042777
C31   C     C_1   0.499974 0.363470 0.499964 -0.042736
C32   C     C_1   0.999970 0.136530 0.499961 -0.042777
C33   C     C_1   0.999974 0.863470 0.499964 -0.042736
C34   C     C_1   0.499960 0.678851 0.499947 -0.035959
C35   C     C_1   0.499966 0.321149 0.499952 -0.035959
C36   C     C_1   0.999960 0.178851 0.499947 -0.035959
C37   C     C_R   0.499985 0.414517 0.500004 0.551578
C38   C     C_1   0.999966 0.821149 0.499952 -0.035959
C39   C     C_1   0.499953 0.729016 0.499945 0.002098
C40   C     C_1   0.499961 0.270984 0.499952 0.002073
C41   C     C_1   0.999953 0.229016 0.499944 0.002098
C42   C     C_1   0.999961 0.770984 0.499952 0.002073
C43   C     C_1   0.499949 0.771337 0.499948 0.002249
C44   C     C_1   0.499959 0.228663 0.499957 0.002219
C45   C     C_1   0.999949 0.271337 0.499948 0.002249
C46   C     C_1   0.999959 0.728663 0.499957 0.002219
C47   C     C_1   0.499947 0.821502 0.499957 -0.034457
C48   C     C_R   0.999984 0.085483 0.500003 0.551539
C49   C     C_1   0.499957 0.178498 0.499966 -0.034491
C50   C     C_1   0.999947 0.321502 0.499957 -0.034457
C51   C     C_1   0.999957 0.678498 0.499966 -0.034491
C52   C     C_1   0.499948 0.863823 0.499967 -0.039240
C53   C     C_1   0.499957 0.136176 0.499975 -0.039272
C54   C     C_1   0.999948 0.363823 0.499967 -0.039240
C55   C     C_1   0.999957 0.636177 0.499975 -0.039272
C56   C     C_R   0.418260 0.499982 0.418550 0.570379
C57   C     C_R   0.918260 0.999981 0.418550 0.570379
C58   C     C_1   0.635085 0.499999 0.634620 -0.044062
C59   C     C_R   0.999985 0.914517 0.500004 0.551578
C60   C     C_1   0.135085 0.999999 0.634620 -0.044062
C61   C     C_1   0.676567 0.499998 0.676083 -0.029327
C62   C     C_1   0.176567 0.999998 0.676083 -0.029327
C63   C     C_1   0.726138 0.499997 0.725741 0.002778
C64   C     C_1   0.226138 0.999997 0.725741 0.002778
C65   C     C_1   0.767621 0.499996 0.767329 0.002798
C66   C     C_1   0.267621 0.999996 0.767329 0.002798
C67   C     C_1   0.817192 0.499996 0.817039 -0.029273
C68   C     C_1   0.317192 0.999996 0.817039 -0.029273
C69   C     C_1   0.858675 0.499996 0.858636 -0.044033
C70   C     C_3   0.204679 0.500261 0.208341 0.033278
C71   C     C_1   0.358675 0.999996 0.858636 -0.044033
C72   C     C_R   0.994850 0.500000 0.080455 0.551355
C73   C     C_R   0.494850 0.000000 0.080455 0.551355
C74   C     C_R   0.075512 0.500003 0.075062 0.568685
C75   C     C_R   0.575512 0.000003 0.075062 0.568685
C76   C     C_R   0.993226 0.500000 0.907794 0.549950
C77   C     C_R   0.493226 1.000000 0.907794 0.549950
C78   C     C_R   0.909165 0.499998 0.909248 0.545278
C79   C     C_R   0.409165 0.999998 0.909248 0.545278
C80   C     C_R   0.584597 0.500000 0.584436 0.545192
C81   C     C_3   0.704679 0.000261 0.208341 0.033278
C82   C     C_R   0.084597 1.000000 0.584436 0.545192
C83   C     C_R   0.499129 0.000000 0.414071 0.547661
C84   C     C_R   0.999129 0.500000 0.414071 0.547661
C85   C     C_R   0.499956 0.914870 0.499983 0.547656
C86   C     C_R   0.499959 0.085129 0.499986 0.547642
C87   C     C_R   0.999956 0.414870 0.499983 0.547656
C88   C     C_R   0.999959 0.585129 0.499986 0.547642
C89   C     C_R   0.500718 1.000000 0.585856 0.547600
C90   C     C_R   0.000718 0.500000 0.585856 0.547600
C91   C     C_1   0.995633 0.500000 0.132274 -0.043445
C92   C     C_3   0.233782 0.498136 0.195614 0.049264
C93   C     C_1   0.495633 0.000000 0.132274 -0.043445
C94   C     C_1   0.996296 0.500000 0.175253 -0.037012
C95   C     C_1   0.496296 0.000000 0.175253 -0.037012
C96   C     C_1   0.997073 0.500001 0.226184 0.001037
C97   C     C_1   0.497073 0.000001 0.226184 0.001037
C98   C     C_1   0.497702 0.000001 0.269129 0.001344
C99   C     C_1   0.997701 0.500001 0.269129 0.001344
C100  C     C_1   0.498384 0.000000 0.319967 -0.035161
C101  C     C_1   0.998384 0.500000 0.319967 -0.035161
C102  C     C_1   0.498845 0.000000 0.362747 -0.039677
C103  C     C_3   0.733782 0.998132 0.195614 0.049263
C104  C     C_1   0.998846 0.500000 0.362747 -0.039677
C105  C     C_1   0.994211 0.500000 0.857716 -0.043502
C106  C     C_1   0.494211 1.000000 0.857716 -0.043502
C107  C     C_3   0.231798 0.538898 0.255886 -0.115442
C108  C     C_3   0.231908 0.464038 0.259891 -0.115424
C109  C     C_3   0.731798 0.038901 0.255881 -0.115442
C110  C     C_3   0.731909 0.964042 0.259896 -0.115424
C111  C     C_1   0.995350 0.500000 0.816535 -0.036660
C112  C     C_1   0.495349 1.000000 0.816535 -0.036660
C113  C     C_1   0.996856 0.500000 0.767877 0.001452
C114  C     C_1   0.335091 0.500377 0.338519 -0.077541
C115  C     C_1   0.496856 1.000000 0.767877 0.001452
C116  C     C_1   0.498128 1.000000 0.726834 0.001811
C117  C     C_1   0.998128 0.500000 0.726834 0.001811
C118  C     C_1   0.499515 1.000000 0.678053 -0.034644
C119  C     C_1   0.999515 0.500000 0.678053 -0.034644
C120  C     C_1   0.500394 1.000000 0.636605 -0.039491
C121  C     C_1   0.000394 0.500000 0.636605 -0.039491
C122  C     C_3   0.261690 0.536780 0.243406 -0.093811
C123  C     C_3   0.261795 0.461850 0.247411 -0.093673
C124  C     C_3   0.761690 0.036778 0.243401 -0.093811
Cu1   Cu    Cu3+1 0.500480 0.500000 0.542990 0.941093
Cu2   Cu    Cu3+1 0.958020 0.500000 0.458050 0.950506
Cu3   Cu    Cu3+1 0.541920 0.000000 0.541950 0.947827
Cu4   Cu    Cu3+1 0.041920 0.500000 0.541950 0.947827
Cu5   Cu    Cu3+1 0.000480 0.000000 0.542990 0.941093
Cu6   Cu    Cu3+1 0.499450 0.500000 0.457010 0.947772
Cu7   Cu    Cu3+1 0.999450 0.000000 0.457010 0.947772
Cu8   Cu    Cu3+1 0.993800 0.542460 0.993900 0.947587
Cu9   Cu    Cu3+1 0.993800 0.457540 0.993900 0.947516
Cu10  Cu    Cu3+1 0.493800 0.042460 0.993900 0.947587
Cu11  Cu    Cu3+1 0.493800 0.957540 0.993900 0.947516
Cu12  Cu    Cu3+1 0.458020 0.000000 0.458050 0.950506
H1    H     H_    0.274800 0.566392 0.237578 0.109072
H2    H     H_    0.275188 0.463410 0.160600 0.154106
H3    H     H_    0.241519 0.492016 0.085544 0.144266
H4    H     H_    0.196754 0.464633 0.105699 0.148242
H5    H     H_    0.196659 0.525847 0.102417 0.148097
H6    H     H_    0.775085 0.024872 0.157289 0.154150
H7    H     H_    0.775188 0.963397 0.160605 0.154106
H8    H     H_    0.741520 0.991997 0.085546 0.144266
H9    H     H_    0.696755 0.964621 0.105704 0.148242
H10   H     H_    0.696658 0.025835 0.102414 0.148097
H11   H     H_    0.202894 0.505929 0.320746 0.108659
H12   H     H_    0.274991 0.430476 0.244836 0.108996
H13   H     H_    0.218308 0.510247 0.418399 0.112333
H14   H     H_    0.294533 0.512113 0.522408 0.112421
H15   H     H_    0.355549 0.509651 0.528546 0.112183
H16   H     H_    0.341068 0.505372 0.432257 0.121890
H17   H     H_    0.702894 0.005943 0.320746 0.108659
H18   H     H_    0.718308 0.010272 0.418397 0.112334
H19   H     H_    0.794533 0.012143 0.522406 0.112421
H20   H     H_    0.855549 0.009674 0.528544 0.112183
H21   H     H_    0.841068 0.005384 0.432256 0.121889
H22   H     H_    0.774800 0.066388 0.237569 0.109072
H23   H     H_    0.774991 0.930472 0.244845 0.108996
H24   H     H_    0.218403 0.570219 0.258188 0.112016
H25   H     H_    0.218606 0.434468 0.265447 0.111883
H26   H     H_    0.718403 0.070224 0.258179 0.112016
H27   H     H_    0.718606 0.934474 0.265456 0.111883
H28   H     H_    0.275086 0.524886 0.157293 0.154151
O1    O     O_R   0.500410 0.561970 0.536310 -0.483937
O2    O     O_R   0.963790 0.500000 0.401850 -0.481934
O3    O     O_R   0.534640 0.000000 0.472710 -0.482735
O4    O     O_R   0.034640 0.500000 0.472710 -0.482735
O5    O     O_R   0.464530 0.938000 0.464560 -0.482130
O6    O     O_R   0.464530 0.062000 0.464560 -0.482136
O7    O     O_R   0.964530 0.438000 0.464560 -0.482130
O8    O     O_R   0.964530 0.562000 0.464560 -0.482136
O9    O     O_R   0.535390 0.937990 0.535420 -0.482363
O10   O     O_R   0.535390 0.062010 0.535420 -0.482389
O11   O     O_R   0.035390 0.437990 0.535420 -0.482363
O12   O     O_R   0.500410 0.438030 0.536310 -0.483654
O13   O     O_R   0.035390 0.562010 0.535420 -0.482389
O14   O     O_R   0.465290 0.000000 0.527290 -0.481816
O15   O     O_R   0.965290 0.500000 0.527290 -0.481816
O16   O     O_R   0.536150 0.000000 0.598150 -0.482450
O17   O     O_R   0.036150 0.500000 0.598150 -0.482450
O18   O     O_R   0.499540 0.561910 0.463710 -0.483142
O19   O     O_R   0.499540 0.438090 0.463710 -0.483249
O20   O     O_R   0.999540 0.061910 0.463710 -0.483142
O21   O     O_R   0.999540 0.938090 0.463710 -0.483249
O22   O     O_R   0.439190 0.500000 0.475090 -0.501381
O23   O     O_R   0.000410 0.061970 0.536310 -0.483938
O24   O     O_R   0.939190 0.000000 0.475090 -0.501381
O25   O     O_R   0.438320 0.500000 0.402480 -0.494282
O26   O     O_R   0.938320 0.000000 0.402480 -0.494282
O27   O     O_R   0.561610 0.500000 0.597520 -0.480332
O28   O     O_R   0.061610 0.000000 0.597520 -0.480332
O29   O     O_R   0.560740 0.500000 0.524910 -0.479944
O30   O     O_R   0.060740 0.000000 0.524910 -0.479944
O31   O     O_R   0.994560 0.535840 0.056620 -0.483324
O32   O     O_R   0.994560 0.464160 0.056620 -0.483241
O33   O     O_R   0.494560 0.035840 0.056620 -0.483324
O34   O     O_R   0.000410 0.938030 0.536310 -0.483654
O35   O     O_R   0.494560 0.964160 0.056620 -0.483241
O36   O     O_R   0.055010 0.535850 0.055100 -0.496427
O37   O     O_R   0.055010 0.464150 0.055100 -0.496460
O38   O     O_R   0.555010 0.035850 0.055100 -0.496427
O39   O     O_R   0.555010 0.964150 0.055100 -0.496460
O40   O     O_R   0.993040 0.535870 0.931160 -0.483852
O41   O     O_R   0.993040 0.464130 0.931160 -0.483944
O42   O     O_R   0.493040 0.035870 0.931160 -0.483852
O43   O     O_R   0.493040 0.964130 0.931160 -0.483944
O44   O     O_R   0.932590 0.535860 0.932690 -0.480053
O45   O     O_R   0.932590 0.464140 0.932690 -0.480068
O46   O     O_R   0.432590 0.035860 0.932690 -0.480053
O47   O     O_R   0.432590 0.964140 0.932690 -0.480068
O48   O     O_R   0.463790 0.000000 0.401850 -0.481934

loop_
_geom_bond_atom_site_label_1
_geom_bond_atom_site_label_2
_ccdc_geom_bond_type
C44   C49   S    
Cu3   O9    S    
C79   O46   A    
C66   C68   S    
C63   C65   T    
C76   C105  S    
C88   O8    A    
C83   C102  S    
Cu10  O33   S    
Cu9   O45   S    
Cu11  O47   S    
C11   C124  S    
C73   C93   S    
Cu6   O29   S    
C72   O31   A    
C71   C79   S    
C97   C98   T    
C69   C78   S    
C88   O13   A    
C106  C112  T    
Cu12  O6    S    
C79   O47   A    
C80   O29   A    
C6    C13   T    
C26   C27   A    
C50   C54   T    
Cu10  O46   S    
Cu3   O16   S    
C32   C36   T    
C4    C114  T    
C77   C106  S    
C16   H8    S    
C38   C42   S    
C70   C107  S    
C77   O43   A    
Cu11  O35   S    
C54   C87   S    
Cu10  O42   S    
C13   C70   S    
C103  C124  S    
C3    C110  S    
Cu9   O41   S    
C7    C24   T    
C37   O19   A    
C96   C99   T    
Cu12  O14   S    
Cu8   O36   S    
C12   H5    S    
C60   C62   T    
C18   C19   A    
C42   C46   T    
C89   O16   A    
C55   C88   S    
C61   C63   S    
C57   O24   A    
C62   C64   S    
Cu2   O7    S    
Cu12  O48   S    
C60   C82   S    
Cu1   Cu6   S    
Cu1   O1    S    
C14   H2    S    
C116  C118  S    
Cu8   Cu9   S    
C65   C67   S    
C124  H22   S    
Cu8   O31   S    
C85   O9    A    
C12   H4    S    
C6    C74   S    
C53   C86   S    
C83   O48   A    
C10   C114  S    
Cu6   O25   S    
C58   C80   S    
C76   O40   A    
Cu4   O4    S    
C80   O27   A    
C58   C61   T    
C23   C25   A    
C105  C111  T    
C70   C92   S    
C33   C59   S    
C21   C22   A    
C4    C56   S    
C3    H23   S    
C32   C48   S    
C36   C41   S    
C2    C11   S    
C8    C108  S    
C75   O38   A    
Cu10  O38   S    
C118  C120  T    
C119  C121  T    
C9    C109  S    
C22   H16   S    
Cu8   O40   S    
C30   C34   T    
C25   H17   S    
C34   C39   S    
Cu2   O8    S    
Cu11  O39   S    
C16   H7    S    
C3    C11   S    
Cu3   Cu12  S    
C52   C85   S    
C48   O23   A    
Cu1   O27   S    
C10   C123  S    
Cu6   O18   S    
C92   C123  S    
C48   O20   A    
C72   C91   S    
C75   O39   A    
C9    C23   S    
C109  H26   S    
C7    C75   S    
C10   C122  S    
C25   C26   A    
C83   O3    A    
C46   C51   S    
C85   O5    A    
C31   C37   S    
C73   O33   A    
Cu1   O22   S    
C67   C69   T    
C64   C66   T    
Cu11  O43   S    
C16   H6    S    
C24   C81   S    
C84   O4    A    
C92   C122  S    
Cu7   O20   S    
C90   O17   A    
C1    O1    A    
C110  H27   S    
C87   O7    A    
C20   C21   A    
C100  C102  T    
C17   C18   A    
Cu2   O15   S    
C111  C113  S    
C89   O14   A    
C81   C110  S    
C94   C96   S    
C9    C11   S    
C78   O45   A    
Cu10  Cu11  S    
C68   C71   T    
C113  C117  T    
Cu7   O21   S    
Cu3   O3    S    
C99   C101  S    
C12   C14   S    
C18   H11   S    
C101  C104  T    
C98   C100  S    
Cu5   O23   S    
C74   O36   A    
C84   C104  S    
C90   C121  S    
C31   C35   T    
C26   H18   S    
Cu7   O30   S    
C108  C123  S    
C8    C107  S    
C23   C29   A    
C76   O41   A    
Cu9   O37   S    
C15   H9    S    
C81   C103  S    
Cu7   O26   S    
C3    C103  S    
C9    C110  S    
C90   O15   A    
C28   C29   A    
Cu4   O11   S    
Cu2   Cu4   S    
C82   O28   A    
C86   O6    A    
C12   C92   S    
C8    C10   S    
C29   H21   S    
Cu4   O17   S    
Cu5   O34   S    
C122  H1    S    
C56   O22   A    
Cu2   O2    S    
C72   O32   A    
C15   H10   S    
C39   C43   T    
C1    O18   A    
C95   C97   S    
C109  C124  S    
Cu8   O44   S    
C47   C52   T    
C74   O37   A    
C87   O11   A    
C108  H25   S    
C81   C109  S    
C17   C22   A    
C5    C57   S    
Cu6   O19   S    
C15   C103  S    
C19   C20   A    
C117  C119  S    
C35   C40   S    
C123  H12   S    
C57   O26   A    
C89   C120  S    
C107  H24   S    
C77   O42   A    
C8    C17   S    
C115  C116  T    
C56   O25   A    
C45   C50   S    
Cu3   O10   S    
Cu9   O32   S    
C49   C53   T    
C73   O35   A    
Cu5   O28   S    
C1    C30   S    
C19   H13   S    
C20   H14   S    
C59   O21   A    
C51   C55   T    
C21   H15   S    
C14   H28   S    
C78   O44   A    
C14   H3    S    
C82   O30   A    
C84   O2    A    
C2    C5    T    
C37   O12   A    
Cu5   Cu7   S    
C40   C44   T    
Cu12  O5    S    
C93   C95   T    
Cu5   O24   S    
C27   C28   A    
C28   H20   S    
C41   C45   T    
C33   C38   T    
C70   C108  S    
Cu4   O13   S    
C59   O34   A    
C107  C122  S    
C86   O10   A    
Cu1   O12   S    
C43   C47   S    
C112  C115  S    
C15   C16   S    
C91   C94   T    
C27   H19   S    
