data_mof_unit_50696.cif
_audit_creation_date              2012-12-11T15:21:52-0500
_audit_creation_method            fapswitch 2.2
_symmetry_space_group_name_H-M    P1
_symmetry_Int_Tables_number       1
_space_group_crystal_system       triclinic
_cell_length_a                    8.237277
_cell_length_b                    12.593324
_cell_length_c                    18.994375
_cell_angle_alpha                 94.269121
_cell_angle_beta                  94.44609
_cell_angle_gamma                 97.721969
_cell_volume                      1939.43829149

loop_
_atom_site_label
_atom_site_type_symbol
_atom_type_description
_atom_site_fract_x
_atom_site_fract_y
_atom_site_fract_z
_atom_type_partial_charge
Ba1   Ba    Ba6+2 0.160910 0.552960 0.466220 1.656766
Ba2   Ba    Ba6+2 0.649260 0.447030 0.533730 1.658155
C1    C     C_3   0.388019 0.820856 0.196802 -0.342836
C2    C     C_R   0.736865 0.815737 0.470534 -0.270965
C3    C     C_R   0.704869 0.997696 0.446194 -0.087610
C4    C     C_3   0.926461 0.844153 0.302796 0.319599
C5    C     C_R   0.641712 0.888517 0.442686 -0.008521
C6    C     C_R   0.888803 0.850417 0.508674 0.060458
C7    C     C_R   0.951963 0.962642 0.515865 -0.058327
C8    C     C_R   0.859158 0.037430 0.483346 -0.057543
C9    C     C_R   0.922530 0.149725 0.490570 0.069612
C10   C     C_R   0.169554 0.111401 0.556054 -0.022767
C11   C     C_R   0.106243 0.002327 0.552911 -0.080028
C12   C     C_3   0.416121 0.789204 0.271992 0.365082
C13   C     C_R   0.614948 0.544248 0.298448 -0.288403
C14   C     C_R   0.460310 0.487407 0.276443 0.060430
C15   C     C_R   0.405356 0.473749 0.204179 -0.136784
C16   C     C_3   0.879760 0.937792 0.263239 -0.369877
C17   C     C_R   0.506636 0.515356 0.153231 -0.017428
C18   C     C_R   0.665638 0.569107 0.176432 -0.133079
C19   C     C_R   0.719986 0.581428 0.248778 0.015463
C20   C     C_R   0.488167 0.581108 0.031245 -0.077310
C21   C     C_R   0.435599 0.566121 0.958884 -0.077162
C22   C     C_R   0.342542 0.468865 0.929339 0.059227
C23   C     C_3   0.568606 0.784443 0.689356 0.411363
C24   C     C_R   0.301977 0.387355 0.974234 -0.074028
C25   C     C_R   0.354988 0.402230 0.046685 -0.074463
C26   C     C_R   0.449099 0.499322 0.076160 0.060706
C27   C     C_R   0.128104 0.405870 0.827019 -0.144696
C28   C     C_3   0.761277 0.316738 0.320560 0.320044
C29   C     C_R   0.078262 0.396177 0.754121 0.001691
C30   C     C_R   0.345195 0.483171 0.730118 0.050538
C31   C     C_R   0.397228 0.491428 0.802535 -0.126079
C32   C     C_R   0.289625 0.452697 0.851946 -0.007425
C33   C     C_R   0.188823 0.431976 0.706036 -0.273491
C34   C     C_3   0.501649 0.892649 0.697549 -0.320005
C35   C     C_3   0.734549 0.288162 0.240469 -0.236262
C36   C     C_3   0.049104 0.673960 0.676553 0.339176
C37   C     C_3   0.103427 0.699348 0.755382 -0.327945
C38   C     C_3   0.252597 0.228516 0.382510 0.281793
C39   C     C_3   0.244665 0.107720 0.367652 -0.317859
C40   C     C_2   0.579560 0.211225 0.220595 0.544721
C41   C     C_2   0.713076 0.786816 0.743124 0.509760
C42   C     C_3   0.888749 0.155341 0.755606 0.293208
C43   C     C_3   0.836182 0.091449 0.817536 -0.078100
C44   C     C_3   0.358506 0.196342 0.725153 0.392687
C45   C     C_3   0.350981 0.149349 0.796456 -0.381786
C46   C     C_R   0.074650 0.184308 0.528317 -0.280150
H1    H     H_    0.334254 0.712851 0.276477 0.087586
H2    H     H_    0.336939 0.254270 0.431053 0.064824
H3    H     H_    0.257737 0.832638 0.185328 0.152763
H4    H     H_    0.171370 0.080765 0.316612 0.122141
H5    H     H_    0.186663 0.065171 0.410181 0.060422
H6    H     H_    0.370616 0.086893 0.364264 0.159554
H7    H     H_    0.546421 0.776259 0.281261 -0.072310
H8    H     H_    0.416777 0.756363 0.158592 0.058052
H9    H     H_    0.467479 0.908793 0.752412 0.086470
H10   H     H_    0.594533 0.959815 0.685529 0.130014
H11   H     H_    0.389862 0.890757 0.660554 0.124242
H12   H     H_    0.726552 0.362123 0.213091 -0.026717
H13   H     H_    0.468697 0.896730 0.190089 0.153145
H14   H     H_    0.771781 0.909718 0.224560 0.129108
H15   H     H_    0.897194 0.098341 0.708920 0.039521
H16   H     H_    0.013242 0.198302 0.771859 -0.056892
H17   H     H_    0.711518 0.045828 0.803989 0.125416
H18   H     H_    0.922940 0.032699 0.827254 0.122045
H19   H     H_    0.231399 0.206577 0.705486 -0.101801
H20   H     H_    0.437196 0.275830 0.732790 0.075977
H21   H     H_    0.298472 0.204124 0.834219 0.067237
H22   H     H_    0.476157 0.139488 0.818421 0.135000
H23   H     H_    0.841291 0.252151 0.221796 0.102396
H24   H     H_    0.026294 0.874460 0.345055 0.079506
H25   H     H_    0.272142 0.069842 0.790246 0.114357
H26   H     H_    0.630160 0.050306 0.420904 0.111944
H27   H     H_    0.181309 0.949746 0.578029 0.100499
H28   H     H_    0.124727 0.268702 0.532282 0.060276
H29   H     H_    0.687027 0.731295 0.466449 0.082536
H30   H     H_    0.518500 0.533415 0.820516 0.074136
H31   H     H_    0.466139 0.631499 0.926150 0.060056
H32   H     H_    0.557791 0.657497 0.052228 0.064577
H33   H     H_    0.284528 0.429722 0.187934 0.084122
H34   H     H_    0.146940 0.639275 0.649958 0.022041
H35   H     H_    0.231978 0.311210 0.953030 0.057974
H36   H     H_    0.816225 0.810102 0.328143 -0.052832
H37   H     H_    0.324801 0.336747 0.079353 0.057600
H38   H     H_    0.039904 0.380984 0.864008 0.061209
H39   H     H_    0.749042 0.597945 0.138487 0.076147
H40   H     H_    0.148445 0.429506 0.650286 0.056252
H41   H     H_    0.657935 0.553233 0.354152 0.068902
H42   H     H_    0.848049 0.001539 0.301262 0.113351
H43   H     H_    0.983466 0.971637 0.233963 0.128843
H44   H     H_    0.649284 0.343183 0.340342 -0.020608
H45   H     H_    0.936928 0.613625 0.670655 0.054705
H46   H     H_    0.865231 0.383245 0.331352 0.048390
H47   H     H_    0.472072 0.239548 0.195858 -0.022839
H48   H     H_    0.712615 0.726102 0.780821 -0.039781
H49   H     H_    0.696882 0.834474 0.608179 0.117112
H50   H     H_    0.512900 0.763601 0.581521 0.175887
H51   H     H_    0.762930 0.221162 0.873019 0.203274
H52   H     H_    0.956492 0.198998 0.897252 0.166989
H53   H     H_    0.195907 0.772817 0.764096 0.152376
H54   H     H_    0.157552 0.631749 0.777011 0.044125
H55   H     H_    0.997628 0.711869 0.785838 0.117175
H56   H     H_    0.128241 0.247739 0.390641 0.001130
N1    N     N_3   0.616717 0.766592 0.617446 -0.465112
N2    N     N_3   0.836408 0.161308 0.882585 -0.504080
O1    O     O_2   0.160820 0.763040 0.533820 -0.469255
O2    O     O_2   0.752870 0.427160 0.749335 -0.496796
O3    O     O_3   0.770200 0.222113 0.737761 -0.573073
O4    O     O_3   0.890970 0.628600 0.535400 -0.485321
O5    O     O_3   0.427530 0.446070 0.416950 -0.488483
O6    O     O_2   0.637430 0.550200 0.669460 -0.462380
O7    O     O_3   0.441589 0.705377 0.704055 -0.686451
O8    O     O_2   0.507782 0.111688 0.548281 -0.474920
O9    O     O_3   0.427240 0.127262 0.678152 -0.586287
O10   O     O_3   0.385950 0.698560 0.408070 -0.486465
O11   O     O_2   0.304835 0.887582 0.451017 -0.488860
O12   O     O_3   0.308196 0.277321 0.323469 -0.635878
O13   O     O_3   0.017752 0.768910 0.647177 -0.599560
O14   O     O_3   0.379378 0.871120 0.320053 -0.591402
O15   O     O_2   0.172860 0.449730 0.330520 -0.465206
O16   O     O_3   0.962080 0.644700 0.373110 -0.484836
O17   O     O_2   0.057762 0.574362 0.248565 -0.489728
O18   O     O_2   0.572121 0.117217 0.233387 -0.574693
O19   O     O_2   0.830884 0.857369 0.745363 -0.637574
O20   O     O_3   0.983262 0.769655 0.254920 -0.594229
O21   O     O_2   0.649470 0.236890 0.466160 -0.467610
O22   O     O_3   0.919320 0.371390 0.464540 -0.499824
O23   O     O_3   0.424350 0.301430 0.591880 -0.483962
O24   O     O_3   0.797523 0.225823 0.353157 -0.627951
O25   O     O_3   0.382770 0.553920 0.582990 -0.453719
O26   O     O_3   0.848220 0.355290 0.626830 -0.461401
P1    P     P_3+3 0.986780 0.745970 0.554690 1.004620
P2    P     P_3+3 0.341450 0.417130 0.341310 0.980600
P3    P     P_3+3 0.931283 0.639831 0.280678 0.954612
P4    P     P_3+3 0.823520 0.254020 0.445250 0.980055
P5    P     P_3+3 0.864273 0.349037 0.718887 0.963698
P6    P     P_3+3 0.428944 0.837926 0.406245 0.955978
P7    P     P_3+3 0.454896 0.572067 0.672471 0.962819
P8    P     P_3+3 0.382209 0.161619 0.592074 0.975497

loop_
_geom_bond_atom_site_label_1
_geom_bond_atom_site_label_2
_ccdc_geom_bond_type
C38   O12   S    
C24   H35   S    
C46   H28   S    
O11   P6    D    
Ba1   O22   S    
C10   C46   A    
C34   H11   S    
C14   P2    S    
C41   O19   D    
C23   N1    S    
C44   H19   S    
C42   H16   S    
C4    H24   S    
Ba2   O6    S    
C24   C25   A    
O13   P1    S    
H50   N1    S    
C44   O9    S    
C16   H43   S    
C22   C24   A    
C34   H10   S    
O22   P4    S    
C36   C37   S    
C31   H30   S    
C12   H1    S    
C38   H56   S    
C13   C14   A    
C18   H39   S    
C3    H26   S    
Ba2   O23   S    
O3    P5    S    
Ba1   Ba2   S    
C1    H8    S    
C35   C40   S    
C25   H37   S    
C7    C11   A    
Ba1   O16   S    
C45   H21   S    
C11   H27   S    
C6    C7    A    
Ba2   O26   S    
C21   C22   A    
C10   P8    S    
Ba1   O10   S    
O8    P8    D    
O15   P2    D    
C29   P5    S    
C7    C8    A    
C39   H4    S    
O12   P2    S    
C2    C6    A    
H49   N1    S    
C42   O3    S    
C12   H7    S    
C20   C26   A    
C36   H34   S    
O6    P7    D    
C23   C41   S    
C9    C46   A    
C2    C5    A    
Ba1   P1    S    
C37   H53   S    
O10   P6    S    
C1    H13   S    
C42   H15   S    
C4    C16   S    
Ba2   O5    S    
C4    H36   S    
C40   O18   D    
C40   H47   S    
C16   H42   S    
C30   C33   A    
O21   P4    D    
C4    O20   S    
C30   P7    S    
C28   H44   S    
C34   H9    S    
C3    C5    A    
C1    H3    S    
C14   C15   A    
O26   P5    S    
C28   O24   S    
C27   C32   A    
C22   C32   S    
C28   C35   S    
O17   P3    D    
C45   H22   S    
C44   H20   S    
C23   O7    S    
Ba1   O4    S    
C13   H41   S    
C41   H48   S    
C33   H40   S    
C13   C19   A    
C27   C29   A    
C39   H5    S    
O7    P7    S    
Ba2   O25   S    
C10   C11   A    
C17   C26   S    
C45   H25   S    
C27   H38   S    
C1    C12   S    
Ba1   O1    S    
C36   O13   S    
C38   C39   S    
O20   P3    S    
C12   O14   S    
C35   H23   S    
C43   H17   S    
C29   C33   A    
O14   P6    S    
Ba1   P2    S    
C25   C26   A    
C43   N2    S    
C37   H54   S    
H51   N2    S    
C44   C45   S    
Ba2   O4    S    
Ba1   O15   S    
C6    P1    S    
O24   P4    S    
C42   C43   S    
Ba1   O25   S    
C5    P6    S    
O5    P2    S    
C37   H55   S    
H52   N2    S    
C30   C31   A    
C17   C18   A    
C20   H32   S    
C3    C8    A    
C28   H46   S    
C9    P4    S    
Ba2   O21   S    
O2    P5    D    
O23   P8    S    
C38   H2    S    
C36   H45   S    
C15   C17   A    
C31   C32   A    
C15   H33   S    
C39   H6    S    
Ba2   P4    S    
O16   P3    S    
C35   H12   S    
O25   P7    S    
C8    C9    A    
C23   C34   S    
C2    H29   S    
C18   C19   A    
O1    P1    D    
C43   H18   S    
C20   C21   A    
O4    P1    S    
C16   H14   S    
C21   H31   S    
O9    P8    S    
C19   P3    S    
Ba1   O5    S    
Ba2   O22   S    
