data_mof_unit_54065.cif
_audit_creation_date              2013-03-05T16:31:07-0500
_audit_creation_method            fapswitch 2.2
_symmetry_space_group_name_H-M    P1
_symmetry_Int_Tables_number       1
_space_group_crystal_system       triclinic
_cell_length_a                    10.86776
_cell_length_b                    10.868859
_cell_length_c                    9.631652
_cell_angle_alpha                 90.626561
_cell_angle_beta                  89.190894
_cell_angle_gamma                 89.882495
_cell_volume                      1137.50796726

loop_
_atom_site_label
_atom_site_type_symbol
_atom_site_description
_atom_site_fract_x
_atom_site_fract_y
_atom_site_fract_z
_atom_type_partial_charge
O1    O     O_R   0.500000 0.319640 0.618810 -0.566064
O2    O     O_R   0.500010 0.319680 0.381230 -0.539493
C1    C     C_R   0.489548 0.263411 0.499270 0.886127
O3    O     O_R   0.319640 0.499980 0.618820 -0.610718
O4    O     O_R   0.319650 0.500020 0.381230 -0.576516
C2    C     C_R   0.262497 0.511194 0.502049 0.804633
Cu1   Cu    Cu3+1 0.499990 0.499980 0.640670 0.997563
Cu2   Cu    Cu3+1 0.500010 0.500020 0.359330 1.022182
O5    O     O_R   0.499990 0.680320 0.618770 -0.589499
O6    O     O_R   0.500000 0.680360 0.381190 -0.577889
O7    O     O_R   0.680350 0.499980 0.618770 -0.582909
O8    O     O_R   0.680360 0.500020 0.381180 -0.588620
C3    C     C_R   0.500726 0.737533 0.500478 0.836136
C4    C     C_R   0.737568 0.492030 0.499510 0.821314
H1    H     H_    0.110126 0.584998 0.300785 0.175077
C5    C     C_R   0.105278 0.528712 0.763157 -0.191706
H2    H     H_    0.184240 0.588056 0.774851 0.198099
C6    C     C_R   0.047161 0.484156 0.881601 0.034992
C7    C     C_R   0.944719 0.407946 0.868098 -0.223282
H3    H     H_    0.906506 0.363318 0.959059 0.202820
C8    C     C_R   0.890179 0.391278 0.737783 -0.115560
C9    C     C_R   0.938712 0.456335 0.621770 0.006948
C10   C     C_R   0.059535 0.501319 0.631474 0.097169
C11   C     C_R   0.127252 0.524299 0.508845 -0.120386
C12   C     C_R   0.062827 0.548380 0.388910 -0.093584
H4    H     H_    0.888999 0.559406 0.292722 0.162937
C13   C     C_R   0.936450 0.532737 0.385079 -0.104773
C14   C     C_R   0.872506 0.485502 0.499942 -0.141925
C15   C     C_R   0.533157 0.067626 0.606287 0.048351
C16   C     C_R   0.480307 0.130101 0.497640 -0.200826
C17   C     C_R   0.436826 0.060954 0.383061 0.323906
C18   C     C_R   0.445436 0.931942 0.386041 -0.243881
H5    H     H_    0.403747 0.878866 0.303471 0.225474
C19   C     C_R   0.499947 0.871329 0.498454 -0.129482
C20   C     C_R   0.553763 0.942691 0.602804 0.100253
C21   C     C_3   0.547464 0.936305 0.758800 -0.273906
C22   C     C_3   0.504416 0.070052 0.758340 -0.235869
H6    H     H_    0.479883 0.869415 0.801465 0.187778
H7    H     H_    0.561781 0.135040 0.817775 0.239454
C23   C     C_R   0.605438 0.522796 0.070921 0.200986
N1    N     N_R   0.500790 0.500930 0.147930 -0.211144
C24   C     C_R   0.402977 0.455781 0.075256 0.014154
H8    H     H_    0.324511 0.419754 0.130983 0.208844
C25   C     C_R   0.402236 0.457256 0.926909 0.017271
H9    H     H_    0.322586 0.423269 0.873163 0.162926
N2    N     N_R   0.500790 0.500890 0.852020 -0.202513
C26   C     C_R   0.605522 0.520734 0.924603 0.288856
C27   C     C_3   0.686994 0.628619 0.912566 -0.502857
C28   C     C_3   0.688889 0.632738 0.070583 -0.315070
H10   H     H_    0.777516 0.605745 0.864238 0.218593
H11   H     H_    0.636621 0.703713 0.862527 0.218177
H12   H     H_    0.781537 0.611000 0.109927 0.150429
C29   C     C_2   0.674664 0.928015 0.820381 0.891023
O9    O     O_2   0.760434 0.883443 0.753005 -0.572487
O10   O     O_R   0.694171 0.973834 0.954354 -0.712314
H13   H     H_    0.782907 0.964947 0.983825 0.353356
C30   C     C_2   0.368520 0.085429 0.789223 0.929183
O11   O     O_2   0.333653 0.167097 0.868682 -0.547610
O12   O     O_R   0.282844 0.007749 0.726053 -0.751352
H14   H     H_    0.194981 0.028220 0.754697 0.352613
C31   C     C_2   0.635606 0.749282 0.131326 0.985016
O13   O     O_2   0.533071 0.784341 0.098581 -0.577786
O14   O     O_R   0.706726 0.819214 0.222449 -0.750154
H15   H     H_    0.666298 0.900121 0.249681 0.350286
C32   C     C_2   0.100718 0.511868 0.016850 0.765277
O15   O     O_2   0.088926 0.439056 0.111748 -0.592581
O16   O     O_R   0.169948 0.619650 0.032798 -0.762197
H16   H     H_    0.218229 0.624185 0.121521 0.328417
C33   C     C_2   0.793210 0.296102 0.725578 0.912005
O17   O     O_2   0.725681 0.276789 0.825030 -0.579175
O18   O     O_R   0.779705 0.224591 0.605132 -0.746965
H17   H     H_    0.847306 0.237695 0.533497 0.302821
N3    N     N_R   0.374929 0.117911 0.269683 0.142458
O19   O     O_R   0.385550 0.071121 0.145136 -0.294631
O20   O     O_R   0.292710 0.203015 0.293752 -0.338178

loop_
_geom_bond_atom_site_label_1
_geom_bond_atom_site_label_2
_geom_bond_distance
_ccdc_geom_bond_type
C23   C26   1.409203 A    
O10   H13   1.013828 S    
N1    C24   1.369814 A    
C7    H3    1.084036 S    
Cu1   Cu2   2.709771 S    
C29   O9    1.224276 D    
C6    C32   1.462874 S    
Cu1   O7    1.968462 S    
H4    C13   1.076673 S    
C21   C22   1.526256 S    
C7    C8    1.405713 A    
C6    C7    1.395711 A    
O4    C2    1.315638 A    
O7    C4    1.300391 A    
C30   O12   1.399277 S    
C23   C28   1.501613 S    
C31   O14   1.397282 S    
C19   C20   1.398292 A    
N3    O19   1.301331 A    
C33   O18   1.398934 S    
O5    C3    1.303889 A    
C21   C29   1.514834 S    
C27   H11   1.101072 S    
C26   C27   1.475374 S    
C5    H2    1.080990 S    
C32   O16   1.401765 S    
C10   C11   1.407722 A    
C27   H10   1.108968 S    
O12   H14   1.013779 S    
C9    C14   1.423420 A    
C8    C9    1.424405 A    
N3    O20   1.301467 A    
C33   O17   1.218763 D    
C24   C25   1.429226 A    
O3    Cu1   1.974218 S    
C25   N2    1.371171 A    
C29   O10   1.397186 S    
C28   C31   1.501116 S    
O16   H16   1.009873 S    
Cu1   N2    2.035708 S    
Cu2   N1    2.036160 S    
O3    C2    1.299183 A    
C8    C33   1.483171 S    
O1    C1    1.304084 A    
C20   C21   1.505461 S    
C18   C19   1.410445 A    
C1    C16   1.452542 S    
C15   C16   1.384538 A    
C17   C18   1.405773 A    
Cu2   O8    1.974220 S    
C28   H12   1.106791 S    
C2    C11   1.476866 S    
C11   C12   1.386300 A    
C5    C6    1.388482 A    
C23   N1    1.371569 A    
O8    C4    1.309573 A    
C5    C10   1.398062 A    
C24   H8    1.077797 S    
C25   H9    1.078665 S    
Cu1   O5    1.973699 S    
N2    C26   1.360489 A    
C27   C28   1.522564 S    
O1    Cu1   1.969075 S    
O2    Cu2   1.973700 S    
O6    C3    1.300361 A    
O4    Cu2   1.968462 S    
C12   C13   1.385225 A    
C15   C20   1.375763 A    
C18   H5    1.082473 S    
C21   H6    1.112222 S    
O2    C1    1.300530 A    
O18   H17   1.012103 S    
C22   H7    1.103777 S    
C30   O11   1.221784 D    
C16   C17   1.415650 A    
C31   O13   1.223610 D    
C17   N3    1.435992 S    
O14   H15   1.012545 S    
C3    C19   1.454554 S    
H1    C12   1.067230 S    
Cu2   O6    1.969075 S    
C32   O15   1.221104 D    
C15   C22   1.493071 S    
C13   C14   1.400933 A    
C9    C10   1.406073 A    
C4    C14   1.468115 S    
C22   C30   1.510996 S    
