data_mof_unit_62207.cif
_audit_creation_date              2012-12-10T20:02:50-0500
_audit_creation_method            fapswitch 2.2
_symmetry_space_group_name_H-M    P1
_symmetry_Int_Tables_number       1
_space_group_crystal_system       triclinic
_cell_length_a                    38.778245
_cell_length_b                    32.087176
_cell_length_c                    21.574195
_cell_angle_alpha                 90.000472
_cell_angle_beta                  55.826144
_cell_angle_gamma                 89.999863
_cell_volume                      22209.3923206

loop_
_atom_site_label
_atom_site_type_symbol
_atom_type_description
_atom_site_fract_x
_atom_site_fract_y
_atom_site_fract_z
_atom_type_partial_charge
C1    C     C_R   0.919311 0.499989 0.580738 0.955300
C2    C     C_3   0.001929 0.499356 0.687699 -0.094807
C3    C     C_R   0.485779 0.228106 0.961421 -0.100549
C4    C     C_R   0.999998 0.706594 0.000002 -0.015511
C5    C     C_R   0.499999 0.206594 0.000001 -0.015527
C6    C     C_1   0.500000 0.338264 0.999999 0.064816
C7    C     C_1   0.999999 0.838263 1.000000 0.064647
C8    C     C_1   0.999999 0.661910 0.000001 0.075739
C9    C     C_1   0.499999 0.161910 0.000001 0.075460
C10   C     C_1   0.999999 0.624674 0.000001 -0.016033
C11   C     C_1   0.499999 0.124675 0.000001 -0.016144
C12   C     C_1   0.500000 0.624775 0.000000 -0.148863
C13   C     C_3   0.498071 0.999354 0.312301 -0.094779
C14   C     C_1   0.000000 0.124775 0.000000 -0.148862
C15   C     C_1   0.500000 0.375516 0.999999 -0.090705
C16   C     C_1   1.000000 0.875515 1.000000 -0.090792
C17   C     C_R   0.504029 0.728198 0.051910 -0.157298
C18   C     C_R   0.495973 0.728198 0.948090 -0.157300
C19   C     C_R   0.005326 0.228198 0.050360 -0.157347
C20   C     C_R   0.994676 0.228198 0.949640 -0.157347
C21   C     C_R   0.500001 0.706554 0.000000 0.149665
C22   C     C_R   0.000001 0.206554 0.000000 0.149747
C23   C     C_R   0.000001 0.293267 1.000000 0.152300
C24   C     C_3   0.501929 0.999355 0.687699 -0.094777
C25   C     C_R   0.500001 0.793267 1.000000 0.152422
C26   C     C_R   0.994677 0.271635 0.949637 -0.150780
C27   C     C_R   0.005325 0.271636 0.050363 -0.150780
C28   C     C_R   0.495973 0.771635 0.948088 -0.150742
C29   C     C_R   0.504029 0.771636 0.051911 -0.150741
C30   C     C_3   0.009714 0.543538 0.274423 -0.391214
C31   C     C_3   0.990284 0.543538 0.725580 -0.391215
C32   C     C_3   0.509701 0.043540 0.274436 -0.391252
C33   C     C_3   0.490300 0.043541 0.725564 -0.391255
C34   C     C_3   0.010199 0.543339 0.202651 -0.229338
C35   C     C_3   0.999267 0.498663 0.190107 -0.071607
C36   C     C_3   0.989800 0.543340 0.797351 -0.229337
C37   C     C_3   0.510182 0.043341 0.202667 -0.229371
C38   C     C_3   0.489819 0.043342 0.797333 -0.229370
C39   C     C_3   0.030957 0.466427 0.254797 -0.256540
C40   C     C_3   0.969044 0.466427 0.745201 -0.256539
C41   C     C_3   0.530966 0.966436 0.254789 -0.256537
C42   C     C_3   0.469033 0.966438 0.745211 -0.256537
C43   C     C_2   0.034288 0.425565 0.150059 0.911247
C44   C     C_2   0.965714 0.425565 0.849936 0.911246
C45   C     C_2   0.534311 0.925575 0.150038 0.911404
C46   C     C_3   0.000733 0.498664 0.809893 -0.071609
C47   C     C_2   0.465686 0.925577 0.849962 0.911409
C48   C     C_2   0.708804 0.430764 0.855517 0.938117
C49   C     C_2   0.291197 0.430762 0.144483 0.938118
C50   C     C_2   0.208805 0.930748 0.855483 0.938149
C51   C     C_2   0.791196 0.930743 0.144522 0.938151
C52   C     C_2   0.790993 0.569421 0.647608 0.942222
C53   C     C_2   0.209006 0.569421 0.352394 0.942223
C54   C     C_2   0.290992 0.069431 0.647633 0.942193
C55   C     C_2   0.709007 0.069431 0.352365 0.942189
C56   C     C_2   0.969121 0.704262 0.924565 0.968980
C57   C     C_3   0.499266 0.998661 0.190108 -0.071571
C58   C     C_2   0.030875 0.704264 0.075441 0.968973
C59   C     C_2   0.469366 0.204263 0.924166 0.969101
C60   C     C_2   0.530630 0.204264 0.075839 0.969113
C61   C     C_2   0.468684 0.295828 0.925205 0.932343
C62   C     C_2   0.531316 0.295828 0.074793 0.932333
C63   C     C_2   0.968438 0.795829 0.925618 0.932453
C64   C     C_2   0.031558 0.795830 0.074385 0.932453
C65   C     C_2   0.983105 0.577798 0.203269 0.930513
C66   C     C_2   0.016892 0.577799 0.796736 0.930511
C67   C     C_2   0.483073 0.077788 0.203301 0.930558
C68   C     C_3   0.500734 0.998662 0.809892 -0.071568
C69   C     C_2   0.516929 0.077788 0.796698 0.930557
C70   C     C_2   0.073803 0.470108 0.241402 0.893237
C71   C     C_2   0.926198 0.470107 0.758596 0.893237
C72   C     C_2   0.573811 0.970130 0.241396 0.893242
C73   C     C_2   0.426188 0.970133 0.758604 0.893239
C74   C     C_2   0.938868 0.444341 0.374677 0.900944
C75   C     C_2   0.061134 0.444343 0.625319 0.900942
C76   C     C_2   0.438882 0.944323 0.374664 0.900929
C77   C     C_2   0.561116 0.944321 0.625335 0.900930
C78   C     C_2   0.918257 0.517312 0.387765 0.976989
C79   C     C_3   0.033856 0.468573 0.180261 -0.244453
C80   C     C_2   0.081742 0.517313 0.612236 0.976986
C81   C     C_2   0.418252 0.017288 0.387769 0.977012
C82   C     C_2   0.581748 0.017286 0.612231 0.977019
C83   C     C_3   0.966145 0.468573 0.819736 -0.244454
C84   C     C_3   0.533865 0.968583 0.180254 -0.244529
C85   C     C_R   0.080689 0.499989 0.419262 0.955303
C86   C     C_3   0.466134 0.968585 0.819746 -0.244531
C87   C     C_3   0.955364 0.485212 0.259031 -0.388277
C88   C     C_3   0.044636 0.485214 0.740968 -0.388274
C89   C     C_3   0.455367 0.985197 0.259028 -0.388319
C90   C     C_3   0.544632 0.985195 0.740972 -0.388324
C91   C     C_R   0.729141 0.466420 0.802220 -0.027160
C92   C     C_R   0.270860 0.466418 0.197780 -0.027160
C93   C     C_R   0.229141 0.966411 0.802203 -0.027177
C94   C     C_R   0.770859 0.966409 0.197800 -0.027178
C95   C     C_R   0.706428 0.498353 0.795204 0.050627
C96   C     C_R   0.419311 0.999989 0.580737 0.955311
C97   C     C_R   0.293572 0.498352 0.204796 0.050627
C98   C     C_R   0.206428 0.998351 0.795201 0.050620
C99   C     C_R   0.793572 0.998349 0.204800 0.050620
C100  C     C_R   0.727037 0.531113 0.744570 -0.226396
C101  C     C_R   0.272962 0.531112 0.255431 -0.226395
C102  C     C_R   0.227037 0.031116 0.744581 -0.226403
C103  C     C_R   0.772962 0.031116 0.255418 -0.226402
C104  C     C_R   0.770616 0.533419 0.699865 -0.020144
C105  C     C_R   0.229383 0.533419 0.300136 -0.020145
C106  C     C_R   0.270616 0.033423 0.699877 -0.020143
C107  C     C_R   0.580689 0.999989 0.419262 0.955308
C108  C     C_R   0.729383 0.033423 0.300123 -0.020142
C109  C     C_R   0.793333 0.501410 0.706543 0.054060
C110  C     C_R   0.206667 0.501408 0.293457 0.054060
C111  C     C_R   0.293333 0.001408 0.706542 0.054062
C112  C     C_R   0.706667 0.001406 0.293459 0.054062
C113  C     C_R   0.999234 0.499944 0.379272 0.907594
C114  C     C_R   0.000766 0.499945 0.620728 0.907594
C115  C     C_R   0.499233 0.999944 0.379272 0.907594
C116  C     C_R   0.500767 0.999945 0.620727 0.907590
C117  C     C_R   0.772758 0.468509 0.756829 -0.220267
C118  C     C_3   0.952844 0.486601 0.334014 -0.162501
C119  C     C_R   0.227242 0.468507 0.243171 -0.220268
C120  C     C_R   0.272759 0.968502 0.756814 -0.220272
C121  C     C_R   0.727242 0.968499 0.243189 -0.220271
C122  C     C_1   0.661908 0.498669 0.838471 0.043223
C123  C     C_1   0.338092 0.498668 0.161529 0.043222
C124  C     C_1   0.161908 0.998667 0.838470 0.043229
C125  C     C_1   0.838092 0.998666 0.161530 0.043228
C126  C     C_1   0.837848 0.500693 0.661804 0.045939
C127  C     C_1   0.162152 0.500692 0.338197 0.045937
C128  C     C_1   0.337848 0.000692 0.661803 0.045931
C129  C     C_3   0.047156 0.486602 0.665985 -0.162502
C130  C     C_1   0.662152 0.000691 0.338198 0.045930
C131  C     C_1   0.875132 0.500132 0.624680 -0.075214
C132  C     C_1   0.124868 0.500131 0.375320 -0.075213
C133  C     C_1   0.375132 0.000131 0.624679 -0.075225
C134  C     C_1   0.624868 0.000130 0.375321 -0.075221
C135  C     C_1   0.624613 0.499292 0.875059 -0.097697
C136  C     C_1   0.375387 0.499292 0.124941 -0.097697
C137  C     C_1   0.124613 0.999292 0.875059 -0.097691
C138  C     C_1   0.875387 0.999291 0.124941 -0.097688
C139  C     C_1   0.500000 0.662103 0.000001 -0.046533
C140  C     C_3   0.452847 0.986586 0.334011 -0.162467
C141  C     C_1   0.000000 0.162103 0.000000 -0.046534
C142  C     C_R   1.000000 0.580568 0.000000 0.957639
C143  C     C_R   0.500000 0.080569 0.000000 0.957760
C144  C     C_R   0.999780 0.498839 0.121631 0.853906
C145  C     C_R   0.000220 0.498839 0.878369 0.853906
C146  C     C_R   0.499780 0.998837 0.121631 0.853890
C147  C     C_R   0.500220 0.998837 0.878369 0.853889
C148  C     C_1   0.000001 0.337695 1.000000 -0.040704
C149  C     C_1   0.500001 0.837695 1.000000 -0.040672
C150  C     C_R   0.000000 0.419252 1.000000 0.919897
C151  C     C_3   0.547152 0.986585 0.665989 -0.162468
C152  C     C_R   0.500000 0.919252 1.000000 0.919836
C153  C     C_1   0.000000 0.375005 1.000000 -0.120854
C154  C     C_1   0.500000 0.875005 1.000000 -0.120885
C155  C     C_R   0.500000 0.419647 1.000000 0.897553
C156  C     C_R   0.000000 0.919647 1.000000 0.897585
C157  C     C_R   0.580400 0.499877 0.919451 0.888760
C158  C     C_R   0.419600 0.499877 0.080549 0.888760
C159  C     C_R   0.080400 0.999877 0.919451 0.888753
C160  C     C_R   0.919600 0.999877 0.080549 0.888756
C161  C     C_R   0.500000 0.580491 0.000000 0.887048
C162  C     C_3   0.998071 0.499355 0.312300 -0.094807
C163  C     C_R   0.000000 0.080490 0.000000 0.887027
C164  C     C_R   0.485625 0.272035 0.961649 -0.088529
C165  C     C_R   0.514375 0.272035 0.038350 -0.088533
C166  C     C_R   0.985504 0.772034 0.961846 -0.088462
C167  C     C_R   0.014493 0.772035 0.038157 -0.088459
C168  C     C_R   0.500000 0.293561 0.999999 -0.003602
C169  C     C_R   0.999999 0.793560 0.000001 -0.003616
C170  C     C_R   0.014341 0.728106 0.038386 -0.100616
C171  C     C_R   0.985656 0.728105 0.961617 -0.100619
C172  C     C_R   0.514219 0.228107 0.038581 -0.100547
H1    H     H_    0.040791 0.553364 0.260332 0.214527
H2    H     H_    0.980329 0.434937 0.720592 0.205538
H3    H     H_    0.519692 0.934943 0.279387 0.205554
H4    H     H_    0.480306 0.934944 0.720613 0.205559
H5    H     H_    0.004795 0.371154 0.163565 0.346376
H6    H     H_    0.995210 0.371154 0.836426 0.346377
H7    H     H_    0.504834 0.871155 0.163527 0.346314
H8    H     H_    0.495162 0.871155 0.836473 0.346315
H9    H     H_    0.791096 0.444448 0.760783 0.189735
H10   H     H_    0.208905 0.444446 0.239216 0.189735
H11   H     H_    0.291097 0.944437 0.760757 0.189747
H12   H     H_    0.959207 0.553364 0.739671 0.214525
H13   H     H_    0.708904 0.944433 0.239247 0.189747
H14   H     H_    0.656830 0.405881 0.945724 0.363767
H15   H     H_    0.343172 0.405879 0.054274 0.363767
H16   H     H_    0.156829 0.905852 0.945668 0.363731
H17   H     H_    0.843173 0.905845 0.054339 0.363732
H18   H     H_    0.708773 0.555283 0.740665 0.188125
H19   H     H_    0.291226 0.555283 0.259336 0.188125
H20   H     H_    0.208772 0.055290 0.740687 0.188135
H21   H     H_    0.791227 0.055291 0.259311 0.188134
H22   H     H_    0.841979 0.605604 0.585366 0.356606
H23   H     H_    0.540775 0.053375 0.260344 0.214523
H24   H     H_    0.158019 0.605604 0.414637 0.356606
H25   H     H_    0.341979 0.105613 0.585397 0.356619
H26   H     H_    0.658019 0.105614 0.414599 0.356620
H27   H     H_    0.927643 0.661890 0.935390 0.367140
H28   H     H_    0.072353 0.661891 0.064618 0.367139
H29   H     H_    0.427912 0.161942 0.934743 0.367177
H30   H     H_    0.572088 0.161947 0.065261 0.367177
H31   H     H_    0.427334 0.338587 0.936645 0.356274
H32   H     H_    0.572663 0.338592 0.063355 0.356276
H33   H     H_    0.926989 0.838561 0.937368 0.356241
H34   H     H_    0.459225 0.053377 0.739657 0.214524
H35   H     H_    0.073008 0.838559 0.062636 0.356242
H36   H     H_    0.009455 0.288317 0.089437 0.154026
H37   H     H_    0.990546 0.288316 0.910563 0.154027
H38   H     H_    0.507154 0.788317 0.092187 0.153839
H39   H     H_    0.492848 0.788316 0.907813 0.153839
H40   H     H_    0.988277 0.567940 0.313553 0.244303
H41   H     H_    0.011720 0.567940 0.686451 0.244303
H42   H     H_    0.488258 0.067936 0.313574 0.244303
H43   H     H_    0.511743 0.067936 0.686426 0.244302
H44   H     H_    0.507154 0.711530 0.092189 0.156301
H45   H     H_    0.947409 0.454123 0.248112 0.239381
H46   H     H_    0.492847 0.711529 0.907812 0.156301
H47   H     H_    0.009459 0.211530 0.089435 0.156273
H48   H     H_    0.990543 0.211529 0.910565 0.156273
H49   H     H_    0.926853 0.605749 0.255938 0.366759
H50   H     H_    0.073142 0.605751 0.744069 0.366759
H51   H     H_    0.426812 0.105722 0.255995 0.366804
H52   H     H_    0.573191 0.105719 0.744004 0.366802
H53   H     H_    0.042763 0.550483 0.155023 0.167507
H54   H     H_    0.957235 0.550482 0.844980 0.167507
H55   H     H_    0.542743 0.050497 0.155038 0.167485
H56   H     H_    0.052593 0.454125 0.751885 0.239382
H57   H     H_    0.457258 0.050500 0.844962 0.167483
H58   H     H_    0.116905 0.443721 0.253536 0.345830
H59   H     H_    0.883097 0.443720 0.746460 0.345832
H60   H     H_    0.616920 0.943755 0.253524 0.345828
H61   H     H_    0.383078 0.943760 0.746475 0.345828
H62   H     H_    0.064402 0.482880 0.136849 0.184803
H63   H     H_    0.935599 0.482879 0.863150 0.184803
H64   H     H_    0.564406 0.982900 0.136846 0.184806
H65   H     H_    0.435594 0.982903 0.863153 0.184807
H66   H     H_    0.910853 0.413497 0.473260 0.359057
H67   H     H_    0.447423 0.954104 0.248100 0.239348
H68   H     H_    0.089149 0.413499 0.526735 0.359057
H69   H     H_    0.410869 0.913473 0.473241 0.359046
H70   H     H_    0.589131 0.913471 0.526757 0.359047
H71   H     H_    0.898794 0.564928 0.461317 0.365702
H72   H     H_    0.101204 0.564931 0.538687 0.365702
H73   H     H_    0.398776 0.064898 0.461339 0.365714
H74   H     H_    0.601225 0.064894 0.538661 0.365714
H75   H     H_    0.931199 0.505577 0.262487 0.233454
H76   H     H_    0.068800 0.505580 0.737513 0.233454
H77   H     H_    0.431196 0.005553 0.262489 0.233447
H78   H     H_    0.552576 0.954102 0.751899 0.239345
H79   H     H_    0.568804 0.005550 0.737510 0.233448
H80   H     H_    0.019674 0.434937 0.279404 0.205540
O1    O     O_R   0.939010 0.534400 0.560970 -0.592919
O2    O     O_R   0.439030 0.499940 0.008670 -0.596737
O3    O     O_R   0.911788 0.437866 0.735182 -0.768240
O4    O     O_2   0.595700 0.000727 0.210224 -0.629329
O5    O     O_R   0.588231 0.937893 0.264800 -0.768232
O6    O     O_2   0.404299 0.000731 0.789777 -0.629327
O7    O     O_R   0.411767 0.937898 0.735199 -0.768231
O8    O     O_2   0.945010 0.411806 0.340436 -0.561064
O9    O     O_R   0.918514 0.442893 0.452603 -0.792196
O10   O     O_2   0.054995 0.411808 0.659558 -0.561061
O11   O     O_R   0.081486 0.442894 0.547394 -0.792197
O12   O     O_2   0.445041 0.911789 0.340413 -0.561166
O13   O     O_R   0.060970 0.999940 0.991330 -0.596772
O14   O     O_R   0.418521 0.942870 0.452591 -0.792173
O15   O     O_2   0.554954 0.911787 0.659586 -0.561168
O16   O     O_R   0.581481 0.942869 0.547407 -0.792171
O17   O     O_2   0.883511 0.513684 0.399951 -0.581667
O18   O     O_R   0.924617 0.547618 0.426902 -0.789464
O19   O     O_2   0.116488 0.513686 0.600049 -0.581668
O20   O     O_R   0.075381 0.547620 0.573101 -0.789463
O21   O     O_2   0.383508 0.013653 0.399952 -0.581667
O22   O     O_R   0.424604 0.047594 0.426919 -0.789485
O23   O     O_2   0.616492 0.013650 0.600048 -0.581667
O24   O     O_R   0.939030 0.999940 0.008670 -0.596773
O25   O     O_R   0.575397 0.047592 0.573081 -0.789489
O26   O     O_R   0.500000 0.561000 0.947810 -0.611807
O27   O     O_R   0.500000 0.561000 0.052190 -0.611808
O28   O     O_R   0.000000 0.061000 0.947810 -0.611797
O29   O     O_R   0.000000 0.061000 0.052190 -0.611798
O30   O     O_R   0.938970 0.465540 0.561010 -0.591438
O31   O     O_R   0.061030 0.465540 0.438990 -0.591438
O32   O     O_R   0.438970 0.965540 0.561010 -0.591429
O33   O     O_R   0.060990 0.534400 0.439030 -0.592919
O34   O     O_R   0.561030 0.965540 0.438990 -0.591433
O35   O     O_R   0.999990 0.534400 0.407410 -0.592031
O36   O     O_R   0.000010 0.534400 0.592590 -0.592029
O37   O     O_R   0.499990 0.034400 0.407410 -0.592045
O38   O     O_R   0.500010 0.034400 0.592590 -0.592046
O39   O     O_R   0.999950 0.465540 0.407450 -0.610205
O40   O     O_R   0.000050 0.465540 0.592550 -0.610203
O41   O     O_R   0.499950 0.965540 0.407450 -0.610216
O42   O     O_R   0.500050 0.965540 0.592550 -0.610219
O43   O     O_R   0.965540 0.560940 0.034450 -0.605882
O44   O     O_R   0.439010 0.034400 0.560970 -0.592920
O45   O     O_R   0.034460 0.560940 0.965550 -0.605884
O46   O     O_R   0.465540 0.060940 0.034450 -0.605896
O47   O     O_R   0.534460 0.060940 0.965550 -0.605896
O48   O     O_R   0.965550 0.499950 0.127040 -0.623999
O49   O     O_R   0.034450 0.499950 0.872960 -0.623999
O50   O     O_R   0.465550 0.999950 0.127040 -0.624006
O51   O     O_R   0.534450 0.999950 0.872960 -0.624005
O52   O     O_R   0.034410 0.500000 0.058200 -0.613772
O53   O     O_R   0.965590 0.500000 0.941800 -0.613772
O54   O     O_R   0.534410 0.000000 0.058200 -0.613763
O55   O     O_R   0.560990 0.034400 0.439030 -0.592920
O56   O     O_R   0.465590 1.000000 0.941800 -0.613763
O57   O     O_R   0.965550 0.438960 0.034430 -0.597892
O58   O     O_R   0.034450 0.438960 0.965570 -0.597893
O59   O     O_R   0.465550 0.938960 0.034430 -0.597894
O60   O     O_R   0.534450 0.938960 0.965570 -0.597894
O61   O     O_R   0.499940 0.439020 0.947690 -0.603224
O62   O     O_R   0.500060 0.439020 0.052310 -0.603222
O63   O     O_R   0.999940 0.939020 0.947690 -0.603227
O64   O     O_R   0.000060 0.939020 0.052310 -0.603226
O65   O     O_2   0.064805 0.414549 0.089462 -0.594576
O66   O     O_R   0.560960 0.500010 0.886780 -0.614637
O67   O     O_R   0.000446 0.398544 0.190482 -0.762140
O68   O     O_2   0.935199 0.414548 0.910532 -0.594577
O69   O     O_R   0.999557 0.398545 0.809511 -0.762138
O70   O     O_2   0.564832 0.914568 0.089440 -0.594364
O71   O     O_R   0.500477 0.898543 0.190452 -0.762252
O72   O     O_2   0.435165 0.914571 0.910560 -0.594361
O73   O     O_R   0.499520 0.898544 0.809548 -0.762252
O74   O     O_2   0.729400 0.400110 0.848881 -0.595468
O75   O     O_R   0.666525 0.432033 0.913838 -0.794276
O76   O     O_2   0.270602 0.400107 0.151119 -0.595467
O77   O     O_R   0.439040 0.500010 0.113220 -0.614639
O78   O     O_R   0.333476 0.432032 0.086160 -0.794276
O79   O     O_2   0.229404 0.900095 0.848841 -0.595450
O80   O     O_R   0.166523 0.932009 0.913794 -0.794287
O81   O     O_2   0.770598 0.900090 0.151166 -0.595451
O82   O     O_R   0.833478 0.932003 0.086211 -0.794286
O83   O     O_2   0.771357 0.590070 0.629739 -0.596750
O84   O     O_R   0.832140 0.580466 0.619726 -0.797164
O85   O     O_2   0.228642 0.590071 0.370262 -0.596750
O86   O     O_R   0.167858 0.580465 0.380276 -0.797163
O87   O     O_2   0.271354 0.090088 0.629779 -0.596730
O88   O     O_R   0.060960 0.000010 0.886780 -0.614605
O89   O     O_R   0.332140 0.080471 0.619749 -0.797179
O90   O     O_2   0.728644 0.090090 0.370219 -0.596730
O91   O     O_R   0.667858 0.080471 0.380248 -0.797179
O92   O     O_2   0.985304 0.707744 0.857201 -0.536461
O93   O     O_R   0.935777 0.676813 0.966795 -0.774812
O94   O     O_2   0.014690 0.707747 0.142805 -0.536464
O95   O     O_R   0.064219 0.676814 0.033212 -0.774812
O96   O     O_2   0.485704 0.207697 0.856747 -0.536461
O97   O     O_R   0.435956 0.176869 0.966277 -0.774735
O98   O     O_2   0.514285 0.207692 0.143260 -0.536450
O99   O     O_R   0.939040 0.000010 0.113220 -0.614605
O100  O     O_R   0.564045 0.176874 0.033726 -0.774737
O101  O     O_2   0.483970 0.291724 0.858242 -0.549910
O102  O     O_R   0.435877 0.323827 0.967579 -0.787072
O103  O     O_2   0.516036 0.291719 0.141753 -0.549920
O104  O     O_R   0.564118 0.323832 0.032422 -0.787072
O105  O     O_2   0.983635 0.791764 0.858680 -0.549831
O106  O     O_R   0.935621 0.823792 0.968164 -0.787064
O107  O     O_2   0.016358 0.791768 0.141324 -0.549831
O108  O     O_R   0.064377 0.823790 0.031839 -0.787062
O109  O     O_2   0.998437 0.603091 0.152056 -0.633820
O110  O     O_R   0.560970 0.499940 0.991330 -0.596736
O111  O     O_R   0.941193 0.581380 0.262426 -0.782318
O112  O     O_2   0.001559 0.603092 0.847950 -0.633821
O113  O     O_R   0.058804 0.581382 0.737579 -0.782317
O114  O     O_2   0.498390 0.103081 0.152089 -0.633891
O115  O     O_R   0.441163 0.081361 0.262473 -0.782281
O116  O     O_2   0.501613 0.103081 0.847910 -0.633892
O117  O     O_R   0.558840 0.081358 0.737527 -0.782281
O118  O     O_2   0.095701 0.500699 0.210220 -0.629337
O119  O     O_R   0.088214 0.437868 0.264815 -0.768241
O120  O     O_2   0.904299 0.500697 0.789780 -0.629338
Zn1   Zn    Zn3+2 0.000000 0.545950 0.500000 1.077509
Zn2   Zn    Zn3+2 0.500030 0.500020 0.069780 1.032552
Zn3   Zn    Zn3+2 0.999970 0.000020 0.930220 1.032581
Zn4   Zn    Zn3+2 0.000030 0.000020 0.069780 1.032582
Zn5   Zn    Zn3+2 0.500000 0.045950 0.500000 1.077479
Zn6   Zn    Zn3+2 1.000000 0.454000 0.500000 1.082239
Zn7   Zn    Zn3+2 0.500000 0.954000 0.500000 1.082227
Zn8   Zn    Zn3+2 0.954000 0.499940 0.045990 1.061503
Zn9   Zn    Zn3+2 0.046000 0.499940 0.954010 1.061502
Zn10  Zn    Zn3+2 0.454000 0.999940 0.045990 1.061505
Zn11  Zn    Zn3+2 0.546000 0.999940 0.954010 1.061504
Zn12  Zn    Zn3+2 0.499970 0.500020 0.930220 1.032552

loop_
_geom_bond_atom_site_label_1
_geom_bond_atom_site_label_2
_ccdc_geom_bond_type
C99   C103  A    
C105  C110  A    
C51   O81   D    
C40   C71   S    
C18   C21   A    
H50   O113  S    
C29   H38   S    
H61   O7    S    
H49   O111  S    
O44   Zn5   S    
C90   H78   S    
C96   O32   A    
C60   O100  S    
C67   O115  S    
C56   O93   S    
C4    C171  A    
C92   C119  A    
C161  O26   A    
C36   C66   S    
C47   O72   D    
C100  C104  A    
H22   O84   S    
C34   C35   S    
O60   Zn11  S    
C14   C163  S    
C64   O108  S    
O35   Zn1   S    
C12   C161  S    
C63   C166  S    
C61   O101  D    
C163  O29   A    
O28   Zn3   S    
C48   C91   S    
C68   C90   S    
C42   C86   S    
C93   C120  A    
H29   O97   S    
C38   C69   S    
C50   O79   D    
C40   C83   S    
C130  C134  T    
O31   Zn6   S    
C71   O120  D    
C59   O96   D    
C25   C29   A    
C147  O51   A    
C109  C117  A    
C47   C86   S    
C124  C137  T    
C164  C168  A    
C107  O34   A    
C87   C118  S    
C1    C131  S    
C98   C102  A    
O33   Zn1   S    
C65   O111  S    
C17   C21   A    
C80   O20   S    
C119  H10   S    
C24   C151  S    
C58   O94   D    
C144  O48   A    
C12   C139  T    
C70   O118  D    
C13   C115  S    
C89   H77   S    
C3    C164  A    
H26   O91   S    
C95   C122  S    
C83   H63   S    
H60   O5    S    
C156  O64   A    
C56   C171  S    
C125  C138  T    
C148  C153  T    
C30   C162  S    
O29   Zn4   S    
C118  C162  S    
C42   C73   S    
O63   Zn3   S    
H72   O20   S    
O50   Zn10  S    
H31   O102  S    
C100  H18   S    
C79   H62   S    
C101  H19   S    
C73   O7    S    
C87   H75   S    
H58   O119  S    
C74   O8    D    
O99   Zn4   S    
C113  O39   A    
C23   C148  S    
C114  O40   A    
C33   C38   S    
C42   H4    S    
C17   C29   A    
C113  O35   A    
O66   Zn12  S    
C2    C114  S    
C114  O36   A    
C116  O38   A    
O64   Zn4   S    
C74   O9    S    
C2    C40   S    
H25   O89   S    
C8    C10   T    
C85   O31   A    
C31   C36   S    
C2    C31   S    
H66   O9    S    
O30   Zn6   S    
C11   C143  S    
C37   C57   S    
C143  O46   A    
C81   C140  S    
C40   H2    S    
C135  C157  S    
C76   O14   S    
H32   O104  S    
C13   C32   S    
C44   C83   S    
O27   Zn2   S    
C33   H43   S    
C167  C169  A    
C28   H39   S    
C98   C124  S    
C4    C170  A    
C62   O104  S    
C78   C118  S    
C107  C134  S    
O62   Zn2   S    
C2    C129  S    
C25   C149  S    
C81   O22   S    
C78   O17   D    
O52   Zn9   S    
C35   C87   S    
C39   H80   S    
C66   O112  D    
C36   C46   S    
H70   O16   S    
C15   C155  S    
C82   C151  S    
C35   C144  S    
C136  C158  S    
C76   O12   D    
C72   O5    S    
C150  O58   A    
O110  Zn2   S    
O37   Zn5   S    
C88   C129  S    
C145  O49   A    
C92   C97   A    
C38   H57   S    
C106  C111  A    
C66   O113  S    
C74   C118  S    
O58   Zn9   S    
C6    C168  S    
C30   C34   S    
O45   Zn9   S    
C18   C28   A    
C45   O70   D    
C49   O78   S    
H8    O73   S    
C59   O97   S    
C41   C84   S    
C147  O56   A    
O43   Zn8   S    
H73   O22   S    
H74   O25   S    
O40   Zn6   S    
C158  O2    A    
C5    C9    S    
C138  C160  S    
C88   H76   S    
O59   Zn10  S    
C63   O105  D    
C89   C140  S    
C43   O67   S    
C32   C37   S    
C44   O68   D    
C39   C162  S    
C71   O3    S    
H33   O106  S    
C24   C116  S    
O38   Zn5   S    
C18   H46   S    
H30   O100  S    
C145  O53   A    
C80   C129  S    
C157  O66   A    
C159  O88   A    
C49   O76   D    
C110  C119  A    
C31   H41   S    
C150  O57   A    
C58   O95   S    
C77   O16   S    
C55   C108  S    
C82   O23   D    
H71   O18   S    
C112  C121  A    
C97   C123  S    
H7    O71   S    
C88   H56   S    
C142  O45   A    
C37   C67   S    
C35   C79   S    
C5    C172  A    
H52   O117  S    
C91   C95   A    
C82   O25   S    
C53   C105  S    
C109  C126  S    
C122  C135  T    
C111  C128  S    
O2    Zn12  S    
C112  C130  S    
C53   O86   S    
C155  O62   A    
C50   O80   S    
C31   H12   S    
C115  O41   A    
C61   C164  S    
C24   C42   S    
O36   Zn1   S    
H24   O86   S    
C13   C41   S    
O32   Zn7   S    
C143  O47   A    
C25   C28   A    
C116  O42   A    
C57   C89   S    
O53   Zn8   S    
C84   H64   S    
C72   O4    D    
H6    O69   S    
C152  O60   A    
C48   O75   S    
C160  O99   A    
C43   O65   D    
C27   H36   S    
C10   C142  S    
C23   C26   A    
O41   Zn7   S    
C150  C153  S    
C16   C156  S    
C54   O89   S    
C102  H20   S    
C91   C117  A    
C160  O24   A    
C70   O119  S    
C17   H44   S    
H59   O3    S    
C41   H3    S    
C51   O82   S    
C57   C146  S    
C55   O91   S    
O61   Zn12  S    
C32   H23   S    
C1    O1    A    
C75   O11   S    
H14   O75   S    
C137  C159  S    
C13   C140  S    
C161  O27   A    
O47   Zn11  S    
C54   C106  S    
C73   O6    D    
C107  O55   A    
C142  O43   A    
C108  C112  A    
C39   C79   S    
C64   O107  D    
C149  C154  T    
C61   O102  S    
C34   H53   S    
C57   C84   S    
C69   O117  S    
C146  O50   A    
C7    C16   T    
C20   C22   A    
C7    C169  S    
O55   Zn5   S    
C49   C92   S    
C90   H79   S    
C158  O77   A    
C52   C104  S    
C36   H54   S    
O77   Zn2   S    
C95   C100  A    
O39   Zn6   S    
C90   C151  S    
C3    C5    A    
O51   Zn11  S    
C64   C167  S    
C52   O83   D    
C24   C33   S    
H27   O93   S    
H17   O82   S    
C80   O19   D    
C52   O84   S    
H15   O78   S    
C44   O69   S    
C104  C109  A    
O88   Zn3   S    
C54   O87   D    
O48   Zn8   S    
C81   O21   D    
C78   O18   S    
C157  O110  A    
O46   Zn10  S    
C46   C83   S    
C94   C121  A    
C37   H55   S    
O34   Zn7   S    
C146  O54   A    
C156  O63   A    
H69   O14   S    
O54   Zn11  S    
C103  H21   S    
C68   C86   S    
C89   H67   S    
C67   O114  D    
O1    Zn1   S    
C4    C8    S    
C77   C151  S    
C99   C125  S    
H51   O115  S    
C85   O33   A    
C126  C131  T    
C58   C170  S    
C85   C132  S    
C30   H40   S    
C1    O30   A    
C117  H9    S    
C46   C145  S    
C163  O28   A    
C43   C79   S    
C86   H65   S    
C127  C132  T    
C6    C15   T    
C48   O74   D    
C115  O37   A    
C103  C108  A    
H5    O67   S    
C23   C27   A    
C19   C27   A    
C30   H1    S    
C110  C127  S    
C144  O52   A    
C165  C172  A    
C113  C162  S    
C75   O10   D    
C166  C171  A    
C152  O59   A    
C20   H48   S    
C34   C65   S    
C167  C170  A    
C46   C88   S    
C76   C140  S    
C101  C105  A    
C33   H34   S    
C62   O103  D    
C60   C172  S    
C19   C22   A    
O49   Zn9   S    
O56   Zn10  S    
C77   O15   D    
C111  C120  A    
C60   O98   D    
C96   O44   A    
O26   Zn12  S    
C9    C11   T    
C68   C147  S    
C41   C72   S    
C152  C154  S    
C165  C168  A    
C69   O116  D    
C56   O92   D    
C45   C84   S    
C19   H47   S    
H68   O11   S    
C53   O85   D    
C155  O61   A    
H28   O95   S    
C47   O73   S    
H16   O80   S    
O42   Zn7   S    
C38   C68   S    
O57   Zn8   S    
C45   O71   S    
C50   C93   S    
C96   C133  S    
C159  O13   A    
C123  C136  T    
H35   O108  S    
C32   H42   S    
C128  C133  T    
C20   C26   A    
C94   C99   A    
C55   O90   D    
C63   O106  S    
C22   C141  S    
C65   O109  D    
C39   C70   S    
C102  C106  A    
C26   H37   S    
C87   H45   S    
C120  H11   S    
C14   C141  T    
C51   C94   S    
C121  H13   S    
C62   C165  S    
C166  C169  A    
O13   Zn4   S    
C21   C139  S    
C93   C98   A    
O24   Zn3   S    
C97   C101  A    
C75   C129  S    
C3    C59   S    
