data_mof_unit_6023.cif
_audit_creation_date              2012-12-11T14:08:15-0500
_audit_creation_method            fapswitch 2.2
_symmetry_space_group_name_H-M    P1
_symmetry_Int_Tables_number       1
_space_group_crystal_system       triclinic
_cell_length_a                    28.224064
_cell_length_b                    7.192195
_cell_length_c                    17.159204
_cell_angle_alpha                 90.000273
_cell_angle_beta                  102.17876
_cell_angle_gamma                 90.000066
_cell_volume                      3404.80554802

loop_
_atom_site_label
_atom_site_type_symbol
_atom_type_description
_atom_site_fract_x
_atom_site_fract_y
_atom_site_fract_z
_atom_type_partial_charge
O1    O     O_R   0.000700 0.436510 0.857920 -0.532662
O2    O     O_R   0.999300 0.563490 0.142080 -0.532518
O3    O     O_R   0.999300 0.936510 0.642080 -0.532663
O4    O     O_R   0.000700 0.063490 0.357920 -0.532518
O5    O     O_R   0.930080 0.766380 0.721890 -0.542156
O6    O     O_R   0.069920 0.233620 0.278110 -0.542222
O7    O     O_R   0.069920 0.266380 0.778110 -0.542156
O8    O     O_R   0.930080 0.733620 0.221890 -0.542222
C1    C     C_R   0.910534 0.597492 0.708994 0.695198
C2    C     C_R   0.089428 0.402428 0.291565 0.694780
C3    C     C_R   0.089465 0.097493 0.791006 0.695198
C4    C     C_R   0.910572 0.902427 0.208434 0.694783
O9    O     O_R   0.996180 0.766230 0.862310 -0.543159
O10   O     O_R   0.003820 0.233770 0.137690 -0.543323
O11   O     O_R   0.003820 0.266230 0.637690 -0.543159
O12   O     O_R   0.996180 0.733770 0.362310 -0.543322
O13   O     O_R   0.065870 0.936460 0.783500 -0.539281
O14   O     O_R   0.934130 0.063540 0.216500 -0.539202
O15   O     O_R   0.934130 0.436460 0.716500 -0.539281
O16   O     O_R   0.065870 0.563540 0.283500 -0.539205
C5    C     C_R   0.998485 0.596473 0.894489 0.761891
C6    C     C_R   0.001512 0.403526 0.105510 0.761944
C7    C     C_R   0.001515 0.096473 0.605511 0.761894
C8    C     C_R   0.998488 0.903526 0.394489 0.761950
O17   O     O_3   0.022790 0.603020 0.723980 -0.377802
O18   O     O_3   0.977210 0.396980 0.276020 -0.377684
O19   O     O_3   0.977210 0.103020 0.776020 -0.377803
O20   O     O_3   0.022790 0.896980 0.223980 -0.377689
V1    V     V_3+5 0.995770 0.877900 0.754830 1.409561
V2    V     V_3+5 0.004230 0.122100 0.245170 1.409391
V3    V     V_3+5 0.004230 0.377900 0.745170 1.409562
V4    V     V_3+5 0.995770 0.622100 0.254830 1.409395
C9    C     C_2   0.001714 0.082701 0.519533 -0.331106
C10   C     C_2   0.998294 0.917297 0.480469 -0.331726
C11   C     C_2   0.998286 0.582702 0.980467 -0.331106
C12   C     C_2   0.001706 0.417296 0.019530 -0.331727
H1    H     H_    0.004517 0.211549 0.487789 0.153684
H2    H     H_    0.995492 0.788449 0.512213 0.153698
H3    H     H_    0.995483 0.711549 0.012212 0.153683
H4    H     H_    0.004507 0.288449 0.987785 0.153698
C13   C     C_R   0.683971 0.957303 0.018613 0.625469
C14   C     C_R   0.316473 0.008628 0.971772 0.614225
C15   C     C_R   0.316029 0.457332 0.481388 0.625483
C16   C     C_R   0.683526 0.508598 0.528236 0.613957
O21   O     O_2   0.714034 0.958108 0.967063 -0.475683
O22   O     O_2   0.286405 0.982730 0.022361 -0.487364
O23   O     O_2   0.285966 0.458102 0.532938 -0.475683
O24   O     O_2   0.713594 0.482595 0.477656 -0.487514
N1    N     N_R   0.703391 0.945433 0.098656 -0.568686
N2    N     N_R   0.297210 0.052123 0.893766 -0.566878
N3    N     N_R   0.296609 0.445461 0.401344 -0.568687
N4    N     N_R   0.702790 0.552114 0.606241 -0.566813
C17   C     C_R   0.674524 0.946128 0.153313 0.535003
C18   C     C_R   0.326374 0.080983 0.840585 0.540705
C19   C     C_R   0.325474 0.446196 0.346685 0.534769
C20   C     C_R   0.673626 0.581019 0.659418 0.540739
C21   C     C_R   0.777501 0.762898 0.149786 -0.090210
C22   C     C_R   0.222705 0.236508 0.847008 -0.082554
C23   C     C_R   0.222497 0.262881 0.350283 -0.090280
C24   C     C_R   0.777296 0.736503 0.652984 -0.082610
C25   C     C_R   0.827865 0.752092 0.176775 -0.190765
C26   C     C_R   0.172197 0.247969 0.822181 -0.190117
C27   C     C_R   0.172132 0.252069 0.323291 -0.190773
C28   C     C_R   0.827803 0.747967 0.677809 -0.190107
C29   C     C_R   0.834008 0.084389 0.157705 -0.189729
C30   C     C_R   0.166403 0.913895 0.835838 -0.190018
C31   C     C_R   0.165996 0.584424 0.342227 -0.189691
C32   C     C_R   0.833596 0.413886 0.664178 -0.190034
C33   C     C_R   0.783744 0.094518 0.130380 -0.096540
C34   C     C_R   0.216800 0.903002 0.860877 -0.095512
C35   C     C_R   0.216259 0.594559 0.369552 -0.096549
C36   C     C_R   0.783199 0.402988 0.639141 -0.095468
C37   C     C_R   0.755231 0.934003 0.126123 0.387957
C38   C     C_R   0.245273 0.064063 0.866893 0.378823
C39   C     C_R   0.244769 0.434019 0.373879 0.388029
C40   C     C_R   0.754726 0.564053 0.633113 0.378848
C41   C     C_R   0.602743 0.969249 0.046280 -0.108187
C42   C     C_R   0.397892 0.023798 0.945133 -0.105317
C43   C     C_R   0.397255 0.469378 0.453717 -0.108194
C44   C     C_R   0.602107 0.523893 0.554867 -0.105208
C45   C     C_R   0.633015 0.969121 0.990174 -0.117277
C46   C     C_R   0.367310 0.992784 0.999415 -0.125779
C47   C     C_R   0.366984 0.469190 0.509825 -0.117292
C48   C     C_R   0.632688 0.492841 0.500587 -0.125916
C49   C     C_R   0.611767 0.979692 0.907853 0.460356
C50   C     C_R   0.388303 0.945446 0.079150 0.443109
C51   C     C_R   0.388233 0.479751 0.592145 0.460348
C52   C     C_R   0.611691 0.445549 0.420848 0.442931
C53   C     C_R   0.623873 0.956869 0.128337 -0.015764
C54   C     C_R   0.377069 0.067998 0.865165 -0.011769
C55   C     C_R   0.376124 0.457016 0.371659 -0.015616
C56   C     C_R   0.622931 0.568069 0.634837 -0.011769
C57   C     C_R   0.856871 0.912873 0.181109 -0.051291
C58   C     C_R   0.143283 0.086674 0.816403 -0.052902
C59   C     C_R   0.143129 0.412876 0.318890 -0.051283
C60   C     C_R   0.856716 0.586669 0.683599 -0.052900
H5    H     H_    0.854906 0.211259 0.159931 0.134193
H6    H     H_    0.145618 0.786477 0.832200 0.134916
H7    H     H_    0.145102 0.711315 0.339946 0.134184
H8    H     H_    0.854381 0.286465 0.667825 0.134916
H9    H     H_    0.766888 0.227536 0.112661 0.112868
H10   H     H_    0.233795 0.768918 0.875678 0.116880
H11   H     H_    0.233118 0.727601 0.387217 0.112808
H12   H     H_    0.766204 0.268900 0.624351 0.116886
C61   C     C_R   0.479294 0.029054 0.914041 0.081970
C62   C     C_R   0.521447 0.971430 0.077638 0.079593
C63   C     C_R   0.520704 0.529184 0.585956 0.081976
C64   C     C_R   0.478549 0.471643 0.422355 0.079586
C65   C     C_R   0.470083 0.971775 0.051360 -0.024345
C66   C     C_R   0.530345 0.002138 0.938715 -0.013340
C67   C     C_R   0.529913 0.471967 0.448632 -0.024466
C68   C     C_R   0.469653 0.502270 0.561282 -0.013339
C69   C     C_R   0.449234 0.008826 0.970335 0.064716
C70   C     C_R   0.551394 0.981552 0.020764 0.064896
C71   C     C_R   0.550763 0.508966 0.529662 0.064713
C72   C     C_R   0.448603 0.481713 0.479231 0.064908
C73   C     C_R   0.457179 0.078417 0.834916 -0.206297
C74   C     C_R   0.544025 0.964174 0.159375 -0.189874
C75   C     C_R   0.542820 0.578525 0.665084 -0.206308
C76   C     C_R   0.455970 0.464440 0.340617 -0.190023
C77   C     C_R   0.407157 0.097048 0.811131 -0.162311
C78   C     C_R   0.594147 0.957132 0.184023 -0.161098
C79   C     C_R   0.592843 0.597132 0.688871 -0.162332
C80   C     C_R   0.405848 0.457371 0.315971 -0.160992
O25   O     O_2   0.306314 0.118169 0.763612 -0.512762
O26   O     O_2   0.694855 0.937173 0.231825 -0.523726
O27   O     O_2   0.693687 0.618216 0.736391 -0.512761
O28   O     O_2   0.305142 0.437196 0.268175 -0.523717
C81   C     C_R   0.560943 0.991079 0.883574 -0.309069
C82   C     C_R   0.438795 0.931825 0.103363 -0.283297
C83   C     C_R   0.439056 0.491172 0.616424 -0.309063
C84   C     C_R   0.561199 0.432030 0.396625 -0.282989
H13   H     H_    0.155892 0.383287 0.807703 0.133130
H14   H     H_    0.843981 0.617769 0.194237 0.133734
H15   H     H_    0.844108 0.883289 0.692277 0.133127
H16   H     H_    0.156014 0.117722 0.305884 0.133712
H17   H     H_    0.244301 0.362037 0.851409 0.110714
H18   H     H_    0.755758 0.638037 0.147013 0.108765
H19   H     H_    0.755699 0.862034 0.648574 0.110712
H20   H     H_    0.244237 0.138002 0.353108 0.108741
H21   H     H_    0.392125 0.134248 0.749704 0.190835
H22   H     H_    0.609538 0.951956 0.247413 0.165819
H23   H     H_    0.607875 0.634314 0.750300 0.190848
H24   H     H_    0.390456 0.452243 0.252580 0.165828
H25   H     H_    0.477784 0.108826 0.790203 0.122387
H26   H     H_    0.523845 0.969337 0.206149 0.119032
H27   H     H_    0.522215 0.608932 0.709798 0.122388
H28   H     H_    0.476149 0.469659 0.293844 0.119043
H29   H     H_    0.545768 0.981826 0.820697 0.117980
H30   H     H_    0.452548 0.880740 0.162903 0.132800
H31   H     H_    0.454233 0.481908 0.679300 0.117991
H32   H     H_    0.547450 0.381054 0.337064 0.132970
O29   O     O_3   0.640905 0.959744 0.852172 -0.517322
C85   C     C_3   0.628976 0.089652 0.789109 0.124154
H33   H     H_    0.618618 0.227921 0.809880 0.113328
H34   H     H_    0.598941 0.034602 0.742189 0.108380
C86   C     C_3   0.672719 0.117535 0.751602 -0.583487
H35   H     H_    0.685384 0.982032 0.732889 0.239516
H36   H     H_    0.662661 0.207203 0.698122 0.152673
H37   H     H_    0.702640 0.184349 0.795004 0.243481
O30   O     O_3   0.359580 0.890559 0.131312 -0.523801
C87   C     C_3   0.362443 0.024401 0.192424 0.143853
H38   H     H_    0.349222 0.162038 0.166942 0.152614
H39   H     H_    0.400130 0.039389 0.227797 0.086139
C88   C     C_3   0.330674 0.962264 0.249054 -0.585939
H40   H     H_    0.342545 0.823492 0.274100 0.218549
H41   H     H_    0.333712 0.062650 0.298949 0.164017
H42   H     H_    0.292214 0.954167 0.216886 0.244348
O31   O     O_3   0.359097 0.459754 0.647828 -0.517328
C89   C     C_3   0.371017 0.589666 0.710891 0.124170
H43   H     H_    0.381364 0.727951 0.690121 0.113337
H44   H     H_    0.401057 0.534645 0.757810 0.108375
C90   C     C_3   0.327272 0.617488 0.748401 -0.583484
H45   H     H_    0.314619 0.481967 0.767115 0.239514
H46   H     H_    0.337322 0.707165 0.801879 0.152670
H47   H     H_    0.297345 0.684267 0.704998 0.243483
O32   O     O_3   0.640394 0.390558 0.368677 -0.523852
C91   C     C_3   0.637697 0.524783 0.307755 0.144019
H48   H     H_    0.651360 0.661744 0.333421 0.153561
H49   H     H_    0.599987 0.541457 0.272683 0.085869
C92   C     C_3   0.669077 0.461721 0.250678 -0.586699
H50   H     H_    0.656672 0.323782 0.225289 0.218119
H51   H     H_    0.666267 0.562723 0.201051 0.164280
H52   H     H_    0.707550 0.451476 0.282588 0.244369

loop_
_geom_bond_atom_site_label_1
_geom_bond_atom_site_label_2
_ccdc_geom_bond_type
O17   V3    S    
C47   C51   A    
C61   C66   A    
N1    C17   A    
O1    C5    A    
C88   H40   S    
O19   V1    S    
O13   V1    S    
O31   C89   S    
C64   C76   A    
O3    C7    A    
C11   C12   D    
C14   C46   A    
C44   C48   A    
O15   V3    S    
C75   C79   A    
O30   C87   S    
C52   O32   S    
C92   H50   S    
C42   C54   A    
O7    C3    A    
C41   C53   A    
C32   C60   A    
C62   C70   A    
C23   H20   S    
C26   H13   S    
C73   H25   S    
N3    C39   S    
C18   C54   A    
N2    C38   S    
C74   C78   A    
O4    C8    A    
C25   C57   A    
C90   H47   S    
C31   C35   A    
C89   H43   S    
C21   C37   A    
C51   O31   S    
C27   C59   A    
O1    V3    S    
C15   C47   A    
C66   C81   A    
O2    V4    S    
C14   O22   S    
C20   O27   S    
C51   C83   A    
O3    V1    S    
C73   C77   A    
C34   C38   A    
C19   C55   A    
C49   C81   A    
C83   H31   S    
C1    O15   A    
C86   H35   S    
C82   H30   S    
C2    O16   A    
C7    C9    S    
O2    C6    A    
C33   C37   A    
O14   V2    S    
C41   C45   A    
C66   C70   A    
C85   H34   S    
C65   C69   A    
C30   C58   A    
C45   C49   A    
C16   N4    A    
O11   C7    A    
C28   H15   S    
O12   C8    A    
C43   C72   A    
C62   C74   A    
C31   C59   A    
C61   C73   A    
C88   H41   S    
O10   V2    S    
C63   C75   A    
C25   H14   S    
C91   H48   S    
O5    V1    S    
C90   H46   S    
C18   O25   S    
O7    V3    S    
O8    V4    S    
C77   H21   S    
C12   H4    S    
C28   C60   A    
C85   C86   S    
C92   H51   S    
O18   V4    S    
C50   C82   A    
C36   H12   S    
N4    C40   S    
C90   H45   S    
C24   C40   A    
C8    C10   S    
O9    V1    S    
C76   C80   A    
C32   C36   A    
C52   C84   A    
C44   C56   A    
C11   H3    S    
C32   H8    S    
O5    C1    A    
C87   C88   S    
C42   C46   A    
C44   C71   A    
C74   H26   S    
O8    C4    A    
C13   C45   A    
C9    C10   D    
O9    C5    A    
C36   C40   A    
C50   O30   S    
C49   O29   S    
O11   V3    S    
C1    C60   S    
C63   C71   A    
C85   H33   S    
C22   C26   A    
C14   N2    A    
C22   H17   S    
C88   H42   S    
O6    V2    S    
C76   H28   S    
C86   H37   S    
C33   H9    S    
C55   C80   A    
C26   C58   A    
C17   C53   A    
O10   C6    A    
C84   H32   S    
C54   C77   A    
N1    C37   S    
C4    C57   S    
C56   C79   A    
C42   C69   A    
C78   H22   S    
C4    O14   A    
C41   C70   A    
C23   C39   A    
C68   C72   A    
C22   C38   A    
C87   H38   S    
O16   V4    S    
C92   H52   S    
C61   C69   A    
C35   H11   S    
C3    O13   A    
C10   H2    S    
C43   C55   A    
C80   H24   S    
C48   C52   A    
C3    C58   S    
C16   C48   A    
O6    C2    A    
C91   H49   S    
C34   H10   S    
C21   C25   A    
C5    C11   S    
C31   H7    S    
O12   V4    S    
C13   N1    A    
C6    C12   S    
C23   C27   A    
C64   C67   A    
C24   C28   A    
C27   H16   S    
C64   C72   A    
O20   V2    S    
C30   H6    S    
C75   H27   S    
C29   H5    S    
N2    C18   A    
C87   H39   S    
C46   C50   A    
C35   C39   A    
C15   N3    A    
C30   C34   A    
C89   H44   S    
C2    C59   S    
C29   C33   A    
C29   C57   A    
C21   H18   S    
N3    C19   A    
C68   C83   A    
C9    H1    S    
C91   C92   S    
C17   O26   S    
C24   H19   S    
C43   C47   A    
N4    C20   A    
C67   C84   A    
C20   C56   A    
C19   O28   S    
C86   H36   S    
O32   C91   S    
C53   C78   A    
C79   H23   S    
C65   C82   A    
C13   O21   S    
C63   C68   A    
C67   C71   A    
C81   H29   S    
C15   O23   S    
C89   C90   S    
O4    V2    S    
C16   O24   S    
O29   C85   S    
C62   C65   A    
