data_mof_unit_47557.cif
_audit_creation_date              2013-03-05T16:23:09-0500
_audit_creation_method            fapswitch 2.2
_symmetry_space_group_name_H-M    P1
_symmetry_Int_Tables_number       1
_space_group_crystal_system       triclinic
_cell_length_a                    15.174328
_cell_length_b                    13.840244
_cell_length_c                    15.886966
_cell_angle_alpha                 89.348392
_cell_angle_beta                  90.612255
_cell_angle_gamma                 89.770517
_cell_volume                      3336.0887759

loop_
_atom_site_label
_atom_site_type_symbol
_atom_site_description
_atom_site_fract_x
_atom_site_fract_y
_atom_site_fract_z
_atom_type_partial_charge
O1    O     O_R   0.371450 0.581430 0.500010 -0.590784
O2    O     O_R   0.371450 0.418570 0.500010 -0.580572
C1    C     C_R   0.329895 0.500226 0.498851 0.794915
O3    O     O_R   0.500000 0.581470 0.379440 -0.580643
O4    O     O_R   0.500000 0.418530 0.379440 -0.588450
C2    C     C_R   0.499898 0.500638 0.340100 0.824221
Cu1   Cu    Cu3+1 0.499990 0.596430 0.500000 0.923877
Cu2   Cu    Cu3+1 0.499990 0.403570 0.500000 0.934736
O5    O     O_R   0.628540 0.581440 0.499990 -0.602979
O6    O     O_R   0.628540 0.418560 0.499990 -0.578499
O7    O     O_R   0.499990 0.581400 0.620560 -0.583224
O8    O     O_R   0.499990 0.418600 0.620560 -0.580146
C3    C     C_R   0.670536 0.499750 0.498935 0.767859
C4    C     C_R   0.500557 0.499512 0.659901 0.823969
C5    C     C_3   0.457319 0.589896 0.047127 -0.537829
C6    C     C_3   0.474485 0.411218 0.048453 -0.497855
C7    C     C_3   0.469638 0.407028 0.949686 0.530443
C8    C     C_3   0.458591 0.596679 0.947548 0.577317
H1    H     H_    0.390810 0.576238 0.071677 0.197031
H2    H     H_    0.407673 0.408640 0.075651 0.190397
H3    H     H_    0.504260 0.344760 0.074142 0.133769
H4    H     H_    0.474322 0.659661 0.076663 0.138833
C9    C     C_1   0.505844 0.498965 0.749333 -0.220274
C10   C     C_3   0.516333 0.506387 0.082982 0.074121
C11   C     C_3   0.517445 0.504949 0.917267 -0.045657
C12   C     C_3   0.620457 0.507978 0.954083 0.676707
C13   C     C_3   0.616379 0.521430 0.055885 0.144992
C14   C     C_1   0.512014 0.501862 0.824696 0.006109
C15   C     C_1   0.507986 0.505037 0.175319 -0.038621
C16   C     C_1   0.503146 0.502722 0.250627 -0.214254
C17   C     C_R   0.095079 0.587279 0.502052 -0.175415
C18   C     C_R   0.096681 0.415580 0.472709 -0.175873
H5    H     H_    0.059751 0.653960 0.513398 0.124976
H6    H     H_    0.062652 0.348820 0.459018 0.125752
C19   C     C_R   0.186648 0.587060 0.506137 -0.192919
C20   C     C_R   0.188098 0.415169 0.477361 -0.192127
H7    H     H_    0.220476 0.654045 0.519417 0.149093
H8    H     H_    0.222997 0.347962 0.467127 0.150286
C21   C     C_R   0.233663 0.500782 0.494556 -0.028514
C22   C     C_R   0.049597 0.501384 0.485875 0.126202
C23   C     C_R   0.910035 0.427158 0.530527 -0.201412
C24   C     C_R   0.904561 0.572137 0.445026 -0.178354
H9    H     H_    0.949044 0.372681 0.563592 0.130611
H10   H     H_    0.940544 0.626441 0.410412 0.126616
C25   C     C_R   0.818363 0.424398 0.534648 0.073673
C26   C     C_R   0.812105 0.573599 0.447529 0.050770
C27   C     C_R   0.767947 0.499402 0.494273 -0.101653
C28   C     C_R   0.952989 0.500127 0.486613 0.037268
C29   C     C_R   0.528488 0.106756 0.571392 -0.290899
C30   C     C_R   0.561603 0.891046 0.548765 -0.293667
H11   H     H_    0.549650 0.069899 0.628580 0.130550
H12   H     H_    0.611672 0.926509 0.586111 0.129280
C31   C     C_R   0.528276 0.208378 0.569599 0.068195
C32   C     C_R   0.560288 0.789490 0.547801 0.072988
H13   H     H_    0.549986 0.246818 0.624678 0.132494
H14   H     H_    0.608006 0.749136 0.585257 0.117692
N1    N     N_R   0.500020 0.258690 0.500000 -0.167384
N2    N     N_R   0.500020 0.741310 0.500000 -0.167508
C33   C     C_R   0.470914 0.209898 0.430956 0.077790
C34   C     C_R   0.439520 0.791456 0.452733 0.081699
H15   H     H_    0.447355 0.249242 0.376022 0.121414
H16   H     H_    0.391702 0.752660 0.415278 0.116147
C35   C     C_R   0.471018 0.108373 0.429722 -0.288439
C36   C     C_R   0.437979 0.893015 0.452503 -0.287602
H17   H     H_    0.449474 0.072822 0.372863 0.124788
H18   H     H_    0.387645 0.929993 0.415577 0.124983
C37   C     C_R   0.499890 0.054425 0.500628 0.136987
C38   C     C_R   0.499807 0.945149 0.500712 0.132812
O9    O     O_3   0.372290 0.588412 0.909567 -0.526555
C39   C     C_3   0.296507 0.628714 0.949252 0.148733
H19   H     H_    0.273669 0.582964 0.001854 0.136034
H20   H     H_    0.241962 0.625038 0.902276 0.157744
C40   C     C_3   0.300884 0.734355 0.976998 -0.949526
H21   H     H_    0.319095 0.783513 0.924714 0.258691
H22   H     H_    0.234358 0.756842 0.997908 0.217917
H23   H     H_    0.345667 0.743668 0.031673 0.237604
O10   O     O_3   0.379534 0.409679 0.919989 -0.518808
C41   C     C_3   0.320913 0.339754 0.954765 0.101524
H24   H     H_    0.350681 0.291568 0.003719 0.110286
H25   H     H_    0.296237 0.293480 0.903125 0.148298
C42   C     C_3   0.240003 0.388142 0.991514 -0.850057
H26   H     H_    0.208917 0.437317 0.944053 0.251894
H27   H     H_    0.191217 0.332159 0.009421 0.202856
H28   H     H_    0.257904 0.428622 0.048965 0.221128
C43   C     C_3   0.779423 0.340388 0.584154 -0.378887
C44   C     C_3   0.741555 0.372565 0.668416 -0.343488
C45   C     C_3   0.723680 0.285393 0.725336 -0.886837
H29   H     H_    0.686889 0.228930 0.690815 0.245723
H30   H     H_    0.786849 0.253918 0.748929 0.256510
H31   H     H_    0.684040 0.308112 0.779754 0.258184
H32   H     H_    0.789044 0.420874 0.700892 0.209706
H33   H     H_    0.679263 0.413226 0.657970 0.218267
H34   H     H_    0.729830 0.300977 0.546238 0.216290
H35   H     H_    0.831336 0.285174 0.597807 0.186495
C46   C     C_3   0.760205 0.652705 0.400308 -0.362752
C47   C     C_3   0.812420 0.718118 0.340170 -0.395224
C48   C     C_3   0.751426 0.790677 0.295593 -0.845865
H36   H     H_    0.700036 0.752385 0.258706 0.256000
H37   H     H_    0.718940 0.837843 0.342239 0.256885
H38   H     H_    0.790391 0.836782 0.252265 0.243414
H39   H     H_    0.862534 0.759625 0.376071 0.217634
H40   H     H_    0.845685 0.673515 0.292074 0.219731
H41   H     H_    0.707634 0.617492 0.362292 0.203272
H42   H     H_    0.729266 0.700428 0.447478 0.220112
C49   C     C_3   0.518275 0.312921 0.913930 -0.373657
C50   C     C_3   0.464171 0.227781 0.879483 -0.389783
C51   C     C_3   0.523471 0.152179 0.838912 -0.879673
H43   H     H_    0.556768 0.183443 0.783104 0.251633
H44   H     H_    0.573921 0.125333 0.884753 0.258255
H45   H     H_    0.482998 0.090091 0.817887 0.247932
H46   H     H_    0.429016 0.190321 0.931094 0.203947
H47   H     H_    0.417301 0.254151 0.830150 0.246283
H48   H     H_    0.559022 0.333926 0.859553 0.230814
H49   H     H_    0.564356 0.281984 0.961606 0.200674
C52   C     C_3   0.494858 0.698242 0.916478 -0.432497
C53   C     C_3   0.466730 0.731316 0.826419 -0.277117
C54   C     C_3   0.496572 0.834671 0.808085 -0.919828
H50   H     H_    0.465575 0.885561 0.852642 0.257285
H51   H     H_    0.569436 0.839949 0.813759 0.257310
H52   H     H_    0.476698 0.855937 0.742949 0.254572
H53   H     H_    0.495966 0.684818 0.778258 0.217749
H54   H     H_    0.394465 0.728097 0.816746 0.251941
H55   H     H_    0.473274 0.755184 0.960170 0.189573
H56   H     H_    0.566350 0.703762 0.919032 0.210206
C55   C     C_3   0.644976 0.628373 0.081457 -0.389067
C56   C     C_3   0.744754 0.652284 0.079620 -0.319580
C57   C     C_3   0.760503 0.760094 0.064870 -0.843801
H57   H     H_    0.739114 0.781141 0.000085 0.262890
H58   H     H_    0.723073 0.803668 0.110628 0.247643
H59   H     H_    0.831808 0.776087 0.072142 0.235422
H60   H     H_    0.775854 0.630821 0.140719 0.191919
H61   H     H_    0.779442 0.612923 0.029677 0.245220
H62   H     H_    0.610738 0.682904 0.042771 0.208304
H63   H     H_    0.622996 0.643485 0.146554 0.173356
C58   C     C_3   0.682041 0.455272 0.111514 -0.299488
C59   C     C_3   0.661801 0.348533 0.131138 -0.364460
C60   C     C_3   0.734417 0.302616 0.186229 -0.891089
H64   H     H_    0.800325 0.311568 0.157794 0.248947
H65   H     H_    0.735455 0.336493 0.249325 0.258306
H66   H     H_    0.721281 0.224229 0.194521 0.248763
H67   H     H_    0.601379 0.342389 0.169136 0.225311
H68   H     H_    0.655025 0.306828 0.072551 0.247460
H69   H     H_    0.749461 0.459067 0.086648 0.185740
H70   H     H_    0.688221 0.488466 0.174860 0.181501
O11   O     O_3   0.670396 0.587309 0.919986 -0.628927
C61   C     C_3   0.683051 0.591229 0.831596 0.035312
H71   H     H_    0.634625 0.641234 0.802373 0.164508
H72   H     H_    0.676707 0.520941 0.799784 0.146055
C62   C     C_3   0.773386 0.633539 0.813186 -0.853213
H73   H     H_    0.826410 0.587858 0.841380 0.231222
H74   H     H_    0.783108 0.638030 0.744050 0.207760
H75   H     H_    0.778220 0.707286 0.839675 0.255950
O12   O     O_3   0.663087 0.417262 0.937713 -0.649500
C63   C     C_3   0.755672 0.417449 0.923834 0.120265
H76   H     H_    0.791604 0.474328 0.958173 0.150274
H77   H     H_    0.769362 0.426421 0.856183 0.165860
C64   C     C_3   0.794809 0.319057 0.946836 -0.894437
H78   H     H_    0.753482 0.260413 0.920462 0.262521
H79   H     H_    0.862273 0.312930 0.920900 0.210555
H80   H     H_    0.799803 0.309668 0.015698 0.253130

loop_
_geom_bond_atom_site_label_1
_geom_bond_atom_site_label_2
_geom_bond_distance
_ccdc_geom_bond_type
C55   H63   1.111881 S    
C5    C8    1.584057 S    
C45   H29   1.108978 S    
C35   H17   1.081683 S    
C64   H78   1.110765 S    
C47   H40   1.111840 S    
C40   H22   1.110534 S    
C40   H21   1.105785 S    
C49   C50   1.541053 S    
C19   C21   1.403456 A    
C46   C47   1.537034 S    
C10   C13   1.596197 S    
C48   H38   1.110108 S    
C48   H36   1.110405 S    
Cu1   Cu2   2.669231 S    
C50   H47   1.110319 S    
O10   C41   1.427711 S    
C17   C22   1.401917 A    
C11   C14   1.473212 S    
Cu1   O7    1.924243 S    
C60   H65   1.111445 S    
C12   C13   1.631900 S    
C30   C32   1.406038 A    
C53   H54   1.106809 S    
C36   C38   1.410694 A    
C49   H48   1.104660 S    
C19   H7    1.083252 S    
C44   H32   1.111876 S    
C54   H51   1.111131 S    
O4    C2    1.290665 A    
O7    C4    1.287978 A    
C41   H25   1.109393 S    
N1    C33   1.364974 A    
C50   C51   1.529768 S    
N2    C34   1.362603 A    
C52   C53   1.552185 S    
C53   C54   1.527953 S    
C34   H16   1.081705 S    
C24   C26   1.404018 A    
O5    C3    1.295981 A    
C10   C15   1.473675 S    
C59   H68   1.104851 S    
C48   H37   1.111097 S    
C5    H1    1.102109 S    
C43   H34   1.108044 S    
C23   C28   1.389414 A    
C5    H4    1.108506 S    
C26   C46   1.530859 S    
C6    C7    1.571781 S    
C29   H11   1.081987 S    
C30   H12   1.081740 S    
C51   H43   1.109599 S    
C17   H5    1.083268 S    
C39   H19   1.102421 S    
Cu1   N2    2.005175 S    
C63   H77   1.102555 S    
Cu2   O8    1.928946 S    
C8    O9    1.441541 S    
C25   C27   1.429090 A    
C1    C21   1.461109 S    
C6    C10   1.566765 S    
O1    Cu1   1.962353 S    
C47   H39   1.111436 S    
C23   H9    1.084233 S    
C8    C11   1.629357 S    
C24   H10   1.079681 S    
O3    Cu1   1.928832 S    
C42   H27   1.110574 S    
C46   H41   1.112725 S    
O11   C61   1.419819 S    
C61   H72   1.105399 S    
C50   H46   1.107966 S    
C31   H13   1.078470 S    
C60   H66   1.110465 S    
C35   C37   1.409290 A    
C33   H15   1.080254 S    
C52   H55   1.106988 S    
C53   H53   1.101165 S    
C37   C38   1.512402 S    
C49   H49   1.106745 S    
C58   C59   1.539204 S    
C63   C64   1.522571 S    
O3    C2    1.287674 A    
C62   H75   1.110837 S    
C3    C27   1.480783 S    
C31   N1    1.364286 A    
C41   H24   1.109938 S    
C11   C12   1.663972 S    
C43   C44   1.532481 S    
C42   H26   1.110146 S    
O1    C1    1.291113 A    
C36   H18   1.081622 S    
C4    C9    1.422133 S    
C12   O11   1.440519 S    
C25   C43   1.521289 S    
C57   H58   1.109434 S    
C15   C16   1.199524 T    
C7    C49   1.606829 S    
Cu2   N1    2.005171 S    
C61   C62   1.522685 S    
C43   H35   1.113251 S    
C56   H61   1.104467 S    
C6    H2    1.106862 S    
C47   C48   1.526119 S    
C39   C40   1.533383 S    
C7    O10   1.441799 S    
C24   C28   1.392338 A    
C9    C14   1.201092 T    
C63   H76   1.105208 S    
Cu2   O6    1.962488 S    
C5    C10   1.558218 S    
C2    C16   1.422798 S    
O8    C4    1.288663 A    
C64   H80   1.101993 S    
C45   H30   1.111009 S    
C55   C56   1.551609 S    
C40   H23   1.106139 S    
C17   C19   1.390310 A    
C54   H52   1.110908 S    
C57   H57   1.111209 S    
C18   C20   1.388365 A    
C42   H28   1.108273 S    
C46   H42   1.111100 S    
C61   H71   1.102635 S    
C32   N2    1.363552 A    
C55   H62   1.093958 S    
C22   C28   1.466297 S    
C26   C27   1.433103 A    
C58   H70   1.114217 S    
C52   H56   1.088186 S    
C29   C37   1.409739 A    
C44   C45   1.526419 S    
C20   C21   1.402340 A    
O2    Cu2   1.960700 S    
C59   C60   1.531403 S    
O6    C3    1.294059 A    
C8    C52   1.587013 S    
O4    Cu2   1.924151 S    
C6    H3    1.095859 S    
C60   H64   1.108613 S    
C33   C35   1.405489 A    
C34   C36   1.405667 A    
C13   C58   1.602410 S    
C62   H74   1.110854 S    
O2    C1    1.291800 A    
C57   H59   1.110354 S    
C7    C11   1.621175 S    
C44   H33   1.108144 S    
C62   H73   1.108846 S    
C13   C55   1.599739 S    
C41   C42   1.521301 S    
C51   H44   1.110926 S    
C56   H60   1.111609 S    
C56   C57   1.527927 S    
C29   C31   1.406421 A    
C20   H8    1.083244 S    
C58   H69   1.101840 S    
C51   H45   1.110662 S    
C59   H67   1.106155 S    
C32   H14   1.081819 S    
C18   C22   1.402329 A    
O9    C39   1.431560 S    
Cu1   O5    1.960836 S    
C64   H79   1.110896 S    
C45   H31   1.106295 S    
C23   C25   1.393958 A    
C12   O12   1.437700 S    
C39   H20   1.110229 S    
O12   C63   1.424444 S    
C54   H50   1.110951 S    
C30   C38   1.410278 A    
C18   H6    1.083354 S    
