data_mof_unit_5652.cif
_audit_creation_date              2012-12-11T15:22:38-0500
_audit_creation_method            fapswitch 2.2
_symmetry_space_group_name_H-M    P1
_symmetry_Int_Tables_number       1
_space_group_crystal_system       triclinic
_cell_length_a                    22.824668
_cell_length_b                    7.227818
_cell_length_c                    20.781794
_cell_angle_alpha                 89.999935
_cell_angle_beta                  93.294732
_cell_angle_gamma                 90.000012
_cell_volume                      3422.75864396

loop_
_atom_site_label
_atom_site_type_symbol
_atom_type_description
_atom_site_fract_x
_atom_site_fract_y
_atom_site_fract_z
_atom_type_partial_charge
O1    O     O_R   0.438030 0.494310 0.439340 -0.537444
O2    O     O_R   0.561970 0.994310 0.560660 -0.537449
O3    O     O_R   0.556900 0.822900 0.435960 -0.535068
O4    O     O_R   0.443100 0.322900 0.564040 -0.535066
C1    C     C_R   0.575856 0.655483 0.421089 0.720018
C2    C     C_R   0.424143 0.155484 0.578911 0.720025
O5    O     O_R   0.438170 0.823950 0.431660 -0.541049
O6    O     O_R   0.561830 0.323950 0.568340 -0.541052
O7    O     O_R   0.442390 0.995390 0.556340 -0.533369
O8    O     O_R   0.557610 0.495390 0.443660 -0.533370
C3    C     C_R   0.418373 0.655331 0.415714 0.694680
C4    C     C_R   0.581628 0.155331 0.584284 0.694683
O9    O     O_3   0.501520 0.661170 0.540910 -0.375619
O10   O     O_3   0.498480 0.161170 0.459090 -0.375617
V1    V     V_3+5 0.499720 0.935580 0.492410 1.398117
V2    V     V_3+5 0.500280 0.435580 0.507590 1.398115
C5    C     C_R   0.828030 0.940431 0.858495 -0.220660
C6    C     C_R   0.171991 0.440489 0.141476 -0.220656
C7    C     C_R   0.869344 0.084379 0.865603 -0.074468
C8    C     C_R   0.130653 0.584375 0.134399 -0.074471
C9    C     C_R   0.862867 0.240913 0.825495 -0.206780
C10   C     C_R   0.137110 0.740850 0.174536 -0.206766
C11   C     C_R   0.816162 0.253851 0.778519 0.043242
C12   C     C_R   0.183820 0.753801 0.221505 0.043254
C13   C     C_R   0.774367 0.110983 0.772543 0.043732
C14   C     C_R   0.225634 0.610985 0.227455 0.043720
C15   C     C_R   0.780253 0.953788 0.812952 0.092374
C16   C     C_R   0.219767 0.453843 0.187020 0.092396
C17   C     C_R   0.811342 0.406765 0.737089 -0.188156
C18   C     C_R   0.188634 0.906694 0.262944 -0.188122
C19   C     C_R   0.765224 0.421249 0.688913 0.129384
C20   C     C_R   0.234769 0.921224 0.311101 0.129381
C21   C     C_R   0.721544 0.280087 0.684533 0.028804
C22   C     C_R   0.278451 0.780070 0.315474 0.028815
C23   C     C_R   0.726847 0.124388 0.726051 0.035332
C24   C     C_R   0.273157 0.624397 0.273944 0.035344
C25   C     C_R   0.684931 0.980184 0.720781 0.107660
C26   C     C_R   0.315090 0.480237 0.279190 0.107670
C27   C     C_R   0.690929 0.825785 0.761639 -0.189788
C28   C     C_R   0.309112 0.325895 0.238305 -0.189822
C29   C     C_R   0.738300 0.812222 0.807036 -0.182754
C30   C     C_R   0.261742 0.312336 0.192906 -0.182723
C31   C     C_R   0.672869 0.288907 0.639208 -0.226167
C32   C     C_R   0.327126 0.788885 0.360799 -0.226152
C33   C     C_R   0.631266 0.145542 0.633694 -0.067935
C34   C     C_R   0.368738 0.645547 0.366300 -0.067934
C35   C     C_R   0.637940 0.991092 0.674404 -0.225458
C36   C     C_R   0.362081 0.491139 0.325568 -0.225468
H1    H     H_    0.832345 0.819678 0.889363 0.124183
H2    H     H_    0.167692 0.319794 0.110580 0.124171
H3    H     H_    0.894808 0.351843 0.830197 0.127155
H4    H     H_    0.105150 0.851730 0.169858 0.127135
H5    H     H_    0.844568 0.513079 0.742533 0.140252
H6    H     H_    0.155399 0.012976 0.257513 0.140239
H7    H     H_    0.667156 0.405458 0.606858 0.119412
H8    H     H_    0.332830 0.905406 0.393163 0.119411
H9    H     H_    0.606116 0.879699 0.670415 0.125893
H10   H     H_    0.393918 0.379780 0.329543 0.125882
H11   H     H_    0.659297 0.713936 0.757875 0.125589
H12   H     H_    0.340762 0.214096 0.242047 0.125581
H13   H     H_    0.742219 0.690477 0.837413 0.129407
H14   H     H_    0.257841 0.190643 0.162504 0.129385
C37   C     C_3   0.244427 0.282270 0.802897 -0.326937
C38   C     C_3   0.755607 0.782362 0.197144 -0.326942
C39   C     C_3   0.249131 0.935205 0.798453 -0.328234
C40   C     C_3   0.750837 0.435298 0.201504 -0.328226
C41   C     C_3   0.298819 0.947812 0.750350 -0.326540
C42   C     C_3   0.701149 0.447900 0.249607 -0.326538
H15   H     H_    0.337421 0.301539 0.782093 0.138887
H16   H     H_    0.662616 0.801758 0.217948 0.138886
H17   H     H_    0.223917 0.804940 0.789654 0.135978
H18   H     H_    0.776026 0.304971 0.210273 0.135982
H19   H     H_    0.268890 0.928775 0.848619 0.138786
H20   H     H_    0.731079 0.428998 0.151335 0.138786
H21   H     H_    0.342232 0.947446 0.777617 0.138761
H22   H     H_    0.657738 0.447665 0.222336 0.138760
H23   H     H_    0.297256 0.823507 0.718681 0.136099
H24   H     H_    0.702686 0.323532 0.281245 0.136102
C43   C     C_1   0.378465 0.146354 0.624673 -0.183370
C44   C     C_1   0.621535 0.646350 0.375327 -0.183369
C45   C     C_3   0.207330 0.104204 0.791028 0.288614
C46   C     C_3   0.792670 0.604209 0.208972 0.288613
C47   C     C_3   0.294091 0.294877 0.754765 -0.327792
C48   C     C_3   0.705943 0.794965 0.245276 -0.327794
C49   C     C_3   0.292324 0.125707 0.708703 0.288927
C50   C     C_3   0.707676 0.625703 0.291297 0.288928
C51   C     C_3   0.231056 0.121053 0.672255 -0.328284
C52   C     C_3   0.768942 0.620870 0.327748 -0.328284
C53   C     C_3   0.181370 0.108513 0.720382 -0.327350
C54   C     C_3   0.818628 0.608336 0.279620 -0.327352
C55   C     C_1   0.339876 0.137517 0.662562 -0.101031
C56   C     C_1   0.660124 0.637510 0.337438 -0.101032
C57   C     C_1   0.159811 0.092403 0.837217 -0.100609
C58   C     C_1   0.840188 0.592410 0.162782 -0.100608
C59   C     C_1   0.121295 0.083586 0.875198 -0.181379
C60   C     C_1   0.878705 0.583591 0.124802 -0.181375
H25   H     H_    0.151445 0.229269 0.713268 0.138190
H26   H     H_    0.848575 0.729026 0.286765 0.138192
H27   H     H_    0.154815 0.981684 0.710089 0.137971
H28   H     H_    0.845158 0.481442 0.289884 0.137968
H29   H     H_    0.224769 0.247742 0.642211 0.137856
H30   H     H_    0.775252 0.747490 0.357823 0.137858
H31   H     H_    0.215744 0.406473 0.797407 0.136296
H32   H     H_    0.784313 0.906503 0.202665 0.136294
H33   H     H_    0.289014 0.425015 0.726350 0.135819
H34   H     H_    0.711044 0.925039 0.273724 0.135814
O11   O     O_R   0.942420 0.735670 0.056390 -0.532711
O12   O     O_R   0.057580 0.235670 0.943610 -0.532710
O13   O     O_R   0.061840 0.404850 0.068350 -0.540646
O14   O     O_R   0.938160 0.904850 0.931650 -0.540651
C61   C     C_R   0.081514 0.573661 0.084428 0.694241
C62   C     C_R   0.918485 0.073661 0.915573 0.694244
O15   O     O_R   0.943100 0.406010 0.064050 -0.534998
O16   O     O_R   0.056900 0.906010 0.935950 -0.534997
O17   O     O_R   0.938020 0.234710 0.939330 -0.537421
O18   O     O_R   0.061980 0.734710 0.060670 -0.537413
C63   C     C_R   0.924286 0.574489 0.078917 0.716996
C64   C     C_R   0.075714 0.074488 0.921083 0.717003
O19   O     O_3   0.998500 0.567790 0.959120 -0.375527
O20   O     O_3   0.001500 0.067790 0.040880 -0.375522
V3    V     V_3+5 0.000280 0.293330 0.007580 1.401143
V4    V     V_3+5 0.999720 0.793330 0.992420 1.401139
H35   H     H_    0.264119 0.282889 0.853143 0.138648
H36   H     H_    0.735917 0.783111 0.146897 0.138651
H37   H     H_    0.228153 0.000181 0.639048 0.137676
H38   H     H_    0.771820 0.499929 0.360925 0.137675
C65   C     C_3   0.762581 0.581712 0.640934 -0.341435
C66   C     C_3   0.812971 0.721420 0.646905 -0.760082
H39   H     H_    0.814504 0.790551 0.694583 0.237661
H40   H     H_    0.855499 0.652082 0.639580 0.219972
H41   H     H_    0.805961 0.829677 0.609332 0.217906
H42   H     H_    0.762061 0.523486 0.591397 0.171056
H43   H     H_    0.720984 0.658725 0.645583 0.186326
C67   C     C_3   0.237439 0.081780 0.359045 -0.341473
C68   C     C_3   0.187049 0.221488 0.353075 -0.760094
H44   H     H_    0.185482 0.290492 0.305373 0.237660
H45   H     H_    0.144529 0.152164 0.360455 0.219971
H46   H     H_    0.194083 0.329833 0.390615 0.217922
H47   H     H_    0.237985 0.023675 0.408599 0.171047
H48   H     H_    0.279033 0.158768 0.354349 0.186367

loop_
_geom_bond_atom_site_label_1
_geom_bond_atom_site_label_2
_ccdc_geom_bond_type
C68   H46   S    
C40   C42   S    
C44   C56   T    
O17   V3    S    
C37   H35   S    
C42   C50   S    
C41   H23   S    
C29   H13   S    
O12   V3    S    
O2    C4    A    
C66   H39   S    
C2    O7    A    
C49   C55   S    
C68   H44   S    
C27   C29   A    
C7    C62   S    
O5    C3    A    
C18   H6    S    
O18   V4    S    
C53   H27   S    
C28   H12   S    
C11   C17   A    
C23   C25   A    
C48   C50   S    
O13   C61   A    
C67   H48   S    
C50   C52   S    
C40   C46   S    
C40   H20   S    
C39   H19   S    
C68   H45   S    
C15   C29   A    
C65   H42   S    
C38   C48   S    
C52   H38   S    
C5    C7    A    
C51   H29   S    
C40   H18   S    
C39   C41   S    
O1    C3    A    
C48   H34   S    
C19   C21   A    
C61   O18   A    
C19   C65   S    
C25   C35   A    
H16   C48   S    
C30   H14   S    
C26   C36   A    
C45   C53   S    
C49   C51   S    
O6    V2    S    
C20   C67   S    
C54   H28   S    
C32   C34   A    
O14   C62   A    
C33   C35   A    
C59   C64   S    
C42   H24   S    
C34   C36   A    
C41   C49   S    
C5    C15   A    
O12   C64   A    
C60   C63   S    
C6    C16   A    
C37   H31   S    
C5    H1    S    
C67   H47   S    
C4    C33   S    
O5    V1    S    
C39   H17   S    
C47   H33   S    
C53   H25   S    
C21   C31   A    
O4    V2    S    
H15   C47   S    
C18   C20   A    
C35   H9    S    
C8    C61   S    
C45   C57   S    
C32   H8    S    
C39   C45   S    
O6    C4    A    
C27   H11   S    
C22   C32   A    
O1    V2    S    
C1    C44   S    
C58   C60   T    
O2    V1    S    
C31   C33   A    
C38   C46   S    
O16   C64   A    
C13   C23   A    
O15   C63   A    
O4    C2    A    
C47   C49   S    
C52   C54   S    
C9    C11   A    
C13   C15   A    
C10   C12   A    
C41   H21   S    
C65   C66   S    
C50   C56   S    
C66   H41   S    
C9    H3    S    
O3    V1    S    
O20   V3    S    
C6    H2    S    
C10   H4    S    
O19   V4    S    
C14   C24   A    
C38   H32   S    
C46   C58   S    
C37   C45   S    
C51   H37   S    
C7    C9    A    
C43   C55   T    
C65   H43   S    
C8    C10   A    
C28   C30   A    
O3    C1    A    
C66   H40   S    
C52   H30   S    
C36   H10   S    
C67   C68   S    
C31   H7    S    
C42   H22   S    
C14   C16   A    
C46   C54   S    
C24   C26   A    
O7    V1    S    
C1    O8    A    
C25   C27   A    
C38   H36   S    
O14   V4    S    
C26   C28   A    
C12   C14   A    
O13   V3    S    
C2    C43   S    
C57   C59   T    
C17   H5    S    
C16   C30   A    
C21   C23   A    
C22   C24   A    
C54   H26   S    
C6    C8    A    
C11   C13   A    
C12   C18   A    
O16   V4    S    
O15   V3    S    
C17   C19   A    
O9    V2    S    
C37   C47   S    
C51   C53   S    
O10   V1    S    
C3    C34   S    
O8    V2    S    
O11   V4    S    
O11   C63   A    
C62   O17   A    
C20   C22   A    
