data_mof_unit_17640.cif
_audit_creation_date              2012-12-11T15:28:45-0500
_audit_creation_method            fapswitch 2.2
_symmetry_space_group_name_H-M    P1
_symmetry_Int_Tables_number       1
_space_group_crystal_system       triclinic
_cell_length_a                    6.960176
_cell_length_b                    19.596659
_cell_length_c                    23.28155
_cell_angle_alpha                 95.805358
_cell_angle_beta                  91.064327
_cell_angle_gamma                 88.781832
_cell_volume                      3158.08377314

loop_
_atom_site_label
_atom_site_type_symbol
_atom_type_description
_atom_site_fract_x
_atom_site_fract_y
_atom_site_fract_z
_atom_type_partial_charge
O1    O     O_R   0.617180 0.809390 0.808140 -0.520602
O2    O     O_R   0.382820 0.190610 0.191860 -0.521339
O3    O     O_R   0.293300 0.672410 0.795490 -0.537140
O4    O     O_R   0.706700 0.327590 0.204510 -0.536459
O5    O     O_R   0.117220 0.690610 0.691850 -0.522119
O6    O     O_R   0.882780 0.309390 0.308150 -0.523629
C1    C     C_R   0.464494 0.647619 0.804989 0.702549
C2    C     C_R   0.535505 0.352380 0.195008 0.704607
O7    O     O_R   0.287840 0.807750 0.814460 -0.522263
O8    O     O_R   0.712160 0.192250 0.185540 -0.521392
O9    O     O_R   0.111720 0.826910 0.710960 -0.528194
O10   O     O_R   0.888280 0.173090 0.289040 -0.529195
C3    C     C_R   0.456467 0.830774 0.833163 0.715628
C4    C     C_R   0.543531 0.169224 0.166838 0.715035
O11   O     O_R   0.622680 0.673080 0.789040 -0.534016
O12   O     O_R   0.377320 0.326920 0.210960 -0.533275
O13   O     O_3   0.448820 0.756130 0.716020 -0.359211
O14   O     O_3   0.551180 0.243870 0.283980 -0.361225
V1    V     V_3+5 0.176220 0.748860 0.756300 1.450751
V2    V     V_3+5 0.823780 0.251140 0.243700 1.444514
O15   O     O_R   0.781670 0.827580 0.704500 -0.538399
O16   O     O_R   0.218330 0.172420 0.295500 -0.539192
C5    C     C_R   0.948501 0.851561 0.693362 0.748601
C6    C     C_R   0.052017 0.148267 0.306465 0.741742
O17   O     O_R   0.787130 0.692240 0.685530 -0.526229
O18   O     O_R   0.212870 0.307760 0.314470 -0.525897
C7    C     C_R   0.956096 0.669245 0.666792 0.714770
C8    C     C_R   0.043908 0.330736 0.333221 0.715535
V3    V     V_3+5 0.675510 0.751130 0.743690 1.440551
V4    V     V_3+5 0.324490 0.248870 0.256310 1.432517
O19   O     O_3   0.952780 0.743870 0.783980 -0.359141
O20   O     O_3   0.047220 0.256130 0.216020 -0.357742
C9    C     C_1   0.966629 0.617174 0.614739 -0.190132
C10   C     C_1   0.033399 0.382771 0.385298 -0.191119
C11   C     C_1   0.978210 0.573644 0.571932 0.025415
C12   C     C_1   0.021847 0.426275 0.428122 0.027021
C13   C     C_1   0.993456 0.521819 0.521343 0.023029
C14   C     C_1   0.006620 0.478084 0.478722 0.023498
C15   C     C_R   0.952771 0.915241 0.663676 -0.072845
C16   C     C_R   0.056186 0.084587 0.336326 -0.060671
C17   C     C_R   0.932752 0.039055 0.667821 -0.139612
C18   C     C_R   0.151570 0.964988 0.335861 -0.159974
C19   C     C_R   0.915392 0.978844 0.694889 0.187477
C20   C     C_R   0.118079 0.022839 0.306118 0.189703
C21   C     C_R   0.999812 0.912968 0.604942 -0.281521
C22   C     C_R   0.026431 0.086916 0.396194 -0.284689
C23   C     C_R   0.032158 0.973854 0.577669 0.069658
C24   C     C_R   0.078904 0.030514 0.428219 0.070833
C25   C     C_R   0.995464 0.037890 0.610200 0.049616
C26   C     C_R   0.134454 0.967635 0.396564 0.040613
C27   C     C_R   0.090742 0.972901 0.518457 -0.018776
C28   C     C_R   0.074649 0.034545 0.490434 -0.028881
C29   C     C_R   0.070863 0.098196 0.526043 -0.076899
C30   C     C_R   0.174365 0.913762 0.487061 -0.059032
C31   C     C_R   0.025273 0.099827 0.585306 -0.060105
C32   C     C_R   0.185701 0.909898 0.426101 -0.060145
H1    H     H_    0.964080 0.133688 0.417015 0.139257
H2    H     H_    0.004356 0.862887 0.581039 0.146386
H3    H     H_    0.896514 0.087043 0.692692 0.152833
H4    H     H_    0.200056 0.918635 0.310814 0.156113
C33   C     C_R   0.483294 0.585103 0.834785 -0.042295
C34   C     C_R   0.516705 0.414893 0.165211 -0.042498
C35   C     C_R   0.575495 0.464551 0.830785 -0.000639
C36   C     C_R   0.424529 0.535448 0.169211 -0.004647
C37   C     C_R   0.540921 0.524044 0.803517 -0.239309
C38   C     C_R   0.459095 0.475954 0.196479 -0.238512
C39   C     C_R   0.462452 0.587782 0.894571 -0.209107
C40   C     C_R   0.537538 0.412212 0.105424 -0.208761
C41   C     C_R   0.499365 0.529061 0.924558 0.070305
C42   C     C_R   0.500636 0.470934 0.075437 0.070769
C43   C     C_R   0.548372 0.466098 0.891409 0.111405
C44   C     C_R   0.451642 0.533899 0.108586 0.112326
C45   C     C_R   0.487671 0.530868 0.986263 0.068299
C46   C     C_R   0.512332 0.469126 0.013732 0.067847
C47   C     C_R   0.543559 0.407260 0.978473 -0.200644
C48   C     C_R   0.456453 0.592735 0.021521 -0.200745
C49   C     C_R   0.562234 0.405944 0.919193 -0.138657
C50   C     C_R   0.437787 0.594052 0.080801 -0.140304
H5    H     H_    0.582007 0.356182 0.895342 0.180717
H6    H     H_    0.418027 0.643815 0.104651 0.179580
H7    H     H_    0.582279 0.363410 0.083855 0.098960
H8    H     H_    0.417695 0.636583 0.916140 0.098684
H9    H     H_    0.437035 0.476691 0.242562 0.103094
H10   H     H_    0.562989 0.523309 0.757435 0.102379
H11   H     H_    0.551666 0.358029 0.995194 0.129049
H12   H     H_    0.448355 0.641966 0.004800 0.128531
C51   C     C_1   0.467129 0.882858 0.885211 -0.199149
C52   C     C_1   0.532859 0.117137 0.114794 -0.201588
C53   C     C_1   0.478581 0.926370 0.928037 0.014296
C54   C     C_1   0.521396 0.073622 0.071969 0.013732
C55   C     C_1   0.493537 0.978149 0.978672 0.011463
C56   C     C_1   0.506434 0.021843 0.021335 0.011327
C57   C     C_2   0.018190 0.166632 0.621794 0.432575
H13   H     H_    0.926234 0.208179 0.609280 0.105967
O21   O     O_2   0.118638 0.175988 0.665330 -0.516743
C58   C     C_2   0.260730 0.845899 0.393742 0.463327
H14   H     H_    0.404392 0.826864 0.402978 0.080493
O22   O     O_2   0.159615 0.813013 0.358038 -0.507834
N1    N     N_3   0.147834 0.019272 0.244893 -0.669178
H15   H     H_    0.275851 0.044256 0.238600 0.224992
H16   H     H_    0.167552 0.968365 0.227450 0.238115
N2    N     N_3   0.861158 0.982000 0.754432 -0.667272
H17   H     H_    0.722423 0.962759 0.755432 0.226194
H18   H     H_    0.853373 0.032867 0.772893 0.240472
C59   C     C_2   0.159516 0.159454 0.504761 0.341979
H19   H     H_    0.279290 0.152254 0.475395 0.068710
O23   O     O_2   0.097032 0.217544 0.517641 -0.536866
C60   C     C_2   0.281235 0.861936 0.518708 0.314431
H20   H     H_    0.358883 0.878541 0.558376 0.071670
O24   O     O_2   0.277176 0.800714 0.502578 -0.519332
C61   C     C_2   0.646832 0.403482 0.793704 0.374681
H21   H     H_    0.601899 0.396131 0.748631 0.066179
O25   O     O_2   0.765333 0.363563 0.811525 -0.518428
C62   C     C_2   0.353217 0.596520 0.206294 0.377983
H22   H     H_    0.398145 0.603866 0.251367 0.071412
O26   O     O_2   0.234741 0.636448 0.188473 -0.516625

loop_
_geom_bond_atom_site_label_1
_geom_bond_atom_site_label_2
_ccdc_geom_bond_type
C35   C37   A    
C57   H13   S    
O13   V3    S    
C45   C46   A    
C61   H21   S    
O4    C2    A    
V1    O19   S    
C62   H22   S    
C23   C25   A    
C7    C9    S    
C16   C22   A    
C59   O23   D    
O9    V1    S    
C40   H7    S    
C11   C13   S    
C48   C50   A    
O3    C1    A    
C9    C11   T    
C20   N1    S    
C50   H6    S    
O12   V4    S    
C60   H20   S    
C21   C23   A    
C41   C43   A    
O7    C3    A    
C1    C33   S    
C44   C50   A    
C6    C16   S    
C38   H9    S    
O5    C7    A    
O7    V1    S    
O6    C8    A    
O8    V2    S    
C58   O22   D    
C42   C46   A    
O3    V1    S    
O14   V4    S    
C53   C55   S    
C10   C12   T    
C31   C57   S    
C15   C21   A    
C24   C26   A    
C8    C10   S    
C2    O12   A    
C17   C19   A    
O10   V2    S    
C18   C20   A    
C17   C25   A    
C47   H11   S    
O11   V3    S    
C22   C24   A    
C29   C31   A    
O17   V3    S    
C30   C32   A    
C21   H2    S    
C36   C62   S    
C46   C47   A    
C34   C38   A    
C27   C28   A    
C17   H3    S    
O8    C4    A    
C18   H4    S    
C55   C56   T    
C37   H10   S    
C23   C27   A    
C1    O11   A    
C25   C31   A    
O15   V3    S    
C26   C32   A    
C62   O26   D    
C39   C41   A    
C36   C38   A    
N2    H18   S    
C13   C14   T    
C33   C37   A    
C33   C39   A    
C54   C56   S    
N1    H15   S    
C16   C20   A    
C58   H14   S    
C3    C51   S    
O1    V3    S    
C49   H5    S    
C61   O25   D    
C41   C45   A    
C47   C49   A    
C18   C26   A    
C40   C42   A    
N1    H16   S    
C52   C54   T    
O18   V4    S    
O15   C5    A    
C22   H1    S    
C45   C48   A    
O16   C6    A    
O1    C3    A    
C12   C14   S    
C48   H12   S    
C43   C49   A    
C28   C29   A    
V2    O20   S    
C32   C58   S    
O16   V4    S    
C35   C43   A    
C15   C19   A    
O5    V1    S    
C34   C40   A    
O17   C7    A    
O6    V2    S    
C59   H19   S    
O10   C6    A    
O18   C8    A    
C30   C60   S    
O2    V4    S    
C27   C30   A    
C51   C53   T    
C19   N2    S    
C4    C52   S    
V3    O19   S    
V4    O20   S    
C5    C15   S    
O9    C5    A    
O13   V1    S    
C60   O24   D    
O14   V2    S    
C36   C44   A    
C35   C61   S    
N2    H17   S    
O2    C4    A    
O4    V2    S    
C29   C59   S    
C24   C28   A    
C39   H8    S    
C57   O21   D    
C42   C44   A    
C2    C34   S    
