data_mof_unit_47006.cif
_audit_creation_date              2012-12-11T18:13:22-0500
_audit_creation_method            fapswitch 2.2
_symmetry_space_group_name_H-M    P1
_symmetry_Int_Tables_number       1
_space_group_crystal_system       triclinic
_cell_length_a                    8.164981
_cell_length_b                    12.71538
_cell_length_c                    18.686322
_cell_angle_alpha                 99.428007
_cell_angle_beta                  91.08873
_cell_angle_gamma                 98.597609
_cell_volume                      1890.43590402

loop_
_atom_site_label
_atom_site_type_symbol
_atom_type_description
_atom_site_fract_x
_atom_site_fract_y
_atom_site_fract_z
_atom_type_partial_charge
Ba1   Ba    Ba6+2 0.852780 0.548340 0.465070 1.657525
Ba2   Ba    Ba6+2 0.337060 0.451750 0.534940 1.639971
C1    C     C_3   0.583329 0.899610 0.252857 -0.411282
C2    C     C_3   0.633236 0.818774 0.297492 0.341632
C3    C     C_3   0.460661 0.272838 0.314216 0.310799
C4    C     C_3   0.437082 0.235009 0.232676 -0.399086
C5    C     C_3   0.062930 0.241624 0.739318 0.372797
C6    C     C_3   0.115521 0.232890 0.816569 -0.311887
C7    C     C_3   0.552244 0.180595 0.701333 0.347567
C8    C     C_3   0.552560 0.079667 0.736118 -0.198087
C9    C     C_R   0.992612 0.449597 0.048320 0.007569
C10   C     C_R   0.890728 0.396609 0.095723 0.031593
C11   C     C_R   0.726372 0.352179 0.073224 -0.088960
C12   C     C_3   0.130408 0.760715 0.264919 0.363482
C13   C     C_R   0.663904 0.359603 0.004347 -0.046406
C14   C     C_R   0.765651 0.409488 0.955922 0.043804
C15   C     C_R   0.930606 0.454848 0.977814 0.002657
C16   C     C_R   0.705433 0.412590 0.885650 -0.060877
C17   C     C_R   0.809502 0.456277 0.834933 -0.056397
C18   C     C_R   0.973704 0.506020 0.857544 -0.007575
C19   C     C_R   0.033236 0.505293 0.929347 -0.008379
C20   C     C_R   0.755958 0.449413 0.761736 -0.006043
C21   C     C_R   0.865449 0.489518 0.712431 -0.301014
C22   C     C_R   0.023202 0.546049 0.734475 0.040190
C23   C     C_3   0.110660 0.784864 0.188421 -0.364864
C24   C     C_R   0.078756 0.555762 0.808509 -0.041152
C25   C     C_R   0.156393 0.496455 0.071116 -0.005763
C26   C     C_R   0.216304 0.494986 0.142773 -0.005722
C27   C     C_R   0.111363 0.444894 0.191705 -0.044280
C28   C     C_R   0.952829 0.390452 0.165325 -0.038039
C29   C     C_R   0.236922 0.610796 0.834926 -0.041339
C30   C     C_R   0.298563 0.605590 0.904798 0.032364
C31   C     C_R   0.196828 0.552462 0.952201 0.007898
C32   C     C_R   0.258682 0.547532 0.022799 0.014126
C33   C     C_R   0.462244 0.651256 0.927630 -0.084261
C34   C     C_3   0.224442 0.781336 0.612765 0.299801
C35   C     C_R   0.524318 0.644716 0.996749 -0.093556
C36   C     C_R   0.423039 0.594022 0.044967 0.028716
C37   C     C_R   0.380519 0.544679 0.165405 -0.045085
C38   C     C_R   0.483371 0.590832 0.115192 -0.112148
C39   C     C_R   0.435434 0.548878 0.238134 0.000276
C40   C     C_R   0.327317 0.506536 0.287145 -0.298245
C41   C     C_R   0.167530 0.453320 0.265563 0.041096
C42   C     C_R   0.764101 0.184555 0.531892 -0.371587
C43   C     C_R   0.433135 0.808763 0.468756 -0.300827
C44   C     C_R   0.403289 0.985588 0.446254 -0.079534
C45   C     C_3   0.240978 0.903522 0.622765 -0.281654
C46   C     C_R   0.340283 0.876914 0.440740 -0.021207
C47   C     C_R   0.579996 0.849817 0.510264 0.092558
C48   C     C_R   0.643150 0.962503 0.520210 -0.134335
C49   C     C_R   0.554782 0.029887 0.485078 -0.121495
C50   C     C_R   0.617849 0.140725 0.491186 0.047606
C51   C     C_R   0.854892 0.119748 0.564470 -0.040659
C52   C     C_R   0.791644 0.010938 0.562199 0.534189
C53   C     C_3   0.961392 0.214370 0.382662 0.279741
C54   C     C_3   0.940298 0.092048 0.366818 -0.351700
C55   C     C_3   0.730556 0.707651 0.683097 0.342140
C56   C     C_3   0.753552 0.746760 0.764604 -0.359916
H1    H     H_    0.724752 0.861401 0.341332 0.075529
H2    H     H_    0.373208 0.938930 0.629255 0.024819
H3    H     H_    0.189496 0.927826 0.573861 0.146201
H4    H     H_    0.173234 0.935975 0.670353 0.189521
H5    H     H_    0.844705 0.240292 0.401507 0.007189
H6    H     H_    0.060060 0.243338 0.425808 0.084202
H7    H     H_    0.837930 0.060883 0.325611 0.113311
H8    H     H_    0.910572 0.058348 0.416796 0.073615
H9    H     H_    0.056718 0.065653 0.346035 0.144555
H10   H     H_    0.847992 0.684781 0.662046 -0.004128
H11   H     H_    0.630696 0.636768 0.672867 0.040764
H12   H     H_    0.528969 0.963266 0.288281 0.103408
H13   H     H_    0.860339 0.813192 0.776353 0.160047
H14   H     H_    0.777074 0.680184 0.792998 0.034304
H15   H     H_    0.639911 0.776879 0.785693 0.122803
H16   H     H_    0.520724 0.784586 0.323283 -0.049378
H17   H     H_    0.490085 0.857869 0.209539 0.115002
H18   H     H_    0.341948 0.294629 0.335242 0.017028
H19   H     H_    0.558543 0.344966 0.324320 0.057476
H20   H     H_    0.335450 0.165213 0.220809 0.129724
H21   H     H_    0.404883 0.301216 0.205730 0.055609
H22   H     H_    0.553408 0.210330 0.210516 0.119519
H23   H     H_    0.693098 0.937429 0.226964 0.131910
H24   H     H_    0.148130 0.719116 0.148476 0.071719
H25   H     H_    0.113162 0.323955 0.729618 0.049780
H26   H     H_    0.926304 0.230098 0.735453 -0.037682
H27   H     H_    0.245218 0.272625 0.829887 0.146003
H28   H     H_    0.034754 0.273552 0.855680 0.065297
H29   H     H_    0.105581 0.147036 0.823127 0.152069
H30   H     H_    0.680217 0.210204 0.687563 -0.127981
H31   H     H_    0.475149 0.157739 0.649909 0.067381
H32   H     H_    0.603903 0.018126 0.697530 0.064693
H33   H     H_    0.046862 0.684771 0.268754 0.096447
H34   H     H_    0.423316 0.046702 0.746912 0.070440
H35   H     H_    0.645346 0.312556 0.109205 0.062665
H36   H     H_    0.536323 0.324962 0.988583 0.092446
H37   H     H_    0.824257 0.480712 0.656100 0.069218
H38   H     H_    0.577796 0.378206 0.870743 0.121373
H39   H     H_    0.873477 0.345532 0.199042 0.096515
H40   H     H_    0.316326 0.655378 0.801042 0.095431
H41   H     H_    0.543017 0.691313 0.891780 0.065570
H42   H     H_    0.651401 0.680322 0.012755 0.073390
H43   H     H_    0.610524 0.626241 0.130223 0.109223
H44   H     H_    0.260532 0.749320 0.274235 -0.072836
H45   H     H_    0.370086 0.512537 0.343037 0.072126
H46   H     H_    0.329302 0.034495 0.421435 0.102726
H47   H     H_    0.812934 0.269120 0.534571 0.086776
H48   H     H_    0.384379 0.723653 0.462496 0.066122
H49   H     H_    0.979430 0.791395 0.176018 0.150614
H50   H     H_    0.189817 0.862014 0.183304 0.112075
H51   H     H_    0.340473 0.754865 0.593146 -0.018924
H52   H     H_    0.123628 0.748186 0.571291 0.091777
O1    O     O_2   0.873090 0.425890 0.325140 -0.466560
O2    O     O_3   0.688237 0.791913 0.650699 -0.572600
O3    O     O_3   0.089023 0.846820 0.314957 -0.600143
O4    O     O_2   0.316610 0.574140 0.674900 -0.466417
O5    O     O_3   0.067290 0.565720 0.585630 -0.505748
O6    O     O_3   0.530210 0.372990 0.631200 -0.469312
O7    O     O_3   0.191265 0.746514 0.679001 -0.638621
O8    O     O_3   0.611340 0.366290 0.463630 -0.477840
O9    O     O_3   0.108550 0.314140 0.595200 -0.493184
O10   O     O_2   0.194818 0.123652 0.553721 -0.479490
O11   O     O_3   0.121542 0.161617 0.689613 -0.560715
O12   O     O_3   0.122420 0.434370 0.414380 -0.497474
O13   O     O_3   0.578370 0.633800 0.536380 -0.509169
O14   O     O_2   0.341510 0.231850 0.465510 -0.472452
O15   O     O_3   0.507298 0.189115 0.346558 -0.648280
O16   O     O_2   0.413370 0.452608 0.756322 -0.499846
O17   O     O_3   0.482989 0.258387 0.748377 -0.585448
O18   O     O_3   0.659500 0.627100 0.368810 -0.479670
O19   O     O_2   0.778255 0.547245 0.244002 -0.496991
O20   O     O_3   0.001239 0.253675 0.318638 -0.639798
O21   O     O_3   0.707054 0.741249 0.251976 -0.599045
O22   O     O_2   0.848200 0.768190 0.534530 -0.419326
O23   O     O_3   0.081160 0.685950 0.404810 -0.493588
O24   O     O_2   0.000309 0.879055 0.448844 -0.474908
P1    P     P_3+3 0.041040 0.394770 0.336330 0.969090
P2    P     P_3+3 0.672880 0.754030 0.556100 1.061354
P3    P     P_3+3 0.128711 0.823581 0.402988 0.941657
P4    P     P_3+3 0.148670 0.605320 0.663680 0.969442
P5    P     P_3+3 0.067452 0.177614 0.601138 1.017251
P6    P     P_3+3 0.644514 0.613624 0.274721 0.946771
P7    P     P_3+3 0.523323 0.230284 0.440803 0.940217
P8    P     P_3+3 0.546234 0.385597 0.725252 0.957399
C57   C     C_2   0.654208 0.100504 0.806127 0.882676
O25   O     O_2   0.615280 0.161318 0.858469 -0.620448
O26   O     O_R   0.788238 0.045460 0.812204 -0.752652
H53   H     H_    0.842042 0.061827 0.862953 0.297706
F1    F     F_    0.877058 0.956412 0.602308 -0.698054

loop_
_geom_bond_atom_site_label_1
_geom_bond_atom_site_label_2
_ccdc_geom_bond_type
C5    H25   S    
C53   C54   S    
O23   P3    S    
C16   H38   S    
C39   C40   A    
C17   C18   A    
Ba1   O18   S    
Ba1   O22   S    
O1    P1    D    
C40   H45   S    
C45   H4    S    
O26   H53   S    
Ba2   O8    S    
C5    C6    S    
C37   C39   A    
C42   H47   S    
C28   H39   S    
C7    O17   S    
C46   P3    S    
C26   C27   A    
C33   C35   A    
O2    P2    S    
C16   C17   A    
C7    H30   S    
C3    C4    S    
C33   H41   S    
C56   H13   S    
C4    H20   S    
C55   O2    S    
C19   C31   A    
C13   C14   A    
C34   C45   S    
C6    H27   S    
C29   H40   S    
Ba1   O12   S    
C39   P6    S    
O21   P6    S    
C45   H2    S    
Ba2   O6    S    
C42   C51   A    
O20   P1    S    
Ba2   O9    S    
O15   P7    S    
C14   C15   A    
C53   H5    S    
C1    H23   S    
C21   C22   A    
C17   C20   A    
C43   C47   A    
Ba1   P2    S    
C1    H17   S    
C7    C8    S    
C2    H16   S    
C8    C57   S    
O8    P7    S    
C5    H26   S    
C38   H43   S    
C8    H34   S    
C24   C29   A    
C51   P5    S    
C27   C41   A    
O24   P3    D    
Ba1   O23   S    
C48   C49   A    
C2    O21   S    
C55   C56   S    
Ba2   O12   S    
C25   C32   A    
O12   P1    S    
C44   C46   A    
C49   C50   A    
Ba2   P4    S    
C30   C33   A    
C1    H12   S    
C7    H31   S    
C37   C38   A    
C26   C37   A    
C22   P4    S    
Ba2   O13   S    
C44   H46   S    
C44   C49   A    
O16   P8    D    
C15   C19   A    
C11   H35   S    
O17   P8    S    
Ba1   O13   S    
C35   C36   A    
Ba2   O5    S    
C5    O11   S    
C4    H22   S    
C29   C30   A    
O5    P4    S    
C9    C25   A    
O22   P2    D    
C53   O20   S    
C53   H6    S    
C20   P8    S    
C31   C32   A    
O10   P5    D    
C48   C52   A    
C10   C11   A    
C41   P1    S    
C34   O7    S    
O6    P8    S    
C47   P2    S    
C11   C13   A    
C34   H52   S    
C23   H24   S    
O3    P3    S    
O14   P7    D    
C40   C41   A    
C55   H10   S    
C3    H19   S    
C1    C2    S    
C12   O3    S    
C34   H51   S    
C43   H48   S    
C23   H49   S    
C43   C46   A    
C57   O26   S    
C9    C15   A    
C10   C28   A    
C32   C36   A    
C22   C24   A    
O7    P4    S    
C42   C50   A    
C45   H3    S    
C9    C10   A    
C51   C52   A    
C54   H7    S    
Ba2   O14   S    
C56   H15   S    
C54   H9    S    
C50   P7    S    
O13   P2    S    
C6    H29   S    
O9    P5    S    
C30   C31   A    
O11   P5    S    
C3    H18   S    
O18   P6    S    
Ba1   O1    S    
C36   C38   A    
Ba2   O4    S    
C56   H14   S    
C4    H21   S    
O19   P6    D    
C18   C24   A    
C54   H8    S    
Ba1   Ba2   S    
C2    H1    S    
C21   H37   S    
C6    H28   S    
Ba1   O8    S    
O4    P4    D    
C12   C23   S    
C12   H33   S    
C12   H44   S    
C27   C28   A    
C13   H36   S    
C18   C19   A    
C8    H32   S    
C14   C16   A    
C47   C48   A    
C3    O15   S    
C25   C26   A    
C20   C21   A    
Ba1   O5    S    
C55   H11   S    
Ba1   P1    S    
C35   H42   S    
C57   O25   D    
C23   H50   S    
C52   F1    S    
