data_mof_unit_66168.cif
_audit_creation_date              2012-12-10T16:59:54-0500
_audit_creation_method            fapswitch 2.2
_symmetry_space_group_name_H-M    P1
_symmetry_Int_Tables_number       1
_space_group_crystal_system       triclinic
_cell_length_a                    15.170528
_cell_length_b                    15.146417
_cell_length_c                    10.099012
_cell_angle_alpha                 90.00758
_cell_angle_beta                  90.745753
_cell_angle_gamma                 90.090101
_cell_volume                      2320.34286704

loop_
_atom_site_label
_atom_site_type_symbol
_atom_type_description
_atom_site_fract_x
_atom_site_fract_y
_atom_site_fract_z
_atom_type_partial_charge
C1    C     C_R   0.381557 0.881268 0.499053 0.979150
C2    C     C_2   0.739894 0.193741 0.392806 0.447174
C3    C     C_2   0.246630 0.316302 0.408031 0.441176
C4    C     C_2   0.239878 0.693758 0.392795 0.447042
C5    C     C_2   0.682241 0.813241 0.498058 0.260944
C6    C     C_2   0.702433 0.164692 0.504226 0.237890
C7    C     C_2   0.182245 0.313241 0.498096 0.260812
C8    C     C_2   0.202431 0.664696 0.504218 0.237907
C9    C     C_2   0.308497 0.244569 0.395873 0.623186
C10   C     C_2   0.312542 0.755097 0.400087 0.649434
C11   C     C_2   0.808719 0.744781 0.396074 0.623132
C12   C     C_R   0.385625 0.122454 0.499934 0.940637
C13   C     C_2   0.812556 0.255083 0.400103 0.649438
C14   C     C_2   0.333428 0.200554 0.504035 -0.439086
C15   C     C_2   0.314051 0.816498 0.495301 -0.444265
C16   C     C_2   0.833375 0.700511 0.504122 -0.439003
C17   C     C_2   0.814054 0.316494 0.495303 -0.444185
C18   C     C_2   0.481671 0.933122 0.925742 0.639471
C19   C     C_2   0.981264 0.433249 0.925740 0.639648
C20   C     C_2   0.503240 0.930713 0.071775 0.733240
C21   C     C_2   0.002823 0.430710 0.071763 0.733302
C22   C     C_3   0.448729 0.076742 0.106875 -0.282209
C23   C     C_R   0.881558 0.381267 0.499053 0.979135
C24   C     C_3   0.349878 0.055232 0.100493 -0.716991
C25   C     C_3   0.949297 0.577121 0.106877 -0.282287
C26   C     C_3   0.850319 0.556269 0.099958 -0.717697
C27   C     C_R   0.885628 0.622455 0.499945 0.940741
C28   C     C_R   0.622532 0.114546 0.500665 0.855113
C29   C     C_R   0.618639 0.881593 0.500157 0.922953
C30   C     C_R   0.122530 0.614548 0.500664 0.855112
C31   C     C_R   0.118642 0.381595 0.500162 0.922543
C32   C     C_2   0.746790 0.816474 0.408269 0.441126
F1    F     F_    0.754071 0.885479 0.322503 -0.574721
F2    F     F_    0.374377 0.752359 0.303570 -0.529962
F3    F     F_    0.840962 0.726263 0.274478 -0.619755
F4    F     F_    0.874402 0.252335 0.303603 -0.529598
F5    F     F_    0.441599 0.861749 0.870194 -0.577929
F6    F     F_    0.940708 0.362143 0.870223 -0.578079
F7    F     F_    0.572745 0.044435 0.894964 -0.555810
F8    F     F_    0.073058 0.543934 0.894914 -0.555809
F9    F     F_    0.520931 0.851020 0.127537 -0.541801
F10   F     F_    0.020023 0.350914 0.127519 -0.541476
F11   F     F_    0.709342 0.170993 0.270082 -0.558657
F12   F     F_    0.253765 0.385126 0.321901 -0.574566
F13   F     F_    0.209307 0.671033 0.270070 -0.558937
F14   F     F_    0.667899 0.742443 0.578136 -0.640988
F15   F     F_    0.742183 0.175876 0.625037 -0.602403
F16   F     F_    0.168097 0.242617 0.578614 -0.640969
F17   F     F_    0.242193 0.675867 0.625023 -0.602496
F18   F     F_    0.340301 0.225684 0.274110 -0.619719
H1    H     H_    0.316946 0.224416 0.602112 0.194692
H2    H     H_    0.834848 0.512033 0.015297 0.219324
H3    H     H_    0.828192 0.523735 0.192132 0.284674
H4    H     H_    0.812410 0.618127 0.085028 0.311004
H5    H     H_    0.961762 0.630666 0.178935 0.296467
H6    H     H_    0.969662 0.608547 0.014301 0.232057
H7    H     H_    0.263284 0.821848 0.569598 0.186838
H8    H     H_    0.816654 0.724148 0.602214 0.194644
H9    H     H_    0.763280 0.321851 0.569588 0.186982
H10   H     H_    0.334560 0.010663 0.016168 0.219403
H11   H     H_    0.328126 0.022795 0.192947 0.284684
H12   H     H_    0.311539 0.116804 0.085352 0.310722
H13   H     H_    0.461049 0.130479 0.178650 0.296561
H14   H     H_    0.468652 0.108180 0.014088 0.231631
N1    N     N_2   0.501330 0.000000 0.852150 0.035411
N2    N     N_2   0.001330 0.500000 0.852150 0.035428
N3    N     N_2   0.501360 0.000000 0.147810 -0.134811
N4    N     N_2   0.001360 0.500000 0.147810 -0.134910
O1    O     O_R   0.409520 0.909540 0.613040 -0.556571
O2    O     O_R   0.590440 0.909540 0.613100 -0.563056
O3    O     O_R   0.090440 0.590460 0.613100 -0.514974
O4    O     O_R   0.090440 0.409540 0.613100 -0.562722
O5    O     O_R   0.590480 0.090460 0.386960 -0.580902
O6    O     O_R   0.590480 0.909540 0.386960 -0.541808
O7    O     O_R   0.090480 0.590460 0.386960 -0.581130
O8    O     O_R   0.090480 0.409540 0.386960 -0.541951
O9    O     O_R   0.409520 0.090460 0.613040 -0.617461
O10   O     O_R   0.909520 0.409540 0.613040 -0.556337
O11   O     O_R   0.909520 0.590460 0.613040 -0.617742
O12   O     O_R   0.409560 0.909540 0.386900 -0.570655
O13   O     O_R   0.409560 0.090460 0.386900 -0.607775
O14   O     O_R   0.909560 0.409540 0.386900 -0.570249
O15   O     O_R   0.909560 0.590460 0.386900 -0.607740
O16   O     O_R   0.590440 0.090460 0.613100 -0.514860
Zn1   Zn    Zn3+2 0.499970 0.000000 0.650990 1.169442
Zn2   Zn    Zn3+2 0.999970 0.500000 0.650990 1.169427
Zn3   Zn    Zn3+2 0.500030 0.000000 0.349010 1.112664
Zn4   Zn    Zn3+2 0.000030 0.500000 0.349010 1.112693

loop_
_geom_bond_atom_site_label_1
_geom_bond_atom_site_label_2
_ccdc_geom_bond_type
C24   H11   S    
C23   O14   A    
C28   O16   A    
F7    N1    S    
C20   N3    D    
C25   H6    S    
C4    C8    D    
C30   O3    A    
C18   N1    D    
C17   C23   S    
C19   C21   S    
C18   F5    S    
O12   Zn3   S    
C3    C7    D    
C10   C15   D    
C19   N2    D    
C2    C13   S    
O5    Zn3   S    
C22   H13   S    
C6    C28   S    
C1    C15   S    
O6    Zn3   S    
O8    Zn4   S    
C5    C32   D    
O10   Zn2   S    
C16   C27   S    
O15   Zn4   S    
O9    Zn1   S    
F8    N2    S    
C15   H7    S    
C2    C6    D    
C25   N4    S    
C28   O5    A    
C26   H4    S    
C20   F9    S    
C5    C29   S    
C4    F13   S    
C3    F12   S    
C7    C31   S    
C6    F15   S    
O16   Zn1   S    
C13   F4    S    
C29   O6    A    
C25   C26   S    
C1    O1    A    
C9    C14   D    
C3    C9    S    
C19   F6    S    
C26   H2    S    
O3    Zn2   S    
C11   C16   D    
C14   H1    S    
C2    F11   S    
C24   H10   S    
C12   O9    A    
C10   F2    S    
C16   H8    S    
O13   Zn3   S    
C17   H9    S    
C31   O4    A    
C12   C14   S    
C11   C32   S    
C21   N4    D    
N4    Zn4   S    
C22   C24   S    
C4    C10   S    
C26   H3    S    
O1    Zn1   S    
C29   O2    A    
C24   H12   S    
N3    Zn3   S    
C9    F18   S    
C25   H5    S    
N2    Zn2   S    
O4    Zn2   S    
N1    Zn1   S    
C5    F14   S    
C27   O11   A    
C13   C17   D    
C8    C30   S    
C32   F1    S    
C11   F3    S    
C7    F16   S    
C30   O7    A    
C31   O8    A    
O14   Zn4   S    
C27   O15   A    
C12   O13   A    
C18   C20   S    
C23   O10   A    
C22   N3    S    
C22   H14   S    
C21   F10   S    
O7    Zn4   S    
C1    O12   A    
O2    Zn1   S    
C8    F17   S    
O11   Zn2   S    
