data_mof_unit_38509.cif
_audit_creation_date              2012-12-10T16:42:57-0500
_audit_creation_method            fapswitch 2.2
_symmetry_space_group_name_H-M    P1
_symmetry_Int_Tables_number       1
_space_group_crystal_system       triclinic
_cell_length_a                    7.491136
_cell_length_b                    8.702869
_cell_length_c                    12.978846
_cell_angle_alpha                 87.343051
_cell_angle_beta                  77.703152
_cell_angle_gamma                 102.374398
_cell_volume                      803.767616048

loop_
_atom_site_label
_atom_site_type_symbol
_atom_type_description
_atom_site_fract_x
_atom_site_fract_y
_atom_site_fract_z
_atom_type_partial_charge
C1    C     C_R   0.453911 0.200213 0.504938 0.884476
C2    C     C_R   0.546089 0.799787 0.495062 0.884476
C3    C     C_R   0.463266 0.492895 0.702039 0.807469
C4    C     C_R   0.536734 0.507105 0.297961 0.807469
C5    C     C_R   0.561159 0.514986 0.182857 -0.085722
C6    C     C_R   0.438841 0.485014 0.817143 -0.085722
C7    C     C_R   0.251866 0.416844 0.997262 -0.133436
C8    C     C_R   0.748134 0.583156 0.002738 -0.133436
C9    C     C_R   0.262459 0.423688 0.888854 0.152607
C10   C     C_R   0.737541 0.576312 0.111146 0.152607
C11   C     C_R   0.599154 0.537878 0.856425 -0.261491
C12   C     C_R   0.400845 0.462122 0.143575 -0.261491
C13   C     C_R   0.587299 0.530415 0.964608 0.104835
C14   C     C_R   0.412701 0.469585 0.035392 0.104835
C15   C     C_2   0.430818 0.033953 0.522970 0.000992
C16   C     C_2   0.569182 0.966047 0.477030 0.000990
Cu1   Cu    Cu3+1 0.686350 0.517570 0.488220 1.026548
Cu2   Cu    Cu3+1 0.313650 0.482430 0.511780 1.026548
H1    H     H_    0.265555 0.414361 0.197278 0.178124
H2    H     H_    0.734444 0.585639 0.802722 0.178125
H3    H     H_    0.117334 0.369496 0.051729 0.165510
H4    H     H_    0.882666 0.630504 0.948271 0.165510
N1    N     N_2   0.033570 0.455950 0.529530 0.012854
N2    N     N_2   0.966430 0.544050 0.470470 0.012856
O1    O     O_R   0.621060 0.286250 0.492350 -0.540911
O2    O     O_R   0.378940 0.713750 0.507650 -0.540910
O3    O     O_R   0.306310 0.256580 0.512240 -0.572854
O4    O     O_R   0.693690 0.743420 0.487760 -0.572853
O5    O     O_R   0.631800 0.512400 0.642670 -0.570423
O6    O     O_R   0.368200 0.487600 0.357330 -0.570424
O7    O     O_R   0.317060 0.482730 0.662570 -0.597671
O8    O     O_R   0.682940 0.517270 0.337430 -0.597672
N3    N     N_3   0.907410 0.635529 0.144753 -0.586260
H5    H     H_    0.887216 0.723438 0.195326 0.246483
H6    H     H_    0.942104 0.542414 0.183956 0.236556
N4    N     N_3   0.092589 0.364470 0.855247 -0.586260
H7    H     H_    0.112784 0.276561 0.804674 0.246483
H8    H     H_    0.057896 0.457585 0.816043 0.236557
N5    N     N_3   0.902839 0.334458 0.595037 -0.393756
H9    H     H_    0.920579 0.347856 0.671945 0.198588
H10   H     H_    0.938919 0.228909 0.573905 0.256607
N6    N     N_3   0.097162 0.665538 0.404960 -0.393754
H11   H     H_    0.079422 0.652134 0.328052 0.198587
H12   H     H_    0.061082 0.771090 0.426088 0.256604
Br1   Br    Br    0.211213 0.928581 0.631037 -0.529122
Br2   Br    Br    0.788786 0.071419 0.368962 -0.529125

loop_
_geom_bond_atom_site_label_1
_geom_bond_atom_site_label_2
_ccdc_geom_bond_type
C9    N4    S    
C8    H4    S    
N1    N2    D    
C1    O1    A    
C8    C13   A    
Cu2   O6    S    
C2    C16   S    
N2    N6    S    
Cu2   O2    S    
C3    C6    S    
Cu1   O1    S    
C6    C9    A    
N4    H8    S    
N3    H5    S    
C5    C10   A    
C2    O2    A    
C13   C14   A    
C3    O7    A    
C11   C13   A    
C1    O3    A    
C4    O8    A    
N6    H12   S    
C1    C15   S    
C12   H1    S    
C8    C10   A    
N4    H7    S    
N3    H6    S    
C12   C14   A    
Cu1   Cu2   S    
C10   N3    S    
N1    N5    S    
C11   H2    S    
Cu1   N2    S    
N6    H11   S    
C15   Br1   S    
Cu2   N1    S    
C7    C9    A    
C6    C11   A    
Cu1   O5    S    
C5    C12   A    
N5    H10   S    
C16   Br2   S    
N5    H9    S    
C3    O5    A    
Cu1   O8    S    
C2    O4    A    
Cu2   O7    S    
C7    H3    S    
Cu1   O4    S    
C7    C14   A    
C4    O6    A    
Cu2   O3    S    
C15   C16   D    
C4    C5    S    
