data_mof_unit_22401.cif
_audit_creation_date              2012-12-10T17:33:49-0500
_audit_creation_method            fapswitch 2.2
_symmetry_space_group_name_H-M    P1
_symmetry_Int_Tables_number       1
_space_group_crystal_system       triclinic
_cell_length_a                    10.632018
_cell_length_b                    11.987364
_cell_length_c                    12.876969
_cell_angle_alpha                 93.317745
_cell_angle_beta                  89.945756
_cell_angle_gamma                 86.180412
_cell_volume                      1634.75900169

loop_
_atom_site_label
_atom_site_type_symbol
_atom_type_description
_atom_site_fract_x
_atom_site_fract_y
_atom_site_fract_z
_atom_type_partial_charge
C1    C     C_R   0.497333 0.521988 0.700454 0.888011
C2    C     C_R   0.495053 0.443158 0.973567 0.154189
C3    C     C_R   0.520431 0.546988 0.025169 0.151829
C4    C     C_R   0.742320 0.500289 0.499443 0.843150
C5    C     C_R   0.526502 0.555584 0.131808 -0.252435
C6    C     C_R   0.483955 0.359536 0.138784 -0.291096
C7    C     C_R   0.482061 0.347031 0.030913 -0.015306
C8    C     C_R   0.389782 0.952843 0.395127 -0.087299
C9    C     C_R   0.398011 0.837203 0.409005 -0.083963
C10   C     C_R   0.547904 0.857710 0.543326 -0.014340
C11   C     C_R   0.539667 0.975830 0.538293 0.022936
C12   C     C_3   0.121254 0.500378 0.497759 0.122779
C13   C     C_R   0.460077 0.024207 0.461843 0.035729
C14   C     C_R   0.452088 0.142309 0.456655 -0.017381
C15   C     C_R   0.601538 0.162832 0.591320 -0.051079
C16   C     C_R   0.502435 0.477833 0.299582 0.893037
C17   C     C_R   0.609643 0.047222 0.605243 -0.100005
C18   C     C_R   0.257710 0.500040 0.499783 0.824165
C19   C     C_3   0.931217 0.455838 0.601101 -0.404232
C20   C     C_3   0.075492 0.456115 0.601120 -0.434401
C21   C     C_3   0.932062 0.425464 0.404379 -0.387156
C22   C     C_3   0.919316 0.621751 0.487904 -0.380440
C23   C     C_3   0.077509 0.422378 0.405106 -0.142396
C24   C     C_3   0.878560 0.500835 0.498268 0.134760
C25   C     C_2   0.131356 0.448440 0.300895 0.370841
C26   C     C_2   0.468556 0.232313 0.983947 0.381641
C27   C     C_2   0.308915 0.991981 0.308795 0.345966
C28   C     C_2   0.689758 0.008194 0.692051 0.414425
C29   C     C_3   0.062012 0.621955 0.489626 -0.353596
C30   C     C_R   0.504739 0.463413 0.188336 -0.056271
C31   C     C_R   0.498938 0.534497 0.811829 -0.099128
C32   C     C_R   0.536524 0.642222 0.969918 -0.182036
C33   C     C_R   0.526938 0.635713 0.862810 -0.177562
C34   C     C_R   0.479263 0.440308 0.866957 -0.227630
H1    H     H_    0.903391 0.368975 0.610049 0.181501
H2    H     H_    0.891848 0.508928 0.668809 0.174003
H3    H     H_    0.654915 0.218425 0.640746 0.141037
H4    H     H_    0.344311 0.781639 0.359821 0.140444
H5    H     H_    0.611790 0.815870 0.595641 0.176984
H6    H     H_    0.106385 0.509819 0.668554 0.175945
H7    H     H_    0.116756 0.369562 0.611009 0.187026
H8    H     H_    0.902134 0.338600 0.408993 0.162170
H9    H     H_    0.112840 0.334874 0.418945 0.111215
H10   H     H_    0.883612 0.655179 0.413748 0.198022
H11   H     H_    0.879615 0.678569 0.553107 0.178525
H12   H     H_    0.095372 0.659916 0.418672 0.215152
H13   H     H_    0.090524 0.676191 0.557610 0.173015
H14   H     H_    0.208710 0.394797 0.266844 0.073955
H15   H     H_    0.416688 0.173802 0.025650 0.109376
H16   H     H_    0.227974 0.945951 0.285622 0.078853
H17   H     H_    0.770371 0.054374 0.715816 0.066885
H18   H     H_    0.892350 0.457225 0.330871 0.194017
H19   H     H_    0.545511 0.635333 0.170893 0.164811
H20   H     H_    0.470021 0.287897 0.184228 0.185160
H21   H     H_    0.556840 0.721257 0.009495 0.159631
H22   H     H_    0.542537 0.708848 0.820079 0.197946
H23   H     H_    0.449991 0.365498 0.825701 0.208126
H24   H     H_    0.388381 0.184200 0.404238 0.177575
N1    N     N_R   0.523380 0.207800 0.519350 -0.114725
N2    N     N_R   0.476620 0.792180 0.480650 -0.110693
O1    O     O_R   0.506240 0.421700 0.658830 -0.617798
O2    O     O_2   0.521471 0.199312 0.902648 -0.569134
O3    O     O_2   0.335405 0.070318 0.258317 -0.604906
O4    O     O_2   0.662902 0.929796 0.742291 -0.577882
O5    O     O_R   0.491240 0.609310 0.646410 -0.617194
O6    O     O_R   0.692710 0.406190 0.506230 -0.627292
O7    O     O_R   0.677700 0.593810 0.493810 -0.632239
O8    O     O_R   0.508760 0.390690 0.353590 -0.624642
O9    O     O_R   0.493760 0.578300 0.341170 -0.622284
O10   O     O_R   0.322300 0.406190 0.506190 -0.638854
O11   O     O_R   0.307290 0.593810 0.493770 -0.622145
O12   O     O_2   0.091906 0.530321 0.255613 -0.574615
Zn1   Zn    Zn3+2 0.510020 0.374730 0.508290 0.947042
Zn2   Zn    Zn3+2 0.489980 0.625270 0.491710 0.950284

loop_
_geom_bond_atom_site_label_1
_geom_bond_atom_site_label_2
_ccdc_geom_bond_type
C18   O10   A    
C34   H23   S    
C10   N2    A    
C31   C33   A    
C6    C7    A    
C16   O8    A    
C22   C29   S    
C12   C29   S    
C4    O7    A    
N1    Zn1   S    
C32   H21   S    
C1    O5    A    
C19   C20   S    
C25   H14   S    
C27   H16   S    
C29   H12   S    
C9    N2    A    
C32   C33   A    
C2    C34   A    
C33   H22   S    
C21   C23   S    
C2    C3    A    
C26   O2    D    
C31   C34   A    
O9    Zn2   S    
O7    Zn2   S    
C19   H1    S    
C13   C14   A    
C4    O6    A    
C14   N1    A    
C11   C13   A    
C12   C23   S    
C12   C20   S    
C8    C13   A    
C7    C26   S    
C25   O12   D    
O10   Zn1   S    
C20   H6    S    
C29   H13   S    
C28   O4    D    
N2    Zn2   S    
C9    H4    S    
C6    C30   A    
C6    H20   S    
C20   H7    S    
C19   H2    S    
C23   C25   S    
C3    C32   A    
C4    C24   S    
C28   H17   S    
C22   C24   S    
C17   C28   S    
C21   C24   S    
C10   C11   A    
O5    Zn2   S    
C16   C30   S    
C21   H8    S    
C1    C31   S    
C22   H11   S    
C23   H9    S    
C21   H18   S    
C8    C9    A    
C5    C30   A    
C26   H15   S    
C12   C18   S    
C18   O11   A    
C15   C17   A    
C8    C27   S    
C22   H10   S    
C15   H3    S    
C5    H19   S    
C27   O3    D    
O11   Zn2   S    
O1    Zn1   S    
O8    Zn1   S    
O6    Zn1   S    
C15   N1    A    
C19   C24   S    
C11   C17   A    
C16   O9    A    
C2    C7    A    
C14   H24   S    
C10   H5    S    
C3    C5    A    
C1    O1    A    
