data_mof_unit_8513.cif
_audit_creation_date              2012-12-10T22:11:13-0500
_audit_creation_method            fapswitch 2.2
_symmetry_space_group_name_H-M    P1
_symmetry_Int_Tables_number       1
_space_group_crystal_system       triclinic
_cell_length_a                    12.15713
_cell_length_b                    12.274612
_cell_length_c                    23.093488
_cell_angle_alpha                 90.111265
_cell_angle_beta                  90.893857
_cell_angle_gamma                 90.575944
_cell_volume                      3445.50286751

loop_
_atom_site_label
_atom_site_type_symbol
_atom_type_description
_atom_site_fract_x
_atom_site_fract_y
_atom_site_fract_z
_atom_type_partial_charge
C1    C     C_R   0.658516 0.997660 0.578283 0.900226
C2    C     C_R   0.101264 0.880929 0.830973 0.002787
C3    C     C_R   0.902879 0.200506 0.127740 -0.208345
C4    C     C_R   0.097825 0.797171 0.870893 -0.207354
C5    C     C_R   0.157488 0.914774 0.299028 -0.167379
C6    C     C_R   0.829690 0.075013 0.706001 -0.206518
C7    C     C_R   0.237938 0.914452 0.341707 -0.222599
C8    C     C_R   0.748026 0.074886 0.664180 -0.261277
C9    C     C_R   0.822077 0.087927 0.294530 -0.210851
C10   C     C_R   0.171271 0.908291 0.702775 -0.180134
C11   C     C_R   0.739495 0.089198 0.334806 -0.036840
C12   C     C_R   0.344532 0.003130 0.419597 0.891547
C13   C     C_R   0.252852 0.906903 0.662019 -0.024574
C14   C     C_3   0.990317 0.001544 0.248595 -0.008220
C15   C     C_3   0.005796 0.995418 0.751282 -0.011456
C16   C     C_R   0.651598 0.002020 0.419672 0.905007
C17   C     C_R   0.347287 0.997885 0.580064 0.898106
C18   C     C_R   0.089683 0.006210 0.290747 0.032171
C19   C     C_R   0.904784 0.988433 0.710052 0.042324
C20   C     C_R   0.260622 0.008431 0.373791 -0.138707
C21   C     C_R   0.745218 0.994342 0.621841 -0.131358
C22   C     C_R   0.892106 0.997674 0.289220 0.034244
C23   C     C_R   0.901269 0.752460 0.158179 -0.096928
C24   C     C_R   0.102327 0.999057 0.709240 0.034945
C25   C     C_R   0.730309 0.002006 0.373653 -0.130729
C26   C     C_R   0.265391 0.996658 0.625034 -0.129150
C27   C     C_R   0.989323 0.098553 0.206115 0.103154
C28   C     C_R   0.008777 0.899090 0.793587 0.114040
C29   C     C_R   0.997318 0.265209 0.123173 -0.048151
C30   C     C_R   0.002497 0.734217 0.876966 -0.033052
C31   C     C_R   0.992468 0.903427 0.207924 0.071349
C32   C     C_R   0.005154 0.094072 0.792090 0.072576
C33   C     C_R   0.991249 0.744520 0.120582 -0.180289
C34   C     C_R   0.097016 0.246366 0.840815 -0.103108
C35   C     C_R   0.007378 0.255586 0.878648 -0.198659
C36   C     C_R   0.992834 0.661154 0.075662 0.911378
C37   C     C_R   0.006954 0.339206 0.923901 0.910025
C38   C     C_R   0.999093 0.351541 0.080633 0.877713
C39   C     C_R   0.000925 0.648413 0.919498 0.877048
C40   C     C_R   0.106959 0.099506 0.326680 0.458098
C41   C     C_R   0.894628 0.899135 0.670221 0.460099
C42   C     C_R   0.201960 0.105136 0.361844 -0.148663
C43   C     C_R   0.823483 0.910828 0.621861 -0.132712
C44   C     C_R   0.878405 0.907174 0.327049 0.466987
C45   C     C_R   0.082226 0.893493 0.170902 -0.310148
C46   C     C_R   0.112279 0.088072 0.670234 0.487682
C47   C     C_R   0.799043 0.912247 0.369547 -0.333814
C48   C     C_R   0.197784 0.087379 0.630413 -0.341754
C49   C     C_R   0.086161 0.161688 0.197999 -0.105336
C50   C     C_R   0.911460 0.838233 0.803424 -0.147866
C51   C     C_R   0.089416 0.244698 0.157708 -0.203510
C52   C     C_R   0.908853 0.756125 0.844013 -0.227330
C53   C     C_R   0.901774 0.832597 0.200261 -0.164970
C54   C     C_R   0.095125 0.166436 0.798304 -0.104764
C55   C     C_1   0.240110 0.210859 0.382314 0.235405
C56   C     C_R   0.917557 0.103408 0.830536 -0.315255
C57   C     C_1   0.839807 0.849164 0.569188 0.195825
C58   C     C_3   0.902259 0.717668 0.327314 0.054983
C59   C     C_3   0.940679 0.655334 0.381147 -0.311732
C60   C     C_3   0.893827 0.539472 0.381756 -0.968808
C61   C     C_3   0.015414 0.232318 0.624877 0.080225
C62   C     C_3   0.071410 0.344696 0.625016 -0.339336
C63   C     C_3   0.043767 0.408719 0.570253 -0.978744
C64   C     C_1   0.798835 0.050870 0.166472 0.147563
C65   C     C_1   0.201076 0.946077 0.830496 0.130097
C66   C     C_1   0.807234 0.679240 0.155796 0.208259
C67   C     C_R   0.083440 0.814322 0.127975 0.467771
C68   C     C_1   0.191432 0.319017 0.843055 0.224455
C69   C     C_3   0.266895 0.779853 0.117992 0.099810
C70   C     C_3   0.354346 0.756328 0.072948 -0.309504
C71   C     C_3   0.462616 0.722049 0.101548 -0.941602
C72   C     C_3   0.725598 0.215071 0.874832 0.104832
C73   C     C_3   0.722760 0.330375 0.848880 -0.369788
C74   C     C_3   0.617773 0.347794 0.813160 -0.947476
C75   C     C_1   0.667115 0.182004 0.335504 0.184777
C76   C     C_1   0.323713 0.812922 0.660653 0.204374
C77   C     C_3   0.995703 0.230442 0.374246 0.082571
C78   C     C_R   0.914044 0.186957 0.871060 0.497430
C79   C     C_3   0.977005 0.147664 0.423769 -0.407064
C80   C     C_3   0.894810 0.189871 0.467568 -0.925907
C81   C     C_3   0.925235 0.706100 0.663299 0.102187
C82   C     C_3   0.813021 0.676573 0.689594 -0.410346
C83   C     C_3   0.777278 0.561432 0.671984 -0.928059
C84   C     C_R   0.898503 0.116301 0.167424 0.001958
H1    H     H_    0.161984 0.145989 0.221330 0.131610
H2    H     H_    0.160186 0.835157 0.728068 0.177567
H3    H     H_    0.794070 0.847483 0.401165 0.188713
H4    H     H_    0.211384 0.157086 0.602803 0.173061
H5    H     H_    0.164370 0.292269 0.153338 0.159131
H6    H     H_    0.833214 0.710225 0.849731 0.157728
H7    H     H_    0.832522 0.214036 0.099241 0.175499
H8    H     H_    0.169398 0.782829 0.898403 0.171035
H9    H     H_    0.283856 0.840363 0.348901 0.173138
H10   H     H_    0.689436 0.140885 0.663506 0.173532
H11   H     H_    0.930044 0.672565 0.288528 0.168606
H12   H     H_    0.834780 0.855375 0.781176 0.127412
H13   H     H_    0.810583 0.718586 0.324427 0.129749
H14   H     H_    0.032028 0.651635 0.381904 0.233191
H15   H     H_    0.914451 0.698735 0.420730 0.232548
H16   H     H_    0.802501 0.541082 0.382118 0.272842
H17   H     H_    0.923566 0.496524 0.421201 0.264687
H18   H     H_    0.921044 0.493628 0.343094 0.264239
H19   H     H_    0.925008 0.244683 0.624409 0.175588
H20   H     H_    0.032308 0.185624 0.584646 0.134178
H21   H     H_    0.043728 0.391606 0.663275 0.225512
H22   H     H_    0.162042 0.335735 0.628720 0.225099
H23   H     H_    0.828234 0.840755 0.225480 0.147206
H24   H     H_    0.076756 0.366636 0.531708 0.270591
H25   H     H_    0.081886 0.491178 0.573193 0.272072
H26   H     H_    0.953293 0.417825 0.565217 0.263248
H27   H     H_    0.252740 0.704318 0.143789 0.131648
H28   H     H_    0.298347 0.845799 0.147140 0.130876
H29   H     H_    0.324471 0.690096 0.043607 0.229225
H30   H     H_    0.368956 0.830590 0.046565 0.230199
H31   H     H_    0.495154 0.787989 0.130255 0.273904
H32   H     H_    0.524172 0.705507 0.067698 0.272614
H33   H     H_    0.450382 0.646798 0.127406 0.264947
H34   H     H_    0.167218 0.159033 0.771850 0.159035
H35   H     H_    0.655936 0.207028 0.905139 0.170056
H36   H     H_    0.709979 0.152874 0.840589 0.120577
H37   H     H_    0.726594 0.391671 0.884319 0.243987
H38   H     H_    0.794422 0.343604 0.820354 0.210201
H39   H     H_    0.613288 0.289165 0.776459 0.263639
H40   H     H_    0.617693 0.431811 0.795404 0.268441
H41   H     H_    0.544248 0.336837 0.840598 0.275860
H42   H     H_    0.915617 0.268823 0.363497 0.182240
H43   H     H_    0.048745 0.298843 0.389680 0.150612
H44   H     H_    0.946162 0.069195 0.406238 0.248681
H45   H     H_    0.150511 0.950502 0.174289 0.150006
H46   H     H_    0.055751 0.132137 0.447148 0.209442
H47   H     H_    0.924524 0.267931 0.486581 0.257945
H48   H     H_    0.884457 0.129357 0.502819 0.261212
H49   H     H_    0.813609 0.203282 0.446356 0.285502
H50   H     H_    0.985713 0.647619 0.681497 0.167755
H51   H     H_    0.926662 0.690000 0.616212 0.160976
H52   H     H_    0.819253 0.679457 0.737401 0.225817
H53   H     H_    0.748154 0.733702 0.675108 0.227435
H54   H     H_    0.767918 0.555504 0.624146 0.268796
H55   H     H_    0.696987 0.541342 0.691835 0.269196
H56   H     H_    0.850904 0.044482 0.828776 0.151353
H57   H     H_    0.838898 0.501168 0.687148 0.259572
H58   H     H_    0.144425 0.839425 0.275563 0.181394
H59   H     H_    0.834811 0.146378 0.733213 0.181619
H60   H     H_    0.833538 0.160967 0.269243 0.178530
N1    N     N_1   0.270907 0.295316 0.398481 -0.209943
N2    N     N_1   0.852466 0.800896 0.526738 -0.237404
N3    N     N_1   0.718302 0.999720 0.165312 -0.209429
N4    N     N_1   0.281621 0.997185 0.830447 -0.210767
N5    N     N_1   0.731917 0.620821 0.154101 -0.204085
N6    N     N_1   0.267086 0.377013 0.844658 -0.207370
N7    N     N_1   0.609311 0.256334 0.335974 -0.197122
N8    N     N_1   0.380312 0.737696 0.659719 -0.203992
O1    O     O_R   0.621380 0.090460 0.561410 -0.630999
O2    O     O_R   0.912410 0.372520 0.941210 -0.591735
O3    O     O_R   0.905660 0.383870 0.059980 -0.619745
O4    O     O_R   0.094340 0.616130 0.940020 -0.626678
O5    O     O_R   0.092570 0.390420 0.063230 -0.632138
O6    O     O_R   0.907430 0.609580 0.936770 -0.637103
O7    O     O_R   0.900680 0.620930 0.055550 -0.617394
O8    O     O_R   0.099320 0.379070 0.944450 -0.617532
O9    O     O_3   0.953261 0.822131 0.326655 -0.653779
O10   O     O_3   0.042929 0.177185 0.676853 -0.663155
O11   O     O_3   0.169289 0.812720 0.089148 -0.620444
O12   O     O_R   0.378620 0.909540 0.438590 -0.626638
O13   O     O_3   0.823987 0.195968 0.907142 -0.621288
O14   O     O_3   0.035654 0.187388 0.321112 -0.665587
O15   O     O_3   0.966991 0.811985 0.676935 -0.670743
O16   O     O_R   0.617150 0.909540 0.438590 -0.628819
O17   O     O_R   0.382850 0.090460 0.561410 -0.630670
O18   O     O_R   0.619720 0.093230 0.440890 -0.625746
O19   O     O_R   0.380280 0.906770 0.559110 -0.613814
O20   O     O_R   0.618800 0.906770 0.559110 -0.615120
O21   O     O_R   0.381200 0.093230 0.440890 -0.616029
O22   O     O_R   0.087590 0.627480 0.058790 -0.597388
Zn1   Zn    Zn3+2 0.501730 0.123520 0.501540 0.972509
Zn2   Zn    Zn3+2 0.498270 0.876480 0.498460 0.979357
Zn3   Zn    Zn3+2 0.125690 0.504390 0.002180 0.965331
Zn4   Zn    Zn3+2 0.874310 0.495610 0.997820 0.970528

loop_
_geom_bond_atom_site_label_1
_geom_bond_atom_site_label_2
_ccdc_geom_bond_type
C74   H40   S    
C79   H44   S    
C1    C21   S    
C80   H48   S    
C59   H15   S    
C72   O13   S    
C14   C18   S    
C52   H6    S    
C14   C31   S    
C2    C65   S    
C83   H55   S    
C81   C82   S    
C5    H58   S    
C81   H50   S    
C62   H21   S    
C70   H30   S    
C36   O22   A    
C6    C19   A    
C33   C67   A    
C17   C26   S    
C37   O8    A    
C27   C84   A    
C35   C37   S    
C82   H53   S    
C56   H56   S    
C69   H28   S    
C17   O17   A    
C9    C22   A    
C55   N1    T    
C74   H41   S    
C11   C25   A    
C33   C36   S    
C56   C78   A    
C3    H7    S    
C34   C35   A    
C73   C74   S    
C3    C29   A    
C18   C40   A    
C64   C84   S    
C36   O7    A    
C21   C43   A    
C28   C50   A    
C22   C44   A    
C45   H45   S    
C75   N7    T    
C49   C51   A    
C29   C38   S    
C45   C67   A    
C50   C52   A    
C48   H4    S    
C23   C53   A    
C70   C71   S    
C14   C27   S    
C25   C47   A    
C40   O14   S    
C61   C62   S    
C77   H43   S    
C44   C47   A    
C26   C48   A    
C40   C42   A    
C74   H39   S    
C59   C60   S    
C80   H47   S    
C57   N2    T    
C41   C43   A    
C72   H36   S    
O6    Zn4   S    
C58   H13   S    
C38   O3    A    
C60   H18   S    
C32   C54   A    
C9    H60   S    
C81   H51   S    
O18   Zn1   S    
C77   C79   S    
C70   H29   S    
C81   O15   S    
C7    H9    S    
C46   C48   A    
C71   H33   S    
C27   C49   A    
C61   O10   S    
C49   H1    S    
C15   C32   S    
C61   H20   S    
C8    H10   S    
C66   N5    T    
C34   C68   S    
C83   H57   S    
C16   O18   A    
C6    C8    A    
C5    C18   A    
C23   C33   A    
C77   O14   S    
C79   H46   S    
C82   C83   S    
C80   H49   S    
C47   H3    S    
C63   H25   S    
C15   C19   S    
C58   H11   S    
C62   C63   S    
C67   O11   S    
C42   C55   S    
C12   O12   A    
O4    Zn3   S    
C53   H23   S    
C13   C76   S    
C12   C20   S    
C17   O19   A    
C8    C21   A    
O17   Zn1   S    
C63   H24   S    
C71   H31   S    
O5    Zn3   S    
C31   C53   A    
C65   N4    T    
C1    O1    A    
C9    C11   A    
O22   Zn3   S    
O21   Zn1   S    
C15   C24   S    
C73   H38   S    
C73   H37   S    
O2    Zn4   S    
C39   O6    A    
C46   O10   S    
C13   C26   A    
C44   O9    S    
O7    Zn4   S    
C60   H17   S    
C23   C66   S    
C5    C7    A    
C29   C51   A    
C16   C25   S    
O16   Zn2   S    
C30   C52   A    
C10   H2    S    
C78   O13   S    
C1    O20   A    
C61   H19   S    
C37   O2    A    
C69   O11   S    
C38   O5    A    
C72   C73   S    
C60   H16   S    
C10   C13   A    
C20   C42   A    
O3    Zn4   S    
C34   C54   A    
C62   H22   S    
O19   Zn2   S    
O1    Zn1   S    
C35   C78   A    
C39   O4    A    
C10   C24   A    
C14   C22   S    
C63   H26   S    
C54   H34   S    
C58   C59   S    
C24   C46   A    
C64   N3    T    
C11   C75   S    
C51   H5    S    
C69   H27   S    
C50   H12   S    
C15   C28   S    
C16   O16   A    
C2    C4    A    
C41   O15   S    
C72   H35   S    
C71   H32   S    
O12   Zn2   S    
C82   H52   S    
C69   C70   S    
O8    Zn3   S    
C68   N6    T    
C43   C57   S    
C79   C80   S    
C19   C41   A    
C7    C20   A    
C31   C45   A    
C3    C84   A    
C59   H14   S    
C76   N8    T    
C2    C28   A    
C6    H59   S    
C58   O9    S    
C32   C56   A    
C83   H54   S    
C4    C30   A    
C77   H42   S    
O20   Zn2   S    
C30   C39   S    
C12   O21   A    
C4    H8    S    
