data_mof_unit_47361.cif
_audit_creation_date              2013-03-05T15:44:38-0500
_audit_creation_method            fapswitch 2.2
_symmetry_space_group_name_H-M    P1
_symmetry_Int_Tables_number       1
_space_group_crystal_system       triclinic
_cell_length_a                    19.166201
_cell_length_b                    11.048102
_cell_length_c                    18.71575
_cell_angle_alpha                 90.397128
_cell_angle_beta                  89.951261
_cell_angle_gamma                 89.99353
_cell_volume                      3962.9660931

loop_
_atom_site_label
_atom_site_type_symbol
_atom_site_description
_atom_site_fract_x
_atom_site_fract_y
_atom_site_fract_z
_atom_type_partial_charge
O1    O     O_R   0.787540 0.042690 0.170470 -0.472551
O2    O     O_R   0.212460 0.042690 0.829530 -0.449254
O3    O     O_R   0.287540 0.542690 0.170470 -0.447288
O4    O     O_R   0.712460 0.542690 0.829530 -0.416309
O5    O     O_R   0.765660 0.292160 0.175050 -0.483397
O6    O     O_R   0.234340 0.292160 0.824950 -0.448841
O7    O     O_R   0.265660 0.792160 0.175050 -0.451722
O8    O     O_R   0.734340 0.792160 0.824950 -0.427925
C1    C     C_R   0.730595 0.376004 0.146619 0.612597
C2    C     C_R   0.288856 0.329182 0.861467 0.559417
C3    C     C_R   0.211200 0.829481 0.138305 0.552777
C4    C     C_R   0.789516 0.829379 0.861021 0.508060
O9    O     O_R   0.670190 0.408980 0.168550 -0.479943
O10   O     O_R   0.329810 0.408980 0.831450 -0.438343
O11   O     O_R   0.170190 0.908980 0.168550 -0.437048
O12   O     O_R   0.829810 0.908980 0.831450 -0.460062
O13   O     O_R   0.556580 0.251450 0.175160 -0.502552
O14   O     O_R   0.443420 0.251450 0.824840 -0.551135
O15   O     O_R   0.056580 0.751450 0.175160 -0.549755
O16   O     O_R   0.943420 0.751450 0.824840 -0.541246
C5    C     C_R   0.531814 0.156999 0.145972 0.645273
C6    C     C_R   0.470143 0.155592 0.851897 0.539604
C7    C     C_R   0.031530 0.654468 0.146838 0.563364
C8    C     C_R   0.968170 0.657584 0.853463 0.570490
O17   O     O_R   0.545920 0.049510 0.170320 -0.445483
O18   O     O_R   0.454080 0.049510 0.829680 -0.456546
O19   O     O_R   0.045920 0.549510 0.170320 -0.434032
O20   O     O_R   0.954080 0.549510 0.829680 -0.463852
O21   O     O_R   0.681390 0.957840 0.176710 -0.448677
O22   O     O_R   0.318610 0.957840 0.823290 -0.467870
O23   O     O_R   0.181390 0.457840 0.176710 -0.458663
O24   O     O_R   0.818610 0.457840 0.823290 -0.455329
C9    C     C_R   0.741756 0.969487 0.148047 0.655268
C10   C     C_R   0.256375 0.962975 0.849977 0.577764
C11   C     C_R   0.243419 0.462497 0.149935 0.574258
C12   C     C_R   0.769529 0.514660 0.860572 0.531379
O25   O     O_R   0.787500 0.044280 0.330990 -0.515637
O26   O     O_R   0.212500 0.044280 0.669010 -0.508877
O27   O     O_R   0.287500 0.544280 0.330990 -0.511337
O28   O     O_R   0.712500 0.544280 0.669010 -0.507757
O29   O     O_R   0.765610 0.293630 0.323860 -0.513878
O30   O     O_R   0.234390 0.293630 0.676140 -0.497360
O31   O     O_R   0.265610 0.793630 0.323860 -0.501046
O32   O     O_R   0.734390 0.793630 0.676140 -0.499677
C13   C     C_R   0.729061 0.376322 0.353087 0.580844
C14   C     C_R   0.271100 0.375545 0.646704 0.594827
C15   C     C_R   0.229053 0.876305 0.353096 0.594148
C16   C     C_R   0.771100 0.875546 0.646704 0.591318
O33   O     O_R   0.670140 0.410570 0.329080 -0.473935
O34   O     O_R   0.329860 0.410570 0.670920 -0.463243
O35   O     O_R   0.170140 0.910570 0.329080 -0.461526
O36   O     O_R   0.829860 0.910570 0.670920 -0.463233
O37   O     O_R   0.556540 0.252920 0.323970 -0.459758
O38   O     O_R   0.443460 0.252920 0.676030 -0.457705
O39   O     O_R   0.056540 0.752920 0.323970 -0.457170
O40   O     O_R   0.943460 0.752920 0.676030 -0.452083
C17   C     C_R   0.530679 0.157674 0.353210 0.580357
C18   C     C_R   0.469372 0.157277 0.646885 0.583093
C19   C     C_R   0.030651 0.657676 0.353187 0.584162
C20   C     C_R   0.969350 0.657275 0.646865 0.589560
O41   O     O_R   0.545870 0.051100 0.330840 -0.487539
O42   O     O_R   0.454130 0.051100 0.669160 -0.478258
O43   O     O_R   0.045870 0.551100 0.330840 -0.480865
O44   O     O_R   0.954130 0.551100 0.669160 -0.476307
O45   O     O_R   0.681340 0.959300 0.325510 -0.459079
O46   O     O_R   0.318660 0.959300 0.674490 -0.449178
O47   O     O_R   0.181340 0.459300 0.325510 -0.449336
O48   O     O_R   0.818660 0.459300 0.674490 -0.444534
C21   C     C_R   0.742039 0.970345 0.353624 0.594482
C22   C     C_R   0.257937 0.969986 0.646338 0.589164
C23   C     C_R   0.242032 0.470360 0.353633 0.586585
C24   C     C_R   0.757938 0.469990 0.646337 0.598999
Cr1   Cr    Cr6+3 0.772000 0.169640 0.250110 1.110892
Cr2   Cr    Cr6+3 0.228000 0.169640 0.749890 1.152248
Cr3   Cr    Cr6+3 0.272000 0.669640 0.250110 1.137674
Cr4   Cr    Cr6+3 0.728000 0.669640 0.749890 1.158045
Cr5   Cr    Cr6+3 0.614960 0.323350 0.249260 1.171224
Cr6   Cr    Cr6+3 0.385040 0.323350 0.750740 1.144405
Cr7   Cr    Cr6+3 0.114960 0.823350 0.249260 1.152317
Cr8   Cr    Cr6+3 0.885040 0.823350 0.750740 1.150080
Cr9   Cr    Cr6+3 0.616670 0.010620 0.250840 1.189014
Cr10  Cr    Cr6+3 0.383330 0.010620 0.749160 1.168391
Cr11  Cr    Cr6+3 0.116670 0.510620 0.250840 1.195497
Cr12  Cr    Cr6+3 0.883330 0.510620 0.749160 1.173622
O49   O     O_3   0.667880 0.167870 0.250070 -0.304871
O50   O     O_3   0.332120 0.167870 0.749930 -0.355797
O51   O     O_3   0.167880 0.667870 0.250070 -0.359538
O52   O     O_3   0.832120 0.667870 0.749930 -0.375379
C25   C     C_R   0.505627 0.165105 0.921422 0.009021
C26   C     C_R   0.505125 0.173575 0.071810 0.013008
C27   C     C_R   0.999540 0.675202 0.924885 -0.011814
C28   C     C_R   0.003319 0.661137 0.073943 0.025100
C29   C     C_R   0.516207 0.277063 0.955799 -0.039055
C30   C     C_R   0.517758 0.282493 0.031353 -0.014675
C31   C     C_R   0.986172 0.782406 0.967392 -0.070391
C32   C     C_R   0.988377 0.773674 0.042406 -0.048883
C33   C     C_R   0.487558 0.068418 0.033886 0.175749
C34   C     C_R   0.507107 0.060506 0.962227 0.224917
C35   C     C_R   0.010607 0.556977 0.030857 0.165373
C36   C     C_R   0.022590 0.569102 0.957904 0.139103
C37   C     C_R   0.527598 0.382140 0.915744 -0.101340
C38   C     C_R   0.529398 0.397233 0.062662 -0.053231
C39   C     C_R   0.971107 0.898120 0.938363 -0.075819
C40   C     C_R   0.972065 0.875903 0.084835 -0.094224
C41   C     C_R   0.959900 0.002133 0.980857 0.033088
C42   C     C_R   0.961169 0.989770 0.055734 0.016531
C43   C     C_R   0.528628 0.496913 0.947363 0.027774
C44   C     C_R   0.534169 0.503804 0.022940 0.049587
H1    H     H_    0.534221 0.375363 0.858511 0.199641
H2    H     H_    0.526194 0.412004 0.119098 0.217298
H3    H     H_    0.974233 0.914268 0.882209 0.237143
H4    H     H_    0.964710 0.868068 0.141871 0.199265
C45   C     C_R   0.719441 0.992072 0.019095 0.210686
C46   C     C_R   0.281248 0.807006 0.947698 0.195287
C47   C     C_R   0.215583 0.309095 0.050860 0.169068
C48   C     C_R   0.774425 0.358323 0.954152 0.182145
C49   C     C_R   0.730415 0.952675 0.949461 0.059680
C50   C     C_R   0.273481 0.787953 0.021928 -0.077496
C51   C     C_R   0.223222 0.291449 0.976413 -0.098568
C52   C     C_R   0.776330 0.331066 0.026705 -0.033193
H5    H     H_    0.704949 0.997573 0.905301 0.236210
H6    H     H_    0.309430 0.729784 0.049839 0.235016
H7    H     H_    0.185531 0.238022 0.947347 0.236365
H8    H     H_    0.788440 0.239911 0.042972 0.224144
C53   C     C_R   0.776924 0.860384 0.934713 -0.009673
C54   C     C_R   0.218642 0.842262 0.060060 -0.071372
C55   C     C_R   0.280789 0.340222 0.939822 -0.065462
C56   C     C_R   0.752628 0.415465 0.077149 0.001069
C57   C     C_R   0.812505 0.801542 0.989499 -0.146441
C58   C     C_R   0.165514 0.898917 0.021432 -0.118238
C59   C     C_R   0.335342 0.389435 0.979996 -0.113575
C60   C     C_R   0.730407 0.527635 0.056444 -0.059776
H9    H     H_    0.847426 0.727804 0.976174 0.117104
H10   H     H_    0.117846 0.927379 0.047625 0.191849
H11   H     H_    0.384079 0.413569 0.954719 0.172601
H12   H     H_    0.711527 0.589249 0.097259 0.230733
C61   C     C_R   0.798961 0.831188 0.061175 0.170175
C62   C     C_R   0.173097 0.919206 0.948603 0.170001
C63   C     C_R   0.327105 0.410189 0.052839 0.183274
C64   C     C_R   0.725384 0.556968 0.985067 0.112206
C65   C     C_R   0.752004 0.927479 0.075778 0.035633
C66   C     C_R   0.236385 0.890637 0.914013 0.012663
C67   C     C_R   0.262611 0.387852 0.086028 0.013308
C68   C     C_R   0.755876 0.476394 0.933614 -0.019070
C69   C     C_R   0.491416 0.057536 0.463071 -0.031183
C70   C     C_R   0.508034 0.057050 0.536103 -0.033355
C71   C     C_R   0.991277 0.557543 0.462998 -0.031462
C72   C     C_R   0.007897 0.557037 0.536031 -0.034967
C73   C     C_R   0.501215 0.166191 0.574870 -0.047773
C74   C     C_R   0.498973 0.166927 0.425380 -0.045631
C75   C     C_R   0.001118 0.666180 0.574809 -0.048635
C76   C     C_R   0.998868 0.666932 0.425318 -0.045622
C77   C     C_R   0.501526 0.277980 0.538438 0.150139
C78   C     C_R   0.499515 0.278359 0.462990 0.149135
C79   C     C_R   0.001425 0.777973 0.538376 0.148707
C80   C     C_R   0.999398 0.778359 0.462926 0.149408
C81   C     C_R   0.802990 0.988786 0.466130 -0.137650
C82   C     C_R   0.197119 0.989107 0.534093 -0.138730
C83   C     C_R   0.302963 0.488829 0.466143 -0.137501
C84   C     C_R   0.697153 0.489186 0.534073 -0.139963
H13   H     H_    0.840627 0.049918 0.442680 0.203530
H14   H     H_    0.159288 0.049937 0.558007 0.202938
H15   H     H_    0.340595 0.549970 0.442694 0.203649
H16   H     H_    0.659328 0.550029 0.557985 0.202925
C85   C     C_R   0.802494 0.981226 0.538745 -0.103746
C86   C     C_R   0.198067 0.982787 0.461465 -0.107032
C87   C     C_R   0.302471 0.481265 0.538755 -0.103516
C88   C     C_R   0.698105 0.482856 0.461444 -0.105178
H17   H     H_    0.841354 0.030719 0.568077 0.260158
H18   H     H_    0.159487 0.032861 0.432479 0.258785
H19   H     H_    0.341328 0.530770 0.568087 0.260074
H20   H     H_    0.659530 0.532925 0.432453 0.258749
C89   C     C_R   0.755960 0.905153 0.573160 0.000752
C90   C     C_R   0.244460 0.906556 0.426546 0.001721
C91   C     C_R   0.255949 0.405168 0.573167 0.000993
C92   C     C_R   0.744483 0.406598 0.426528 0.006827
C93   C     C_R   0.708334 0.836025 0.533153 -0.103635
C94   C     C_R   0.291953 0.836910 0.465908 -0.103094
C95   C     C_R   0.208323 0.336033 0.533160 -0.103468
C96   C     C_R   0.791964 0.336936 0.465894 -0.101603
H21   H     H_    0.674821 0.771213 0.559354 0.161236
H22   H     H_    0.325399 0.772015 0.439150 0.162334
H23   H     H_    0.174818 0.271207 0.559360 0.161016
H24   H     H_    0.825397 0.272016 0.439139 0.162635
C97   C     C_R   0.706897 0.844929 0.458699 0.180392
C98   C     C_R   0.293193 0.845021 0.540371 0.177809
C99   C     C_R   0.206876 0.344948 0.458707 0.177872
C100  C     C_R   0.793195 0.345043 0.540356 0.176590
C101  C     C_R   0.753360 0.925862 0.425368 0.024521
C102  C     C_R   0.246641 0.925658 0.574336 0.021640
C103  C     C_R   0.253340 0.425889 0.425379 0.020908
C104  C     C_R   0.746654 0.425701 0.574322 0.018720
N1    N     N_R   0.443563 0.976391 0.064127 0.072232
O53   O     O_R   0.415887 0.895997 0.021776 -0.279225
O54   O     O_R   0.416077 0.991115 0.127216 -0.296592
N2    N     N_R   0.544365 0.956063 0.936804 0.115944
O55   O     O_R   0.570562 0.883449 0.983652 -0.224123
O56   O     O_R   0.570518 0.953114 0.872576 -0.293548
N3    N     N_R   0.995067 0.440767 0.060004 0.126240
O57   O     O_R   0.933822 0.423108 0.087987 -0.294837
O58   O     O_R   0.045333 0.367193 0.075856 -0.196937
N4    N     N_R   0.057739 0.476337 0.916465 0.091849
O59   O     O_R   0.058592 0.363883 0.936189 -0.246994
O60   O     O_R   0.095698 0.507214 0.861815 -0.273403
N5    N     N_R   0.660248 0.769646 0.418069 0.068642
O61   O     O_R   0.679590 0.725100 0.356582 -0.301839
O62   O     O_R   0.603110 0.730081 0.447092 -0.270846
N6    N     N_R   0.339649 0.769161 0.580280 0.069249
O63   O     O_R   0.320495 0.725553 0.641701 -0.287556
O64   O     O_R   0.396242 0.728011 0.550555 -0.271550
N7    N     N_R   0.160215 0.269674 0.418081 0.069136
O65   O     O_R   0.179537 0.225140 0.356585 -0.285121
O66   O     O_R   0.103079 0.230114 0.447110 -0.269366
N8    N     N_R   0.839621 0.269136 0.580267 0.068909
O67   O     O_R   0.820435 0.225511 0.641673 -0.286197
O68   O     O_R   0.896207 0.227948 0.550548 -0.271782
C105  C     C_2   0.951201 0.121269 0.944215 0.714791
O69   O     O_2   0.953133 0.126343 0.878901 -0.418418
O70   O     O_R   0.940188 0.227780 0.982892 -0.574416
H25   H     H_    0.930422 0.299787 0.951112 0.368080
C106  C     C_2   0.954231 0.091488 0.106944 0.665775
O71   O     O_2   0.999567 0.108097 0.151912 -0.418452
O72   O     O_R   0.894356 0.162854 0.107509 -0.639232
H26   H     H_    0.894593 0.224107 0.148048 0.375511
C107  C     C_2   0.519601 0.601186 0.897994 0.690110
O73   O     O_2   0.533820 0.589379 0.834504 -0.467913
O74   O     O_R   0.491767 0.710422 0.921514 -0.509477
H27   H     H_    0.481317 0.767376 0.880648 0.384347
C108  C     C_2   0.544361 0.615631 0.066376 0.690725
O75   O     O_2   0.583909 0.613194 0.117632 -0.505175
O76   O     O_R   0.503606 0.717681 0.056213 -0.494461
H28   H     H_    0.512372 0.781060 0.094613 0.382943
N9    N     N_R   0.677255 0.099379 0.029465 0.037054
O77   O     O_R   0.669626 0.149634 0.091739 -0.377140
O78   O     O_R   0.654490 0.158528 0.974389 -0.342224
N10   N     N_R   0.327801 0.730855 0.907039 0.107670
O79   O     O_R   0.362236 0.646453 0.939638 -0.297778
O80   O     O_R   0.321572 0.722125 0.837971 -0.267222
N11   N     N_R   0.167019 0.236237 0.090613 0.130568
O81   O     O_R   0.176751 0.217759 0.158483 -0.242637
O82   O     O_R   0.122464 0.167748 0.057101 -0.256730
N12   N     N_R   0.779195 0.261869 0.902138 0.118016
O83   O     O_R   0.811132 0.162213 0.917964 -0.349052
O84   O     O_R   0.738351 0.261546 0.846574 -0.242667
N13   N     N_R   0.829444 0.758433 0.117140 0.051007
O85   O     O_R   0.854741 0.652077 0.102204 -0.346923
O86   O     O_R   0.832722 0.796150 0.183051 -0.313088
N14   N     N_R   0.115911 0.967398 0.909249 0.065928
O87   O     O_R   0.097591 0.914852 0.849633 -0.304776
O88   O     O_R   0.096480 0.078191 0.921372 -0.283010
N15   N     N_R   0.383931 0.457095 0.093188 0.052548
O89   O     O_R   0.401892 0.402105 0.151692 -0.328706
O90   O     O_R   0.399303 0.570684 0.086070 -0.288679
N16   N     N_R   0.684588 0.663347 0.969141 0.040071
O91   O     O_R   0.652877 0.677688 0.908949 -0.254125
O92   O     O_R   0.666391 0.735294 0.021006 -0.329611
C109  C     C_2   0.456679 0.953759 0.426076 0.636607
O93   O     O_2   0.408768 0.974639 0.384785 -0.504854
O94   O     O_R   0.479436 0.835073 0.434254 -0.541001
H29   H     H_    0.452158 0.775152 0.403972 0.361833
C110  C     C_2   0.542302 0.952572 0.572026 0.638373
O95   O     O_2   0.590216 0.972548 0.613637 -0.503673
O96   O     O_R   0.519197 0.834221 0.562445 -0.537999
H30   H     H_    0.546284 0.773743 0.592042 0.365827
C111  C     C_2   0.956586 0.453755 0.425961 0.636538
O97   O     O_2   0.908715 0.474627 0.384618 -0.507978
O98   O     O_R   0.979355 0.335075 0.434144 -0.539823
H31   H     H_    0.952125 0.275157 0.403813 0.361708
C112  C     C_2   0.042206 0.452569 0.571918 0.638971
O99   O     O_2   0.090149 0.472555 0.613491 -0.499187
O100  O     O_R   0.019117 0.334211 0.562335 -0.538119
H32   H     H_    0.046245 0.273732 0.591891 0.365764
N17   N     N_R   0.508039 0.389295 0.578132 0.113305
O101  O     O_R   0.553797 0.398245 0.629240 -0.302241
O102  O     O_R   0.467392 0.480635 0.565166 -0.253991
N18   N     N_R   0.493677 0.390115 0.424520 0.111891
O103  O     O_R   0.448209 0.400145 0.373286 -0.298682
O104  O     O_R   0.533909 0.481455 0.439434 -0.256786
N19   N     N_R   0.007997 0.889277 0.578068 0.112404
O105  O     O_R   0.053791 0.898177 0.629144 -0.293403
O106  O     O_R   0.967406 0.980690 0.565098 -0.254797
N20   N     N_R   0.993564 0.890111 0.424448 0.112556
O107  O     O_R   0.948144 0.900099 0.373165 -0.301818
O108  O     O_R   0.033828 0.981423 0.439328 -0.255350

loop_
_geom_bond_atom_site_label_1
_geom_bond_atom_site_label_2
_geom_bond_distance
_ccdc_geom_bond_type
C18   O42   1.281344 A    
Cr11  O51   1.995626 S    
O4    C12   1.278014 A    
N13   O86   1.300874 A    
C37   C43   1.395733 A    
C29   C30   1.415246 A    
N6    O64   1.299246 A    
O39   C19   1.288451 A    
O20   Cr12  2.070997 S    
C31   C32   1.408594 A    
O15   C7    1.285377 A    
C71   C72   1.403796 A    
C72   C75   1.409009 A    
C28   C32   1.409481 A    
C71   C111  1.492436 S    
C61   N13   1.448156 S    
C73   C77   1.414909 A    
C40   C42   1.390133 A    
C69   C70   1.403775 A    
O1    C9    1.263454 A    
O96   H30   1.014065 S    
O46   C22   1.283709 A    
C19   C76   1.483470 S    
O45   C21   1.282727 A    
O7    C3    1.318143 A    
C20   O44   1.281354 A    
N14   O88   1.297843 A    
C82   C86   1.360700 A    
N20   O107  1.301566 A    
C108  O75   1.223558 D    
N4    O60   1.302073 A    
C81   C85   1.362204 A    
C84   H16   1.082996 S    
C87   C91   1.386851 A    
C46   C50   1.414306 A    
N11   O81   1.301510 A    
C107  O73   1.224969 D    
C59   H11   1.080979 S    
C82   C102  1.402828 A    
O30   C14   1.274352 A    
C110  O95   1.223687 D    
N8    O68   1.299244 A    
C60   H12   1.081712 S    
N15   O90   1.296832 A    
C42   C106  1.477829 S    
C95   C99   1.397903 A    
C54   C58   1.399540 A    
C93   C97   1.397918 A    
C37   H1    1.080627 S    
O100  H32   1.014058 S    
N10   O80   1.301187 A    
O21   C9    1.281752 A    
O8    Cr4   1.947943 S    
O23   Cr11  1.946608 S    
N10   O79   1.298365 A    
C70   C110  1.492353 S    
C39   H3    1.068862 S    
C109  O93   1.223639 D    
C50   H6    1.079712 S    
C81   H13   1.082957 S    
C33   N1    1.439589 S    
O32   Cr4   1.955161 S    
C1    O9    1.280064 A    
O44   Cr12  2.071018 S    
O38   Cr6   1.948422 S    
N16   O92   1.297838 A    
C96   C100  1.396103 A    
N17   O102  1.299117 A    
C48   C68   1.408143 A    
C3    O11   1.304556 A    
C15   O35   1.274140 A    
C77   C78   1.412673 A    
C4    O12   1.297033 A    
C83   C87   1.362172 A    
N6    O63   1.302043 A    
N1    O54   1.301719 A    
O47   C23   1.282679 A    
N12   O84   1.302150 A    
N19   O105  1.301528 A    
C38   C44   1.399771 A    
N5    O61   1.302037 A    
O6    Cr2   1.947943 S    
C7    O19   1.273203 A    
C27   C36   1.400546 A    
C81   C101  1.401477 A    
O3    Cr3   2.060995 S    
C111  O97   1.223653 D    
Cr4   O52   1.995679 S    
C26   C33   1.398554 A    
C99   C103  1.410240 A    
C69   C74   1.410984 A    
O2    Cr2   2.075053 S    
C18   C73   1.482979 S    
O14   Cr6   1.955508 S    
C33   C34   1.394352 A    
C44   C108  1.487207 S    
O2    C10   1.278893 A    
C52   C56   1.397895 A    
C84   C88   1.360719 A    
O42   Cr10  2.071018 S    
Cr5   O49   1.994914 S    
N3    O57   1.300250 A    
O18   Cr10  2.070997 S    
O27   C23   1.268976 A    
C112  O99   1.223685 D    
C78   N18   1.437979 S    
O31   Cr3   1.941691 S    
O27   Cr3   2.080279 S    
C58   H10   1.082100 S    
C63   C67   1.405551 A    
C56   C60   1.368999 A    
Cr7   O51   1.994914 S    
C31   C39   1.422222 A    
C14   O34   1.273588 A    
C26   C30   1.446496 A    
C79   C80   1.412713 A    
C95   H23   1.081755 S    
C5    C26   1.492114 S    
N5    O62   1.299157 A    
C85   H17   1.073179 S    
O24   Cr12  1.952445 S    
N19   O106  1.299111 A    
C48   N12   1.441196 S    
C86   C90   1.385010 A    
C1    C56   1.437306 S    
O30   Cr2   1.955161 S    
N4    O59   1.298638 A    
O22   C10   1.293856 A    
C69   C109  1.492370 S    
O48   Cr12  1.950108 S    
C76   C80   1.413875 A    
C2    C55   1.478664 S    
N15   O89   1.302439 A    
C3    C54   1.478949 S    
C59   C63   1.389749 A    
C84   C104  1.402817 A    
O72   H26   1.013165 S    
C39   C41   1.409314 A    
C83   C103  1.401486 A    
C2    O10   1.309669 A    
C13   C92   1.443206 S    
C21   C101  1.449543 S    
O70   H25   1.014103 S    
C110  O96   1.391024 S    
N13   O85   1.299625 A    
O16   Cr8   1.955508 S    
N8    O67   1.302043 A    
C46   N10   1.439722 S    
C4    C53   1.438976 S    
O26   Cr2   2.066306 S    
C9    C65   1.440214 S    
C105  O69   1.224601 D    
Cr10  O50   1.995259 S    
C27   C31   1.444941 A    
O11   Cr7   2.077165 S    
O13   C5    1.267005 A    
C41   C105  1.497725 S    
O40   C20   1.285384 A    
O43   Cr11  2.066467 S    
O48   C24   1.283700 A    
O12   Cr8   2.067493 S    
C20   C75   1.483086 S    
Cr12  O52   1.995259 S    
C98   C102  1.408856 A    
O37   Cr5   1.956247 S    
N7    O65   1.302030 A    
O5    C1    1.264982 A    
N16   O91   1.291198 A    
C97   N5    1.435946 S    
O46   Cr10  1.950108 S    
C70   C73   1.408962 A    
O39   Cr7   1.956247 S    
O25   C21   1.268933 A    
C92   C96   1.404328 A    
O45   Cr9   1.955653 S    
O74   H27   1.013861 S    
O3    C11   1.282096 A    
O8    C4    1.319332 A    
C24   C104  1.447134 S    
C17   C74   1.483523 S    
O13   Cr5   1.947787 S    
N17   O101  1.301531 A    
C61   C65   1.418346 A    
C34   N2    1.435082 S    
N11   O82   1.299872 A    
O7    Cr3   1.961408 S    
O47   Cr11  1.955653 S    
Cr2   O50   1.995679 S    
O15   Cr7   1.947787 S    
O32   C16   1.274358 A    
N9    O78   1.299988 A    
Cr1   O49   1.995684 S    
C94   H22   1.081727 S    
C6    O18   1.278606 A    
C97   C101  1.410199 A    
C57   H9    1.081947 S    
Cr3   O51   1.995684 S    
O26   C22   1.267500 A    
N7    O66   1.299162 A    
N2    O56   1.302201 A    
N18   O104  1.299023 A    
O21   Cr9   1.946608 S    
C86   H18   1.073251 S    
C47   C51   1.413050 A    
C112  O100  1.391004 S    
C53   C57   1.396204 A    
C62   C66   1.409186 A    
C108  O76   1.385820 S    
C45   C49   1.387018 A    
C19   O43   1.280352 A    
C38   H2    1.069366 S    
C64   N16   1.444491 S    
C43   C44   1.420070 A    
C29   C37   1.403281 A    
O94   H29   1.014001 S    
C58   C62   1.390380 A    
C8    C27   1.477820 S    
C46   C66   1.413975 A    
O34   Cr6   2.073927 S    
N14   O87   1.302681 A    
C22   C102  1.447073 S    
C8    O20   1.299859 A    
C40   H4    1.080696 S    
C16   C89   1.446606 S    
O38   C18   1.285368 A    
C88   H20   1.073199 S    
C79   N19   1.437844 S    
C7    C28   1.470264 S    
C88   C92   1.384981 A    
C5    O17   1.303329 A    
C10   C66   1.494790 S    
O37   C17   1.288448 A    
O22   Cr10  1.952445 S    
O28   C24   1.267488 A    
N12   O83   1.295879 A    
O14   C6    1.283783 A    
N20   O108  1.299027 A    
C72   C112  1.492302 S    
C90   C94   1.404357 A    
C63   N15   1.421677 S    
C64   C68   1.431207 A    
C99   N7    1.436004 S    
N2    O55   1.294163 A    
O17   Cr9   2.075261 S    
C23   C103  1.449506 S    
C106  O71   1.223175 D    
C87   H19   1.073201 S    
C100  N8    1.436193 S    
O24   C12   1.326096 A    
C28   C35   1.407464 A    
C17   O41   1.280353 A    
C51   H7    1.078195 S    
C60   C64   1.380230 A    
O5    Cr1   1.961408 S    
C41   C42   1.409204 A    
C91   C95   1.403792 A    
O25   Cr1   2.080279 S    
C75   C79   1.414959 A    
O40   Cr8   1.948422 S    
C35   C36   1.391748 A    
C98   N6    1.436236 S    
C25   C34   1.389876 A    
C100  C104  1.408860 A    
O98   H31   1.014011 S    
O1    Cr1   2.060995 S    
C47   C67   1.412807 A    
C55   C59   1.396427 A    
C32   C40   1.411034 A    
C71   C76   1.410935 A    
C12   C68   1.457195 S    
C36   N4    1.446948 S    
C106  O72   1.392249 S    
C111  O98   1.391356 S    
O41   Cr9   2.066467 S    
O9    Cr5   2.077165 S    
C47   N11   1.440527 S    
Cr6   O50   1.994930 S    
C45   N9    1.446794 S    
C49   C53   1.380555 A    
C93   H21   1.081750 S    
C43   C107  1.491914 S    
O23   C11   1.290930 A    
O19   Cr11  2.075261 S    
C107  O74   1.388144 S    
C6    C25   1.471853 S    
O33   Cr5   2.064393 S    
C13   O33   1.274163 A    
C83   H15   1.082951 S    
O10   Cr6   2.067493 S    
C45   C65   1.426794 A    
C25   C29   1.405089 A    
C105  O70   1.393247 S    
C50   C54   1.402395 A    
O35   Cr7   2.064393 S    
O4    Cr4   2.075053 S    
C15   C90   1.443236 S    
C62   N14   1.426163 S    
O6    C2    1.312854 A    
C82   H14   1.082999 S    
O29   Cr1   1.941691 S    
C94   C98   1.396108 A    
C48   C52   1.393419 A    
C16   O36   1.273579 A    
C57   C61   1.402675 A    
N18   O103  1.301543 A    
C30   C38   1.410704 A    
Cr8   O52   1.994930 S    
N1    O53   1.299832 A    
C74   C78   1.413936 A    
O28   Cr4   2.066306 S    
C35   N3    1.429746 S    
O76   H28   1.014052 S    
N3    O58   1.296363 A    
O29   C13   1.271554 A    
C14   C91   1.446569 S    
C77   N17   1.437868 S    
C49   H5    1.083361 S    
C80   N20   1.438016 S    
C109  O94   1.391332 S    
C89   C93   1.403767 A    
O36   Cr8   2.073927 S    
C85   C89   1.386867 A    
O31   C15   1.271576 A    
O16   C8    1.263128 A    
Cr9   O49   1.995626 S    
C96   H24   1.081737 S    
N9    O77   1.295679 A    
C11   C67   1.493812 S    
C52   H8    1.079390 S    
C51   C55   1.407362 A    
