data_mof_unit_52709.cif
_audit_creation_date              2012-12-10T17:33:58-0500
_audit_creation_method            fapswitch 2.2
_symmetry_space_group_name_H-M    P1
_symmetry_Int_Tables_number       1
_space_group_crystal_system       triclinic
_cell_length_a                    10.72536
_cell_length_b                    12.04168
_cell_length_c                    12.890354
_cell_angle_alpha                 93.176195
_cell_angle_beta                  91.786417
_cell_angle_gamma                 86.205297
_cell_volume                      1657.97267439

loop_
_atom_site_label
_atom_site_type_symbol
_atom_type_description
_atom_site_fract_x
_atom_site_fract_y
_atom_site_fract_z
_atom_type_partial_charge
C1    C     C_R   0.492660 0.521870 0.700452 0.942250
C2    C     C_R   0.538634 0.446261 0.974722 0.097372
C3    C     C_R   0.528228 0.553131 0.026438 0.027229
C4    C     C_R   0.742161 0.500604 0.499656 1.068049
C5    C     C_R   0.542002 0.562735 0.133890 0.417276
C6    C     C_R   0.543109 0.361081 0.139621 -0.370939
C7    C     C_R   0.556413 0.349405 0.032587 -0.007273
C8    C     C_R   0.393709 0.956571 0.395658 -0.243124
C9    C     C_R   0.402321 0.840304 0.403738 0.104843
C10   C     C_R   0.541881 0.858945 0.550997 0.085262
C11   C     C_R   0.539520 0.976646 0.540564 0.047272
C12   C     C_3   0.121462 0.502884 0.502303 -0.161335
C13   C     C_R   0.461875 0.024883 0.463273 0.022713
C14   C     C_R   0.454029 0.141399 0.454711 -0.123636
C15   C     C_R   0.604023 0.163666 0.592025 0.614977
C16   C     C_R   0.509867 0.478642 0.300034 0.954952
C17   C     C_R   0.614150 0.047620 0.603052 -0.349941
C18   C     C_R   0.257988 0.500587 0.501357 1.006759
C19   C     C_3   0.934080 0.483560 0.611710 0.104707
C20   C     C_3   0.078374 0.460856 0.608322 0.646947
C21   C     C_3   0.933166 0.410922 0.417204 0.684619
C22   C     C_3   0.917222 0.622627 0.469526 0.678813
C23   C     C_3   0.077002 0.421851 0.411500 0.044778
C24   C     C_3   0.878692 0.503072 0.498916 -0.200574
C25   C     C_2   0.582079 0.234713 0.986529 0.417193
C26   C     C_2   0.396807 0.736537 0.819739 0.521669
C27   C     C_2   0.326655 0.773330 0.328672 0.460267
C28   C     C_2   0.609708 0.808441 0.640379 0.443276
C29   C     C_2   0.104417 0.716379 0.559397 0.615166
C30   C     C_3   0.062233 0.624514 0.481822 -0.411336
C31   C     C_R   0.531199 0.467086 0.189639 -0.077165
C32   C     C_R   0.490301 0.534823 0.812775 -0.086248
C33   C     C_R   0.489856 0.647718 0.972214 -0.255607
C34   C     C_R   0.462922 0.638557 0.866512 -0.022588
C35   C     C_R   0.523043 0.439523 0.867627 -0.184407
H1    H     H_    0.098608 0.648621 0.406999 0.161471
H2    H     H_    0.891421 0.329013 0.629540 0.442338
H3    H     H_    0.902208 0.363439 0.270692 0.338628
H4    H     H_    0.121970 0.393885 0.266406 0.340625
H5    H     H_    0.609404 0.709038 0.141385 0.344224
H6    H     H_    0.548050 0.164489 0.024009 0.073935
H7    H     H_    0.411082 0.819732 0.852904 0.088937
H8    H     H_    0.728607 0.190262 0.701797 0.353500
H9    H     H_    0.305183 0.689943 0.342837 0.120480
H10   H     H_    0.661265 0.729195 0.631590 0.163520
H11   H     H_    0.108228 0.487367 0.757531 0.368197
H12   H     H_    0.544703 0.287237 0.184265 0.182504
H13   H     H_    0.195434 0.334722 0.643917 0.362837
H14   H     H_    0.943806 0.247507 0.396645 0.322020
H15   H     H_    0.934463 0.614542 0.315597 0.389450
H16   H     H_    0.865078 0.778797 0.506030 0.357307
H17   H     H_    0.166515 0.776644 0.534214 0.038817
H18   H     H_    0.468894 0.727360 0.013510 0.172086
H19   H     H_    0.532063 0.359289 0.826187 0.228870
H20   H     H_    0.392736 0.179528 0.396517 0.142763
H21   H     H_    0.915210 0.562226 0.659471 0.221234
H22   H     H_    0.333596 0.994195 0.336255 0.183646
H23   H     H_    0.682157 0.014659 0.658755 0.206458
H24   H     H_    0.125869 0.337905 0.420654 0.158776
N1    N     N_R   0.523380 0.207800 0.519350 -0.117619
N2    N     N_R   0.476620 0.792180 0.480650 -0.183740
O1    O     O_R   0.506240 0.421700 0.658830 -0.591027
O2    O     O_3   0.872285 0.425366 0.319560 -0.739403
O3    O     O_3   0.109405 0.460185 0.315153 -0.781148
O4    O     O_3   0.559837 0.664585 0.185506 -0.716482
O5    O     O_2   0.648010 0.216439 0.911215 -0.552770
O6    O     O_2   0.319412 0.725545 0.749165 -0.504596
O7    O     O_3   0.674473 0.234491 0.653423 -0.694981
O8    O     O_2   0.284926 0.812107 0.248164 -0.573869
O9    O     O_2   0.605307 0.853923 0.727308 -0.608575
O10   O     O_3   0.136081 0.518687 0.693095 -0.739290
O11   O     O_3   0.109563 0.345232 0.613574 -0.768197
O12   O     O_R   0.491240 0.609310 0.646410 -0.633751
O13   O     O_3   0.910848 0.304054 0.449568 -0.760358
O14   O     O_3   0.873559 0.645599 0.367373 -0.704402
O15   O     O_3   0.860826 0.705769 0.537668 -0.770304
O16   O     O_2   0.069694 0.724910 0.648942 -0.461055
O17   O     O_R   0.692710 0.406190 0.506230 -0.528483
O18   O     O_R   0.677700 0.593810 0.493810 -0.610775
O19   O     O_R   0.508760 0.390690 0.353590 -0.646830
O20   O     O_R   0.493760 0.578300 0.341170 -0.587303
O21   O     O_R   0.322300 0.406190 0.506190 -0.647503
O22   O     O_R   0.307290 0.593810 0.493770 -0.677517
O23   O     O_3   0.875307 0.403082 0.665066 -0.695681
Zn1   Zn    Zn3+2 0.510020 0.374730 0.508290 1.023275
Zn2   Zn    Zn3+2 0.489980 0.625270 0.491710 0.997546

loop_
_geom_bond_atom_site_label_1
_geom_bond_atom_site_label_2
_ccdc_geom_bond_type
C2    C35   A    
C19   H21   S    
C8    C13   A    
C15   N1    A    
C2    C7    A    
C22   O15   S    
C1    O1    A    
C16   C31   S    
C23   H24   S    
H4    O3    S    
C12   C23   S    
C9    C27   S    
C29   C30   S    
C9    N2    A    
C26   O6    D    
C4    C24   S    
C3    C33   A    
C27   H9    S    
C26   C34   S    
C19   C20   S    
C8    C9    A    
C20   O10   S    
O20   Zn2   S    
C27   O8    D    
C17   H23   S    
C6    C31   A    
C13   C14   A    
C35   H19   S    
C22   O14   S    
H13   O11   S    
C33   C34   A    
C33   H18   S    
O1    Zn1   S    
C28   H10   S    
C6    H12   S    
C32   C35   A    
H16   O15   S    
C4    O18   A    
C5    O4    S    
C10   C11   A    
C25   H6    S    
H8    O7    S    
C21   O13   S    
C1    C32   S    
C16   O19   A    
C32   C34   A    
C4    O17   A    
O19   Zn1   S    
C8    H22   S    
C12   C20   S    
C18   O22   A    
H2    O23   S    
H11   O10   S    
O17   Zn1   S    
C23   O3    S    
H5    O4    S    
C21   C23   S    
C22   C24   S    
C10   N2    A    
C19   O23   S    
C26   H7    S    
H3    O2    S    
C10   C28   S    
C15   C17   A    
C11   C17   A    
C22   C30   S    
C12   C30   S    
C19   C24   S    
C28   O9    D    
C25   O5    D    
C3    C5    A    
N1    Zn1   S    
C6    C7    A    
O21   Zn1   S    
C14   N1    A    
C7    C25   S    
C30   H1    S    
C1    O12   A    
C2    C3    A    
H15   O14   S    
C11   C13   A    
C15   O7    S    
C16   O20   A    
C18   O21   A    
C14   H20   S    
O12   Zn2   S    
C21   O2    S    
N2    Zn2   S    
O22   Zn2   S    
C29   O16   D    
C21   C24   S    
C12   C18   S    
H14   O13   S    
C20   O11   S    
O18   Zn2   S    
C5    C31   A    
C29   H17   S    
