data_mof_unit_15426.cif
_audit_creation_date              2012-10-26T21:17:39-0400
_audit_creation_method            fapswitch 2.2
_symmetry_space_group_name_H-M    P1
_symmetry_Int_Tables_number       1
_space_group_crystal_system       triclinic
_cell_length_a                    10.801998
_cell_length_b                    9.093762
_cell_length_c                    7.795109
_cell_angle_alpha                 89.958117
_cell_angle_beta                  89.999083
_cell_angle_gamma                 90.000503
_cell_volume                      765.719580156

loop_
_atom_site_label
_atom_site_type_symbol
_atom_type_description
_atom_site_fract_x
_atom_site_fract_y
_atom_site_fract_z
_atom_type_partial_charge
C1    C     C_R   0.500000 0.220052 0.500026 0.552293
C2    C     C_R   0.065467 0.625221 0.594879 0.025297
C3    C     C_R   0.128599 0.515763 0.499984 0.004910
C4    C     C_R   0.871401 0.515767 0.499973 0.004911
C5    C     C_R   0.063828 0.413735 0.401054 -0.146855
C6    C     C_R   0.936172 0.413737 0.401051 -0.146855
C7    C     C_1   0.500000 0.065361 0.500087 -0.053797
C8    C     C_1   0.500000 0.934604 0.499993 -0.058156
C9    C     C_R   0.500000 0.779943 0.499955 0.533027
C10   C     C_R   0.262020 0.505394 0.500065 0.530155
C11   C     C_R   0.737979 0.505395 0.500062 0.530153
C12   C     C_R   0.129144 0.737451 0.684365 -0.100197
C13   C     C_R   0.870856 0.737464 0.684329 -0.100194
C14   C     C_R   0.064366 0.845530 0.773857 -0.117953
C15   C     C_R   0.935635 0.845537 0.773837 -0.117947
C16   C     C_R   0.934532 0.625226 0.594868 0.025297
Cu1   Cu    Cu3+1 0.500000 0.500000 0.669080 1.006947
Cu2   Cu    Cu3+1 0.500000 0.500000 0.330920 1.019519
H1    H     H_    0.228970 0.745025 0.683561 0.138322
H2    H     H_    0.771031 0.745049 0.683496 0.138307
H3    H     H_    0.112507 0.331348 0.326570 0.130312
H4    H     H_    0.887493 0.331350 0.326565 0.130312
H5    H     H_    0.114306 0.930803 0.841623 0.121480
H6    H     H_    0.885696 0.930817 0.841580 0.121484
N1    N     N_1   0.500000 0.500000 0.076820 -0.079132
N2    N     N_1   0.500000 0.500000 0.923180 -0.080444
O1    O     O_R   0.500000 0.288390 0.642760 -0.492295
O2    O     O_R   0.500000 0.711610 0.642760 -0.514143
O3    O     O_R   0.500000 0.288370 0.357190 -0.495966
O4    O     O_R   0.500000 0.711630 0.357190 -0.493286
O5    O     O_R   0.319650 0.500000 0.642810 -0.507313
O6    O     O_R   0.680350 0.500000 0.642810 -0.507305
O7    O     O_R   0.319630 0.500000 0.357240 -0.500443
O8    O     O_R   0.680370 0.500000 0.357240 -0.500445

loop_
_geom_bond_atom_site_label_1
_geom_bond_atom_site_label_2
_ccdc_geom_bond_type
C14   H5    S    
C4    C16   A    
Cu2   O4    S    
C2    C16   A    
C2    C12   A    
C1    O3    A    
C2    C3    A    
C7    C8    T    
C1    O1    A    
C3    C10   S    
C4    C11   S    
Cu2   O8    S    
Cu2   N1    S    
C9    O4    A    
Cu1   N2    S    
C12   H1    S    
C15   H6    S    
C12   C14   A    
C11   O6    A    
Cu1   Cu2   S    
C10   O7    A    
C13   C15   A    
C5    C6    A    
Cu1   O5    S    
Cu2   O7    S    
Cu1   O1    S    
C5    H3    S    
C4    C6    A    
C13   C16   A    
Cu2   O3    S    
Cu1   O6    S    
C14   C15   A    
C13   H2    S    
N1    N2    T    
C1    C7    S    
Cu1   O2    S    
C10   O5    A    
C11   O8    A    
C9    O2    A    
C8    C9    S    
C3    C5    A    
C6    H4    S    
