data_mof_unit_52279.cif
_audit_creation_date              2012-10-26T20:35:48-0400
_audit_creation_method            fapswitch 2.2
_symmetry_space_group_name_H-M    P1
_symmetry_Int_Tables_number       1
_space_group_crystal_system       triclinic
_cell_length_a                    8.779973
_cell_length_b                    15.918876
_cell_length_c                    17.054565
_cell_angle_alpha                 94.905374
_cell_angle_beta                  93.727184
_cell_angle_gamma                 83.982327
_cell_volume                      2358.07224829

loop_
_atom_site_label
_atom_site_type_symbol
_atom_type_description
_atom_site_fract_x
_atom_site_fract_y
_atom_site_fract_z
_atom_type_partial_charge
C1    C     C_R   0.503475 0.489839 0.348390 0.569997
C2    C     C_R   0.375399 0.161286 0.436408 -0.127131
C3    C     C_R   0.615940 0.749931 0.563335 0.416988
C4    C     C_R   0.384138 0.250053 0.436633 0.416878
C5    C     C_R   0.205948 0.521632 0.500377 0.538967
C6    C     C_R   0.794053 0.478369 0.499632 0.538980
C7    C     C_2   0.041291 0.530444 0.488403 -0.038719
C8    C     C_2   0.958710 0.469566 0.511626 -0.038769
C9    C     C_R   0.503153 0.486175 0.261215 -0.010500
C10   C     C_R   0.496880 0.513821 0.738785 -0.010489
C11   C     C_R   0.512052 0.562269 0.226311 -0.094413
C12   C     C_R   0.496537 0.510159 0.651610 0.570045
C13   C     C_R   0.487910 0.437730 0.773685 -0.094390
C14   C     C_R   0.487223 0.567386 0.144957 0.038790
C15   C     C_R   0.512745 0.432600 0.855037 0.038792
C16   C     C_R   0.457668 0.493560 0.097197 0.177824
C17   C     C_R   0.542371 0.506414 0.902802 0.177816
C18   C     C_R   0.454055 0.417008 0.130667 -0.132371
C19   C     C_R   0.546067 0.582963 0.869337 -0.132386
C20   C     C_R   0.482609 0.411239 0.211608 -0.025448
C21   C     C_R   0.517518 0.588744 0.788398 -0.025453
C22   C     C_2   0.977717 0.597542 0.436003 0.215724
C23   C     C_R   0.434922 0.756910 0.452872 0.092109
C24   C     C_2   0.022265 0.402508 0.564075 0.215527
C25   C     C_2   0.512725 0.349820 0.889192 0.288822
C26   C     C_2   0.487184 0.650165 0.110793 0.288810
C27   C     C_2   0.497387 0.324986 0.239115 0.291365
C28   C     C_2   0.502861 0.674999 0.760896 0.291277
C29   C     C_2   0.660058 0.285645 0.610627 0.315562
C30   C     C_2   0.339876 0.714356 0.389395 0.315578
C31   C     C_2   0.643697 0.105932 0.610914 0.339063
C32   C     C_2   0.356211 0.894062 0.389104 0.339058
C33   C     C_3   0.849984 0.718187 0.631464 -0.033123
C34   C     C_R   0.565038 0.243090 0.547140 0.092120
C35   C     C_3   0.937205 0.648707 0.677376 -0.336878
C36   C     C_3   0.149996 0.282067 0.368775 -0.032863
C37   C     C_3   0.062974 0.351495 0.322727 -0.336840
C38   C     C_R   0.443382 0.845634 0.451294 0.008904
C39   C     C_R   0.556583 0.154363 0.548709 0.008903
C40   C     C_R   0.538966 0.887330 0.508162 0.128335
C41   C     C_R   0.461065 0.112663 0.491812 0.128305
C42   C     C_R   0.624695 0.838702 0.563543 -0.127239
Cu1   Cu    Cu3+1 0.492520 0.415770 0.496210 1.058488
Cu2   Cu    Cu3+1 0.507480 0.584230 0.503790 1.058619
H1    H     H_    0.463014 0.381453 0.737148 0.230022
H2    H     H_    0.453648 0.656555 0.049107 0.135822
H3    H     H_    0.417914 0.280164 0.215351 0.113307
H4    H     H_    0.582427 0.719780 0.784651 0.113187
H5    H     H_    0.737729 0.329778 0.598469 0.128009
H6    H     H_    0.262170 0.670245 0.401562 0.128019
H7    H     H_    0.586313 0.063707 0.643155 0.141310
H8    H     H_    0.413562 0.936282 0.356841 0.141336
H9    H     H_    0.861169 0.779222 0.667110 0.139800
H10   H     H_    0.903773 0.718783 0.574136 0.128711
H11   H     H_    0.922794 0.585671 0.646410 0.178569
H12   H     H_    0.536887 0.618557 0.262844 0.230030
H13   H     H_    0.061236 0.657907 0.683270 0.161841
H14   H     H_    0.892755 0.650604 0.737105 0.150892
H15   H     H_    0.096492 0.281835 0.426215 0.128721
H16   H     H_    0.138225 0.220951 0.333385 0.139794
H17   H     H_    0.107010 0.349199 0.262886 0.150911
H18   H     H_    0.938832 0.342611 0.317132 0.161799
H19   H     H_    0.078065 0.414577 0.353400 0.178530
H20   H     H_    0.436166 0.360491 0.092365 0.119406
H21   H     H_    0.564020 0.639470 0.907643 0.119424
H22   H     H_    0.695866 0.871193 0.607847 0.121859
H23   H     H_    0.304286 0.128809 0.392065 0.121977
H24   H     H_    0.016248 0.660328 0.445236 0.109004
H25   H     H_    0.983638 0.339742 0.554925 0.108959
H26   H     H_    0.546264 0.343416 0.950875 0.135814
N1    N     N_2   0.439533 0.493428 0.014555 -0.261377
N2    N     N_2   0.560505 0.506540 0.985444 -0.261350
N3    N     N_R   0.518730 0.710760 0.509500 -0.241618
N4    N     N_R   0.481270 0.289240 0.490500 -0.241658
N5    N     N_2   0.558415 0.976257 0.510003 -0.234521
N6    N     N_2   0.441617 0.023736 0.489964 -0.234575
O1    O     O_R   0.493000 0.421040 0.382520 -0.410642
O2    O     O_2   0.111687 0.418086 0.620061 -0.487123
O3    O     O_2   0.476294 0.287283 0.848645 -0.454650
O4    O     O_2   0.523562 0.712713 0.151334 -0.454658
O5    O     O_2   0.604946 0.301051 0.283490 -0.471390
O6    O     O_2   0.395301 0.698988 0.716542 -0.471423
O7    O     O_2   0.652890 0.270857 0.679289 -0.473818
O8    O     O_2   0.347045 0.729131 0.320731 -0.473840
O9    O     O_2   0.780925 0.110725 0.624574 -0.456078
O10   O     O_2   0.218976 0.889269 0.375476 -0.456099
O11   O     O_3   0.694472 0.702129 0.620322 -0.521087
O12   O     O_R   0.507000 0.578960 0.617480 -0.410622
O13   O     O_3   0.305676 0.297808 0.379603 -0.521220
O14   O     O_R   0.505640 0.563310 0.388930 -0.522215
O15   O     O_R   0.494360 0.436690 0.611070 -0.522232
O16   O     O_R   0.269980 0.445280 0.497530 -0.448391
O17   O     O_R   0.730020 0.554720 0.502470 -0.448217
O18   O     O_R   0.282610 0.587550 0.503940 -0.557881
O19   O     O_R   0.717390 0.412450 0.496060 -0.557870
O20   O     O_2   0.888380 0.581982 0.379975 -0.487133

loop_
_geom_bond_atom_site_label_1
_geom_bond_atom_site_label_2
_ccdc_geom_bond_type
C36   O13   S    
C13   H1    S    
C3    C42   A    
C1    O14   A    
C31   O9    D    
C1    O1    A    
C12   O15   A    
Cu1   Cu2   S    
C36   H15   S    
C5    O18   A    
C7    C8    D    
C39   C41   A    
C29   H5    S    
C35   H14   S    
C36   C37   S    
C19   C21   A    
C29   O7    D    
C11   C14   A    
C15   C25   S    
C2    C41   A    
C32   H8    S    
Cu2   O17   S    
C33   C35   S    
Cu1   O19   S    
C32   C38   S    
C4    N4    A    
Cu1   N4    S    
C40   C42   A    
C30   H6    S    
C16   N1    S    
C23   N3    A    
C37   H19   S    
C24   H25   S    
C37   H18   S    
C10   C21   A    
C33   H9    S    
C12   O12   A    
C3    O11   S    
C34   C39   A    
C23   C30   S    
C27   O5    D    
C1    C9    S    
C2    H23   S    
C5    C7    S    
C6    C8    S    
C28   O6    D    
C29   C34   S    
C35   H11   S    
C26   O4    D    
C2    C4    A    
N5    N6    D    
C9    C20   A    
C6    O17   A    
C32   O10   D    
C14   C26   S    
C9    C11   A    
C22   H24   S    
C10   C12   S    
C34   N4    A    
C24   O2    D    
C21   C28   S    
C13   C15   A    
C14   C16   A    
C7    C22   S    
Cu2   O14   S    
C4    O13   S    
C27   H3    S    
C33   H10   S    
C15   C17   A    
C28   H4    S    
C25   O3    D    
C22   O20   D    
C31   H7    S    
C36   H16   S    
C10   C13   A    
C37   H17   S    
C20   C27   S    
Cu1   O1    S    
C23   C38   A    
Cu1   O16   S    
C40   N5    S    
C35   H13   S    
C33   O11   S    
N1    N2    D    
C41   N6    S    
C38   C40   A    
C18   H20   S    
C17   C19   A    
C31   C39   S    
C19   H21   S    
C18   C20   A    
C30   O8    D    
Cu2   N3    S    
C3    N3    A    
Cu1   O15   S    
C5    O16   A    
Cu2   O18   S    
C26   H2    S    
C8    C24   S    
C17   N2    S    
C16   C18   A    
C6    O19   A    
C42   H22   S    
C25   H26   S    
Cu2   O12   S    
C11   H12   S    
