data_mof_unit_54013.cif
_audit_creation_date              2012-12-10T18:57:03-0500
_audit_creation_method            fapswitch 2.2
_symmetry_space_group_name_H-M    P1
_symmetry_Int_Tables_number       1
_space_group_crystal_system       triclinic
_cell_length_a                    10.829491
_cell_length_b                    9.809919
_cell_length_c                    10.829128
_cell_angle_alpha                 89.478082
_cell_angle_beta                  91.625566
_cell_angle_gamma                 89.6744
_cell_volume                      1149.91687926

loop_
_atom_site_label
_atom_site_type_symbol
_atom_type_description
_atom_site_fract_x
_atom_site_fract_y
_atom_site_fract_z
_atom_type_partial_charge
C1    C     C_R   0.259477 0.501188 0.500085 0.887074
C2    C     C_R   0.739906 0.500155 0.495760 0.861348
C3    C     C_R   0.570246 0.070635 0.584262 -0.122256
C4    C     C_R   0.432428 0.073472 0.413195 -0.075997
C5    C     C_R   0.568452 0.926934 0.585398 -0.084116
C6    C     C_R   0.433993 0.929527 0.412504 -0.060960
C7    C     C_R   0.504914 0.499971 0.260366 0.911547
C8    C     C_R   0.511875 0.499191 0.739458 0.904729
C9    C     C_R   0.494629 0.613218 0.059789 -0.010121
C10   C     C_R   0.503546 0.614368 0.936279 0.003303
C11   C     C_R   0.521698 0.498180 0.129980 -0.216022
C12   C     C_R   0.530973 0.498044 0.871101 -0.216156
C13   C     C_R   0.569162 0.381675 0.069579 0.158525
C14   C     C_R   0.572938 0.381251 0.939430 0.132051
C15   C     C_3   0.468185 0.762737 0.922581 0.335357
C16   C     C_3   0.440155 0.755059 0.063421 0.338847
C17   C     C_R   0.063961 0.382500 0.512677 -0.241668
C18   C     C_R   0.937403 0.381615 0.511901 -0.254383
C19   C     C_R   0.871917 0.502538 0.489492 -0.120303
C20   C     C_R   0.126442 0.505362 0.497010 -0.119483
C21   C     C_R   0.932762 0.626390 0.465884 0.168996
C22   C     C_R   0.061023 0.629608 0.476809 0.166501
H1    H     H_    0.112807 0.287031 0.529033 0.175791
H2    H     H_    0.890938 0.286023 0.529121 0.176098
H3    H     H_    0.629846 0.123670 0.648547 0.137783
H4    H     H_    0.378815 0.129145 0.343433 0.125961
H5    H     H_    0.626688 0.871655 0.649939 0.155002
H6    H     H_    0.385048 0.876068 0.340544 0.159270
N1    N     N_R   0.500000 0.857200 0.500000 -0.069086
N2    N     N_R   0.500000 0.142810 0.500000 -0.070711
O1    O     O_R   0.316770 0.614620 0.499990 -0.589618
O2    O     O_R   0.683230 0.614620 0.500010 -0.595924
O3    O     O_R   0.316800 0.385290 0.500000 -0.631664
O4    O     O_R   0.683200 0.385290 0.500000 -0.637146
O5    O     O_R   0.500000 0.614690 0.316780 -0.602808
O6    O     O_R   0.500000 0.614690 0.683220 -0.591233
O7    O     O_R   0.500020 0.385360 0.316780 -0.598347
O8    O     O_R   0.499980 0.385360 0.683220 -0.629733
Zn1   Zn    Zn3+2 0.500000 0.653120 0.500000 0.967614
Zn2   Zn    Zn3+2 0.500000 0.346880 0.500000 0.937277
N3    N     N_2   0.611172 0.264747 0.138523 -0.273985
H7    H     H_    0.595429 0.172560 0.096063 0.230012
C23   C     C_3   0.735146 0.275238 0.190847 -0.707381
H8    H     H_    0.753661 0.187819 0.254744 0.229429
H9    H     H_    0.746246 0.371019 0.243820 0.230525
H10   H     H_    0.803667 0.272955 0.116588 0.221646
N4    N     N_2   0.624795 0.265585 0.881692 -0.308893
H11   H     H_    0.563651 0.209508 0.828803 0.229973
C24   C     C_3   0.745686 0.285525 0.831036 -0.782970
H12   H     H_    0.785614 0.185333 0.806199 0.221053
H13   H     H_    0.808846 0.333775 0.900151 0.240061
H14   H     H_    0.739301 0.351140 0.747161 0.245119
N5    N     N_2   0.573929 0.850482 0.897285 -0.307352
H15   H     H_    0.554809 0.944038 0.856797 0.206342
C25   C     C_3   0.695709 0.793227 0.875872 -0.821234
H16   H     H_    0.762333 0.876823 0.860150 0.223169
H17   H     H_    0.693530 0.725677 0.794430 0.250158
H18   H     H_    0.729375 0.732474 0.956962 0.247645
N6    N     N_2   0.308305 0.757400 0.089756 -0.321137
H19   H     H_    0.258987 0.842020 0.059286 0.207523
C26   C     C_3   0.238731 0.632477 0.107164 -0.827503
H20   H     H_    0.138862 0.656932 0.113430 0.231690
H21   H     H_    0.269282 0.580615 0.194147 0.243861
H22   H     H_    0.250654 0.561218 0.029672 0.244946
N7    N     N_2   0.363210 0.796040 0.838966 -0.293145
H23   H     H_    0.336531 0.897128 0.839075 0.191470
C27   C     C_3   0.262839 0.702809 0.811464 -0.734184
H24   H     H_    0.230886 0.719394 0.714489 0.249703
H25   H     H_    0.183377 0.724556 0.870641 0.223657
H26   H     H_    0.290811 0.594658 0.821522 0.224823
N8    N     N_2   0.506349 0.854254 0.140168 -0.298512
H27   H     H_    0.475143 0.953261 0.129220 0.190457
C28   C     C_3   0.636739 0.842540 0.173522 -0.726173
H28   H     H_    0.652301 0.885313 0.266985 0.240075
H29   H     H_    0.692293 0.903830 0.109228 0.237451
H30   H     H_    0.669761 0.735504 0.176021 0.236244
N9    N     N_2   0.865328 0.740940 0.416308 -0.277542
H31   H     H_    0.865896 0.753368 0.321784 0.207021
C29   C     C_3   0.856435 0.863775 0.488542 -0.774179
H32   H     H_    0.931786 0.935305 0.467166 0.227831
H33   H     H_    0.856740 0.839626 0.589033 0.232188
H34   H     H_    0.769804 0.917496 0.461624 0.238865
N10   N     N_2   0.122395 0.757659 0.480088 -0.277237
H35   H     H_    0.094928 0.821707 0.549076 0.223251
C30   C     C_3   0.141607 0.823654 0.362505 -0.784493
H36   H     H_    0.055897 0.831862 0.305161 0.230351
H37   H     H_    0.209852 0.764563 0.312036 0.277071
H38   H     H_    0.176694 0.928370 0.377708 0.216970

loop_
_geom_bond_atom_site_label_1
_geom_bond_atom_site_label_2
_ccdc_geom_bond_type
C25   H16   S    
C3    N2    A    
N3    C23   S    
N3    H7    S    
C13   N3    S    
C1    O3    A    
N4    C24   S    
N5    H15   S    
C7    C11   S    
C17   H1    S    
C18   H2    S    
C15   N5    S    
C19   C21   A    
C9    C16   S    
O7    Zn2   S    
C10   C15   S    
C8    O6    A    
C15   C16   S    
C15   N7    S    
C1    O1    A    
C17   C20   A    
C2    O2    A    
C18   C19   A    
C28   H28   S    
O2    Zn1   S    
C26   H21   S    
C5    H5    S    
C6    H6    S    
N10   H35   S    
N7    C27   S    
C9    C10   A    
N9    H31   S    
C2    O4    A    
N9    C29   S    
N6    H19   S    
C13   C14   A    
C28   H29   S    
C16   N8    S    
C8    O8    A    
C5    N1    A    
N5    C25   S    
N6    C26   S    
O3    Zn2   S    
C30   H37   S    
C27   H24   S    
C3    H3    S    
C4    C6    A    
C29   H33   S    
C24   H13   S    
C30   H36   S    
C27   H25   S    
C16   N6    S    
C26   H22   S    
O5    Zn1   S    
C23   H8    S    
C9    C11   A    
N4    H11   S    
C8    C12   S    
C24   H14   S    
N1    Zn1   S    
C17   C18   A    
C7    O7    A    
N2    Zn2   S    
C23   H9    S    
C10   C12   A    
N10   C30   S    
C20   C22   A    
N7    H23   S    
C25   H17   S    
C28   H30   S    
O4    Zn2   S    
N8    C28   S    
C30   H38   S    
C1    C20   S    
C2    C19   S    
C7    O5    A    
O6    Zn1   S    
C12   C14   A    
C3    C5    A    
C29   H34   S    
C4    H4    S    
C14   N4    S    
C27   H26   S    
C22   N10   S    
N8    H27   S    
O8    Zn2   S    
C11   C13   A    
O1    Zn1   S    
C26   H20   S    
C23   H10   S    
C29   H32   S    
C6    N1    A    
C24   H12   S    
C25   H18   S    
C21   N9    S    
C21   C22   A    
C4    N2    A    
