data_mof_unit_14497.cif
_audit_creation_date              2012-12-11T17:10:38-0500
_audit_creation_method            fapswitch 2.2
_symmetry_space_group_name_H-M    P1
_symmetry_Int_Tables_number       1
_space_group_crystal_system       triclinic
_cell_length_a                    14.78956
_cell_length_b                    14.884931
_cell_length_c                    14.872873
_cell_angle_alpha                 109.537864
_cell_angle_beta                  109.785699
_cell_angle_gamma                 109.023371
_cell_volume                      2522.41881973

loop_
_atom_site_label
_atom_site_type_symbol
_atom_type_description
_atom_site_fract_x
_atom_site_fract_y
_atom_site_fract_z
_atom_type_partial_charge
C1    C     C_R   0.185398 0.278973 0.253683 -0.141830
C2    C     C_R   0.451116 0.449722 0.776587 0.071788
C3    C     C_R   0.565531 0.196906 0.498473 0.082087
C4    C     C_R   0.198211 0.571340 0.496806 0.066883
C5    C     C_R   0.474358 0.720950 0.406855 -0.146137
C6    C     C_R   0.815491 0.566311 0.592855 -0.134219
C7    C     C_R   0.494369 0.402358 0.195566 -0.162328
C8    C     C_R   0.707073 0.799281 0.803540 -0.166490
C9    C     C_R   0.801488 0.710315 0.805118 -0.114880
C10   C     C_R   0.403917 0.495073 0.194616 -0.142247
C11   C     C_R   0.564023 0.815178 0.591274 -0.128915
C12   C     C_R   0.525373 0.432496 0.746552 -0.145880
C13   C     C_R   0.723176 0.476825 0.408661 -0.122901
C14   C     C_R   0.548156 0.824751 0.497832 0.069503
C15   C     C_R   0.827051 0.555563 0.501333 0.055125
C16   C     C_R   0.433343 0.432139 0.131020 0.082115
C17   C     C_R   0.801976 0.803418 0.868149 0.077666
C18   C     C_R   0.099985 0.597342 0.183189 -0.126546
C19   C     C_R   0.101581 0.623171 0.283368 -0.147918
C20   C     C_R   0.020297 0.547769 0.289601 0.114224
C21   C     C_R   0.936451 0.447130 0.193643 -0.179638
C22   C     C_R   0.935273 0.421747 0.093703 -0.106786
C23   C     C_R   0.504801 0.200819 0.407942 -0.157114
C24   C     C_R   0.017031 0.496687 0.088519 -0.100100
C25   C     C_R   0.928639 0.569107 0.399918 -0.233766
C26   C     C_R   0.930745 0.606160 0.500780 0.053551
C27   C     C_R   0.034423 0.676210 0.599079 0.032226
C28   C     C_R   0.126662 0.672721 0.595915 -0.235336
C29   C     C_R   0.117665 0.610350 0.495300 0.055058
C30   C     C_R   0.023112 0.575025 0.396208 0.030641
C31   C     C_R   0.997618 0.822096 0.695114 -0.140856
C32   C     C_R   0.015390 0.903499 0.790976 -0.100868
C33   C     C_R   0.085641 0.922781 0.894138 -0.084297
C34   C     C_R   0.291197 0.598486 0.589437 -0.133327
C35   C     C_R   0.136541 0.859238 0.901682 -0.124841
C36   C     C_R   0.118936 0.777510 0.805986 -0.177140
C37   C     C_R   0.049669 0.758516 0.701558 0.111415
C38   C     C_R   0.449999 0.344898 0.876263 0.163593
C39   C     C_R   0.405897 0.400695 0.832456 0.034220
C40   C     C_R   0.332383 0.425571 0.861612 -0.200197
C41   C     C_R   0.328275 0.421932 0.953086 -0.207086
C42   C     C_R   0.397083 0.392577 0.014232 0.032452
C43   C     C_R   0.445136 0.340484 0.965727 0.163817
C44   C     C_3   0.557358 0.351214 0.014939 -0.523132
C45   C     C_R   0.595578 0.290065 0.590767 -0.142821
C46   C     C_3   0.563220 0.356716 0.917704 -0.518658
C47   C     C_R   0.547382 0.925163 0.394044 0.169097
C48   C     C_R   0.592761 0.925376 0.493578 0.032375
C49   C     C_R   0.666769 0.027456 0.591355 -0.204440
C50   C     C_R   0.670537 0.122903 0.592010 -0.203749
C51   C     C_R   0.601032 0.115674 0.494614 0.031350
C52   C     C_R   0.551953 0.019325 0.394639 0.163942
C53   C     C_3   0.438814 0.957226 0.295227 -0.529450
C54   C     C_3   0.433274 0.854324 0.294813 -0.529738
C55   C     C_R   0.967469 0.074890 0.121412 0.167198
C56   C     C_R   0.199576 0.504544 0.407160 -0.154836
C57   C     C_R   0.067115 0.074741 0.168010 0.027751
C58   C     C_R   0.062702 0.972651 0.140956 -0.217910
C59   C     C_R   0.968053 0.877057 0.048594 -0.199546
C60   C     C_R   0.878411 0.884428 0.984881 0.026948
C61   C     C_R   0.874201 0.980702 0.031201 0.165847
C62   C     C_3   0.837724 0.042673 0.979801 -0.535918
C63   C     C_3   0.939824 0.145669 0.077922 -0.523621
C64   C     C_R   0.435318 0.527303 0.751005 -0.124847
C65   C     C_R   0.275973 0.184809 0.248953 -0.133283
C66   C     C_R   0.172530 0.175230 0.223818 0.066796
H1    H     H_    0.123777 0.302880 0.250743 0.112356
H2    H     H_    0.878394 0.616441 0.678637 0.117167
H3    H     H_    0.513425 0.337748 0.167579 0.102085
H4    H     H_    0.670099 0.846251 0.831154 0.104830
H5    H     H_    0.854596 0.679011 0.834542 0.088195
H6    H     H_    0.342438 0.518162 0.165640 0.087044
H7    H     H_    0.616956 0.879577 0.676534 0.093378
H8    H     H_    0.700568 0.446218 0.323156 0.093017
H9    H     H_    0.016066 0.476784 0.011110 0.097717
H10   H     H_    0.163124 0.655300 0.178946 0.106933
H11   H     H_    0.166493 0.701340 0.356186 0.115177
H12   H     H_    0.552647 0.374267 0.749233 0.111172
H13   H     H_    0.873210 0.387749 0.196611 0.110396
H14   H     H_    0.871144 0.343790 0.020328 0.112828
H15   H     H_    0.852915 0.532075 0.323368 0.122236
H16   H     H_    0.204527 0.717297 0.672126 0.118476
H17   H     H_    0.944341 0.809580 0.615884 0.116103
H18   H     H_    0.975385 0.952288 0.785333 0.109873
H19   H     H_    0.100662 0.987119 0.968170 0.123174
H20   H     H_    0.190169 0.873754 0.981801 0.107250
H21   H     H_    0.158975 0.729012 0.813501 0.106557
H22   H     H_    0.289556 0.461170 0.824130 0.126489
H23   H     H_    0.485418 0.153549 0.324321 0.100721
H24   H     H_    0.619693 0.429202 0.094149 0.201153
H25   H     H_    0.553732 0.275709 0.015727 0.188640
H26   H     H_    0.628888 0.438100 0.942599 0.203033
H27   H     H_    0.563680 0.284691 0.862999 0.190652
H28   H     H_    0.710399 0.032528 0.669345 0.125193
H29   H     H_    0.716841 0.198059 0.670511 0.124006
H30   H     H_    0.377428 0.975168 0.312927 0.199960
H31   H     H_    0.440853 0.961053 0.222505 0.187839
H32   H     H_    0.368870 0.814657 0.312730 0.197166
H33   H     H_    0.324690 0.659784 0.673589 0.083943
H34   H     H_    0.431351 0.798674 0.221460 0.190872
H35   H     H_    0.135881 0.967781 0.180413 0.129909
H36   H     H_    0.971629 0.801929 0.020149 0.131816
H37   H     H_    0.839232 0.024777 0.901614 0.197299
H38   H     H_    0.760105 0.038636 0.976251 0.190586
H39   H     H_    0.998758 0.185657 0.054657 0.200778
H40   H     H_    0.920810 0.201072 0.130354 0.194223
H41   H     H_    0.656906 0.321810 0.674875 0.084959
H42   H     H_    0.147956 0.475339 0.321483 0.120655
H43   H     H_    0.381801 0.559533 0.761958 0.093020
H44   H     H_    0.297019 0.120415 0.237347 0.092112
H45   H     H_    0.447108 0.696597 0.321488 0.111365
N1    N     N_R   0.291070 0.347930 0.293870 -0.039448
N2    N     N_R   0.708930 0.502750 0.556810 -0.042317
N3    N     N_R   0.502760 0.445970 0.293860 -0.037774
N4    N     N_R   0.652110 0.708890 0.706130 -0.038257
N5    N     N_R   0.708930 0.652070 0.706130 -0.041233
N6    N     N_R   0.445950 0.502780 0.293850 -0.037746
N7    N     N_R   0.502760 0.708900 0.556790 -0.039467
N8    N     N_R   0.652110 0.445950 0.443190 -0.040349
N9    N     N_R   0.554050 0.497220 0.706150 -0.040664
N10   N     N_R   0.497240 0.291100 0.443210 -0.036553
N11   N     N_R   0.347890 0.554050 0.556810 -0.038201
N12   N     N_R   0.554050 0.347900 0.556830 -0.037869
N13   N     N_R   0.291070 0.497250 0.443190 -0.039550
N14   N     N_R   0.497240 0.554030 0.706140 -0.039971
N15   N     N_R   0.347890 0.291110 0.293870 -0.038292
N16   N     N_R   0.445950 0.652100 0.443170 -0.038928
Ni1   Ni    Ni4+2 0.369690 0.500010 0.369700 0.213151
Ni2   Ni    Ni4+2 0.630310 0.499990 0.630300 0.208154
Ni3   Ni    Ni4+2 0.500000 0.369720 0.369720 0.207215
Ni4   Ni    Ni4+2 0.500000 0.630280 0.630280 0.207690
H46   H     H_    0.282517 0.455000 0.982765 0.123980

loop_
_geom_bond_atom_site_label_1
_geom_bond_atom_site_label_2
_ccdc_geom_bond_type
C41   C42   A    
C3    C23   A    
C35   C36   A    
N10   Ni3   S    
C2    C12   A    
C64   H43   S    
C23   N10   A    
C20   C30   S    
C53   C54   S    
C45   N12   A    
C28   C29   A    
C26   C27   A    
C62   C63   S    
N2    Ni2   S    
C18   C24   A    
C56   N13   A    
C7    N3    A    
C36   C37   A    
C1    N1    A    
C38   C39   A    
N4    Ni4   S    
C35   H20   S    
C50   H29   S    
C46   H26   S    
N15   Ni3   S    
N4    N5    A    
N8    Ni3   S    
C31   H17   S    
C18   C19   A    
C19   H11   S    
C33   H19   S    
C56   H42   S    
N7    Ni4   S    
C8    N4    A    
C1    H1    S    
C6    C15   A    
C12   N9    A    
C2    C39   S    
N5    Ni2   S    
C19   C20   A    
N1    Ni1   S    
C44   C46   S    
C12   H12   S    
C23   H23   S    
C49   H28   S    
C63   H39   S    
C57   C66   S    
N1    N15   A    
C4    C29   S    
N13   Ni1   S    
C6    H2    S    
C59   C60   A    
C34   N11   A    
N2    N8    A    
C21   C22   A    
N12   Ni2   S    
C53   H30   S    
C25   H15   S    
N3    Ni3   S    
C54   H34   S    
C13   N8    A    
C2    C64   A    
C1    C66   A    
C62   H38   S    
C36   H21   S    
C32   H18   S    
C4    C34   A    
N10   N12   A    
C28   H16   S    
N9    Ni2   S    
C11   H7    S    
C11   C14   A    
C3    C51   S    
N9    N14   A    
C15   C26   S    
C14   C48   S    
C5    H45   S    
C53   H31   S    
C58   C59   A    
C3    C45   A    
C51   C52   A    
C55   C63   S    
C60   C61   A    
C43   C44   S    
C6    N2    A    
C29   C30   A    
N14   Ni4   S    
C47   C48   A    
C21   H13   S    
C50   C51   A    
C58   H35   S    
C20   C21   A    
C63   H40   S    
C59   H36   S    
C5    C14   A    
C44   H25   S    
C47   C54   S    
C9    C17   A    
C40   C41   A    
C65   C66   A    
C13   C15   A    
C49   C50   A    
C22   C24   A    
C42   C43   A    
N11   N13   A    
N16   Ni1   S    
C16   C42   S    
N11   Ni4   S    
C39   C40   A    
C44   H24   S    
C52   C53   S    
C62   H37   S    
C25   C30   A    
C7    C16   A    
C18   H10   S    
C5    N16   A    
C9    N5    A    
C31   C32   A    
C9    H5    S    
C7    H3    S    
C41   H46   S    
C24   H9    S    
C47   C52   A    
C34   H33   S    
C8    H4    S    
C8    C17   A    
C32   C33   A    
C40   H22   S    
C55   C57   A    
C25   C26   A    
C22   H14   S    
C38   C43   A    
C10   N6    A    
C10   C16   A    
C65   N15   A    
C57   C58   A    
C46   H27   S    
C27   C37   S    
C48   C49   A    
C55   C61   A    
C33   C35   A    
C61   C62   S    
N6    Ni1   S    
C65   H44   S    
C38   C46   S    
N3    N6    A    
C17   C60   S    
C31   C37   A    
C13   H8    S    
C64   N14   A    
N7    N16   A    
C27   C28   A    
C54   H32   S    
C11   N7    A    
C4    C56   A    
C45   H41   S    
C10   H6    S    
