data_mof_unit_28514.cif
_audit_creation_date              2012-12-10T17:32:21-0500
_audit_creation_method            fapswitch 2.2
_symmetry_space_group_name_H-M    P1
_symmetry_Int_Tables_number       1
_space_group_crystal_system       triclinic
_cell_length_a                    12.328498
_cell_length_b                    13.063879
_cell_length_c                    15.043961
_cell_angle_alpha                 77.667834
_cell_angle_beta                  101.094348
_cell_angle_gamma                 116.5237
_cell_volume                      2104.81704405

loop_
_atom_site_label
_atom_site_type_symbol
_atom_type_description
_atom_site_fract_x
_atom_site_fract_y
_atom_site_fract_z
_atom_type_partial_charge
C1    C     C_R   0.855049 0.285261 0.508307 0.827545
C2    C     C_R   0.989933 0.584243 0.075754 -0.033101
C3    C     C_R   0.012800 0.306402 0.083357 -0.290097
C4    C     C_R   0.008417 0.303716 0.991144 0.663843
C5    C     C_R   0.994105 0.392060 0.924531 -0.001050
C6    C     C_R   0.993079 0.488151 0.953829 -0.094887
C7    C     C_R   0.988126 0.582090 0.889129 -0.017450
C8    C     C_R   0.984429 0.675975 0.917140 0.626504
C9    C     C_R   0.985189 0.678433 0.010019 -0.169896
C10   C     C_R   0.984569 0.389470 0.829655 -0.048510
C11   C     C_R   0.991331 0.489045 0.767609 -0.152306
C12   C     C_R   0.997105 0.496434 0.670872 0.763256
C13   C     C_R   0.990276 0.582649 0.796864 -0.131734
C14   C     C_R   0.277984 0.022675 0.372224 -0.169685
C15   C     C_R   0.227293 0.836321 0.466670 -0.097340
C16   C     C_R   0.815373 0.074800 0.559874 -0.091021
C17   C     C_R   0.733420 0.959015 0.572975 -0.207364
C18   C     C_R   0.611051 0.923979 0.540940 0.586976
C19   C     C_R   0.565931 0.005881 0.494031 -0.044523
C20   C     C_R   0.651124 0.121589 0.469575 0.006457
C21   C     C_R   0.439669 0.975965 0.466883 0.103269
C22   C     C_R   0.402152 0.054089 0.402988 0.151989
C23   C     C_R   0.144906 0.714002 0.486493 0.809835
C24   C     C_R   0.489094 0.161479 0.369233 -0.224050
C25   C     C_R   0.611529 0.194763 0.401764 -0.119852
C26   C     C_R   0.349080 0.871434 0.502956 -0.153713
C27   C     C_R   0.191008 0.913089 0.402481 -0.149481
C28   C     C_R   0.774348 0.159394 0.510555 -0.086577
C29   C     C_R   0.346213 0.327946 0.647662 0.608443
C30   C     C_R   0.758847 0.646384 0.375992 0.804539
C31   C     C_R   0.662154 0.678019 0.349846 -0.299796
C32   C     C_R   0.559139 0.622542 0.396628 -0.208994
C33   C     C_R   0.551315 0.534046 0.470992 0.045551
C34   C     C_R   0.998703 0.497033 0.329472 0.845313
C35   C     C_R   0.653109 0.504837 0.495735 0.095478
C36   C     C_R   0.447065 0.474209 0.521884 -0.138939
C37   C     C_R   0.447012 0.386878 0.596709 -0.138574
C38   C     C_R   0.547637 0.360115 0.619744 0.624818
C39   C     C_R   0.647691 0.418028 0.570573 -0.242263
C40   C     C_R   0.342007 0.497141 0.501937 0.086574
C41   C     C_R   0.247017 0.355632 0.624642 0.020316
C42   C     C_R   0.985745 0.580229 0.168772 -0.228850
C43   C     C_R   0.995909 0.490346 0.233602 -0.081342
C44   C     C_R   0.006718 0.398334 0.207184 -0.044573
C45   C     C_R   0.006064 0.397955 0.113351 -0.021725
C46   C     C_R   0.996762 0.490358 0.047727 0.074345
Cu1   Cu    Cu3+1 0.098270 0.475420 0.521130 0.997437
Cu2   Cu    Cu3+1 0.901730 0.524580 0.478870 0.998545
H1    H     H_    0.975554 0.647329 0.192888 0.167058
H2    H     H_    0.462356 0.220472 0.317809 0.151419
H3    H     H_    0.248769 0.081343 0.322499 0.149374
H4    H     H_    0.370516 0.815099 0.559796 0.222580
H5    H     H_    0.765238 0.893897 0.607309 0.190641
H6    H     H_    0.674834 0.276636 0.369605 0.181295
H7    H     H_    0.169729 0.310709 0.663726 0.141926
H8    H     H_    0.333975 0.561337 0.446180 0.142991
H9    H     H_    0.487539 0.651127 0.373270 0.171001
H10   H     H_    0.667110 0.746107 0.293031 0.188419
H11   H     H_    0.719539 0.391640 0.594501 0.223197
H12   H     H_    0.021628 0.234963 0.130755 0.171530
H13   H     H_    0.991624 0.656441 0.746802 0.202243
H14   H     H_    0.096663 0.887188 0.373617 0.203378
N1    N     N_R   0.246280 0.438190 0.553160 -0.223449
N2    N     N_R   0.754320 0.561190 0.447410 -0.243238
O1    O     O_R   0.972510 0.318130 0.526570 -0.535489
O2    O     O_R   0.806530 0.359650 0.490890 -0.626664
O3    O     O_R   0.082980 0.479210 0.647590 -0.591875
O4    O     O_R   0.917000 0.520730 0.611900 -0.589263
O5    O     O_R   0.193470 0.640350 0.509110 -0.574793
O6    O     O_R   0.027490 0.681870 0.473430 -0.532226
O7    O     O_R   0.083000 0.479270 0.388100 -0.581178
O8    O     O_R   0.917020 0.520790 0.352410 -0.541368
C47   C     C_2   0.943404 0.100098 0.596347 0.429712
H15   H     H_    0.966536 0.078116 0.669002 0.105635
O9    O     O_2   0.022065 0.137496 0.544581 -0.490334
F1    F     F_    0.542217 0.808186 0.547400 -0.685117
F2    F     F_    0.550798 0.277264 0.690929 -0.577500
F3    F     F_    0.342865 0.244047 0.719582 -0.571753
C48   C     C_2   0.013889 0.301019 0.276792 0.397357
H16   H     H_    0.081796 0.269828 0.276128 0.067931
O10   O     O_2   0.942071 0.253430 0.334190 -0.522134
F4    F     F_    0.858317 0.702163 0.329637 -0.675657
F5    F     F_    0.025568 0.216982 0.968975 -0.609858
C49   C     C_2   0.954369 0.281383 0.793120 0.506830
H17   H     H_    0.000019 0.282805 0.737924 0.025365
O11   O     O_2   0.872488 0.190301 0.821312 -0.451277
F6    F     F_    0.983069 0.766931 0.853590 -0.615675
C50   C     C_2   0.985903 0.782221 0.036753 0.515759
H18   H     H_    0.030638 0.809981 0.102325 0.043837
O12   O     O_2   0.937148 0.839140 0.985053 -0.413964

loop_
_geom_bond_atom_site_label_1
_geom_bond_atom_site_label_2
_ccdc_geom_bond_type
C16   C28   A    
C21   C26   A    
C30   N2    A    
C47   H15   S    
C23   O5    A    
C19   C20   A    
C7    C8    A    
C45   C46   A    
C2    C46   A    
C12   O4    A    
C40   N1    A    
C5    C6    A    
C31   H10   S    
C36   C37   A    
C19   C21   A    
C49   O11   D    
C9    C50   S    
Cu1   N1    S    
C38   C39   A    
Cu2   N2    S    
C20   C25   A    
C33   C36   A    
C18   C19   A    
Cu1   O5    S    
C49   H17   S    
C41   H7    S    
C29   F3    S    
C31   C32   A    
C8    C9    A    
C40   H8    S    
C1    C28   S    
C1    O1    A    
C24   C25   A    
C35   N2    A    
C14   C27   A    
C3    H12   S    
C15   C23   S    
C17   H5    S    
C21   C22   A    
C47   O9    D    
C23   O6    A    
C32   H9    S    
Cu2   O8    S    
Cu1   O3    S    
C17   C18   A    
C24   H2    S    
C12   O3    A    
C16   C47   S    
C36   C40   A    
C25   H6    S    
C48   O10   D    
C16   C17   A    
C15   C26   A    
C20   C28   A    
C3    C45   A    
C30   F4    S    
C35   C39   A    
C43   C44   A    
C37   C38   A    
C27   H14   S    
C26   H4    S    
C15   C27   A    
Cu1   Cu2   S    
C39   H11   S    
C1    O2    A    
Cu2   O4    S    
Cu1   O7    S    
C50   O12   D    
C22   C24   A    
C42   C43   A    
C41   N1    A    
C3    C4    A    
C34   O8    A    
C44   C45   A    
C18   F1    S    
C6    C46   A    
C29   C41   A    
C44   C48   S    
C34   C43   S    
Cu2   O6    S    
C4    C5    A    
C11   C12   S    
C6    C7    A    
C38   F2    S    
C8    F6    S    
C32   C33   A    
C14   C22   A    
C5    C10   A    
C11   C13   A    
C30   C31   A    
C4    F5    S    
C2    C42   A    
C10   C49   S    
C33   C35   A    
C10   C11   A    
C42   H1    S    
C48   H16   S    
C7    C13   A    
C13   H13   S    
C50   H18   S    
C14   H3    S    
C29   C37   A    
Cu2   O2    S    
C2    C9    A    
C34   O7    A    
Cu1   O1    S    
