data_mof_unit_29526.cif
_audit_creation_date              2012-12-10T16:39:34-0500
_audit_creation_method            fapswitch 2.2
_symmetry_space_group_name_H-M    P1
_symmetry_Int_Tables_number       1
_space_group_crystal_system       triclinic
_cell_length_a                    16.963002
_cell_length_b                    16.851833
_cell_length_c                    16.836614
_cell_angle_alpha                 64.844787
_cell_angle_beta                  64.903751
_cell_angle_gamma                 65.92183
_cell_volume                      3789.90520122

loop_
_atom_site_label
_atom_site_type_symbol
_atom_type_description
_atom_site_fract_x
_atom_site_fract_y
_atom_site_fract_z
_atom_type_partial_charge
C1    C     C_R   0.324427 0.952798 0.459792 -0.011395
C2    C     C_R   0.328607 0.462935 0.942733 -0.005990
C3    C     C_R   0.542441 0.411266 0.993022 0.013786
C4    C     C_R   0.977051 0.473610 0.596178 0.011672
C5    C     C_R   0.022981 0.526380 0.403806 0.011673
C6    C     C_1   0.252145 0.068750 0.792081 0.190136
C7    C     C_1   0.747847 0.931288 0.207898 0.190129
C8    C     C_1   0.086717 0.777558 0.233710 0.173947
C9    C     C_1   0.913300 0.222436 0.766282 0.173958
C10   C     C_1   0.773683 0.239141 0.084010 0.185842
C11   C     C_1   0.226505 0.760948 0.915744 0.185897
C12   C     C_1   0.173040 0.020196 0.709599 0.184702
C13   C     C_R   0.057598 0.675447 0.532343 0.001819
C14   C     C_1   0.826943 0.979890 0.290347 0.184627
C15   C     C_1   0.701808 0.174877 0.011353 0.182431
C16   C     C_1   0.298214 0.825129 0.988635 0.182448
C17   C     C_1   0.075536 0.666635 0.156194 0.191524
C18   C     C_1   0.924652 0.333295 0.843754 0.191518
C19   C     C_1   0.392045 0.143716 0.748924 0.243454
C20   C     C_1   0.607957 0.856296 0.251076 0.243457
C21   C     C_1   0.132498 0.767590 0.378039 0.284664
C22   C     C_1   0.867506 0.232416 0.621956 0.284677
C23   C     C_1   0.762073 0.383809 0.128706 0.264654
C24   C     C_R   0.942410 0.324553 0.467650 0.001847
C25   C     C_1   0.237894 0.616202 0.871325 0.264745
C26   C     C_1   0.238338 0.883230 0.619125 0.269360
C27   C     C_1   0.761663 0.116800 0.380873 0.269306
C28   C     C_1   0.613103 0.247297 0.873538 0.247700
C29   C     C_1   0.386897 0.752702 0.126470 0.247698
C30   C     C_1   0.135965 0.465470 0.194993 0.211758
C31   C     C_1   0.864068 0.534487 0.805001 0.211763
C32   C     C_R   0.458217 0.976904 0.458815 -0.008125
C33   C     C_R   0.541779 0.023123 0.541173 -0.008129
C34   C     C_R   0.989888 0.448882 0.458294 -0.004612
C35   C     C_R   0.010136 0.551112 0.541693 -0.004609
C36   C     C_R   0.459235 0.461076 0.973074 -0.004670
C37   C     C_R   0.540768 0.538923 0.026930 -0.004670
C38   C     C_R   0.960411 0.179376 0.439370 0.907427
C39   C     C_R   0.675571 0.047222 0.540200 -0.011386
C40   C     C_R   0.039594 0.820625 0.560627 0.907475
C41   C     C_R   0.179065 0.437124 0.965808 0.957146
C42   C     C_R   0.820936 0.562878 0.034188 0.957178
C43   C     C_R   0.436663 0.963503 0.180331 0.913462
C44   C     C_R   0.563338 0.036497 0.819668 0.913462
C45   C     C_R   0.564557 0.821124 0.030947 0.952308
C46   C     C_R   0.435442 0.178876 0.969054 0.952309
C47   C     C_R   0.024417 0.569206 0.821318 0.958682
C48   C     C_R   0.975587 0.430793 0.178681 0.958701
C49   C     C_R   0.820312 0.035352 0.563383 0.920908
C50   C     C_R   0.002323 0.426466 0.318365 -0.044942
C51   C     C_R   0.179688 0.964650 0.436616 0.920910
C52   C     C_R   0.414161 0.959089 0.415341 0.035805
C53   C     C_R   0.585836 0.040931 0.584651 0.035804
C54   C     C_R   0.976852 0.400795 0.415358 0.044088
C55   C     C_R   0.023165 0.599200 0.584632 0.044082
C56   C     C_R   0.414964 0.417839 0.955005 0.052672
C57   C     C_R   0.585038 0.582164 0.044995 0.052664
C58   C     C_R   0.279298 0.941774 0.410714 -0.167605
C59   C     C_R   0.720701 0.058235 0.589283 -0.167608
C60   C     C_R   0.970566 0.392014 0.276357 -0.191894
C61   C     C_R   0.997696 0.573525 0.681627 -0.044960
C62   C     C_R   0.029444 0.607981 0.723638 -0.191901
C63   C     C_R   0.402794 0.275998 0.959403 -0.192058
C64   C     C_R   0.597206 0.724003 0.040599 -0.192058
C65   C     C_R   0.590067 0.061275 0.718262 -0.177947
C66   C     C_R   0.409934 0.938729 0.281737 -0.177938
C67   C     C_R   0.724468 0.594007 0.044074 -0.185362
C68   C     C_R   0.275535 0.405998 0.955920 -0.185366
C69   C     C_R   0.066522 0.720898 0.582848 -0.151275
C70   C     C_R   0.933482 0.279104 0.417148 -0.151264
C71   C     C_R   0.443771 0.074493 0.702149 -0.028981
C72   C     C_R   0.457579 0.328648 0.948368 -0.031713
C73   C     C_R   0.556228 0.925526 0.297845 -0.028979
C74   C     C_R   0.080911 0.702199 0.434220 -0.055848
C75   C     C_R   0.919099 0.297801 0.565773 -0.055849
C76   C     C_R   0.700646 0.439994 0.075228 -0.050750
C77   C     C_R   0.299369 0.560018 0.924750 -0.050789
C78   C     C_R   0.286890 0.950326 0.553630 -0.041022
C79   C     C_R   0.713105 0.049706 0.446358 -0.040995
C80   C     C_R   0.550657 0.293796 0.940975 -0.038583
C81   C     C_R   0.449342 0.706198 0.059038 -0.038586
C82   C     C_R   0.054828 0.488289 0.267770 -0.018948
C83   C     C_R   0.542421 0.671351 0.051639 -0.031710
C84   C     C_R   0.945208 0.511688 0.732218 -0.018935
C85   C     C_R   0.329976 0.915763 0.332324 0.308574
C86   C     C_R   0.670026 0.084241 0.667677 0.308579
C87   C     C_R   0.922690 0.328122 0.332152 0.311369
C88   C     C_R   0.077308 0.671883 0.667846 0.311388
C89   C     C_R   0.310375 0.312209 0.982375 0.293091
C90   C     C_R   0.689626 0.687795 0.017623 0.293085
C91   C     C_R   0.679246 0.012076 0.410839 -0.020487
C92   C     C_R   0.320747 0.987965 0.589141 -0.020497
C93   C     C_R   0.949194 0.451077 0.692583 -0.002048
C94   C     C_R   0.539526 0.055811 0.671207 -0.007779
C95   C     C_R   0.050856 0.548901 0.307399 -0.002046
C96   C     C_R   0.413294 0.675429 0.019347 -0.009968
C97   C     C_R   0.586708 0.324567 0.980662 -0.009956
C98   C     C_R   0.599912 0.953132 0.333991 -0.012221
C99   C     C_R   0.400084 0.046897 0.665996 -0.012222
C100  C     C_R   0.338015 0.603268 0.950910 -0.002990
C101  C     C_R   0.662011 0.396746 0.049055 -0.002982
C102  C     C_R   0.936495 0.342673 0.609788 -0.009828
C103  C     C_R   0.063530 0.657319 0.390201 -0.009827
C104  C     C_R   0.731014 0.984854 0.330322 -0.057780
C105  C     C_R   0.460474 0.944202 0.328788 -0.007784
C106  C     C_R   0.268975 0.015200 0.669649 -0.057764
C107  C     C_R   0.928531 0.367642 0.747411 -0.053748
C108  C     C_R   0.071551 0.632324 0.252567 -0.053713
C109  C     C_R   0.336397 0.730283 0.989231 -0.060591
C110  C     C_R   0.663625 0.269726 0.010748 -0.060579
C111  C     C_R   0.692209 0.955025 0.292391 -0.060287
C112  C     C_R   0.307783 0.045017 0.707588 -0.060296
C113  C     C_R   0.300974 0.696514 0.951751 -0.059958
C114  C     C_R   0.699085 0.303514 0.048174 -0.060038
C115  C     C_R   0.923886 0.312403 0.706881 -0.063322
C116  C     C_R   0.671397 0.537073 0.057258 -0.006006
C117  C     C_R   0.076159 0.687579 0.293104 -0.063326
C118  C     C_R   0.549355 0.978938 0.415658 0.017922
C119  C     C_R   0.450641 0.021092 0.584328 0.017924
C120  C     C_R   0.968092 0.421325 0.554779 0.021616
C121  C     C_R   0.031935 0.578667 0.445207 0.021616
C122  C     C_R   0.417460 0.550799 0.978064 0.020752
C123  C     C_R   0.582548 0.449203 0.021931 0.020758
C124  C     C_R   0.590472 0.003557 0.456350 0.018938
C125  C     C_R   0.409524 0.996475 0.543634 0.018938
C126  C     C_R   0.457563 0.588731 0.006983 0.013786
Cl1   Cl    Cl    0.340406 0.803263 0.346793 -0.583368
Cl2   Cl    Cl    0.659589 0.196741 0.653209 -0.583356
Cl3   Cl    Cl    0.813403 0.351972 0.329217 -0.578297
Cl4   Cl    Cl    0.186563 0.648099 0.670817 -0.578350
Cl5   Cl    Cl    0.239584 0.241108 0.069845 -0.566254
Cl6   Cl    Cl    0.760416 0.758897 0.930155 -0.566257
N1    N     N_1   0.207003 0.087989 0.859100 -0.149658
N2    N     N_1   0.267883 0.900375 0.988461 -0.166300
N3    N     N_1   0.077233 0.693538 0.080017 -0.181292
N4    N     N_1   0.923055 0.306360 0.919903 -0.181168
N5    N     N_1   0.351327 0.199438 0.785537 -0.157648
N6    N     N_1   0.648678 0.800570 0.214470 -0.157641
N7    N     N_1   0.171122 0.822118 0.331500 -0.092107
N8    N     N_1   0.828876 0.177893 0.668496 -0.092107
N9    N     N_1   0.813621 0.336950 0.168863 -0.080872
N10   N     N_1   0.186305 0.663059 0.831217 -0.080826
N11   N     N_1   0.199299 0.830116 0.671645 -0.107962
N12   N     N_1   0.792990 0.912044 0.140881 -0.149669
N13   N     N_1   0.800706 0.169914 0.328361 -0.108024
N14   N     N_1   0.664492 0.209188 0.820842 -0.105735
N15   N     N_1   0.335506 0.790816 0.179162 -0.105736
N16   N     N_1   0.202661 0.446000 0.138964 -0.183244
N17   N     N_1   0.797369 0.553941 0.861034 -0.183260
N18   N     N_1   0.095052 0.848997 0.185333 -0.153097
N19   N     N_1   0.904938 0.151009 0.814668 -0.153096
N20   N     N_1   0.832838 0.186254 0.112198 -0.159530
N21   N     N_1   0.167465 0.813889 0.887404 -0.159668
N22   N     N_1   0.096701 0.024221 0.741294 -0.169990
N23   N     N_1   0.903277 0.975889 0.258630 -0.169963
N24   N     N_1   0.732139 0.099630 0.011533 -0.166301
O1    O     O_R   0.982940 0.138950 0.510160 -0.645590
O2    O     O_R   0.982940 0.510160 0.138950 -0.634748
O3    O     O_R   0.861050 0.017060 0.489840 -0.642230
O4    O     O_R   0.138950 0.982940 0.510160 -0.642235
O5    O     O_R   0.867700 0.025880 0.612340 -0.589594
O6    O     O_R   0.132300 0.974120 0.387660 -0.589596
O7    O     O_R   0.025880 0.612340 0.867700 -0.582881
O8    O     O_R   0.974120 0.387660 0.132300 -0.582901
O9    O     O_R   0.612340 0.867700 0.025880 -0.559413
O10   O     O_R   0.387660 0.132300 0.974120 -0.559411
O11   O     O_R   0.387660 0.974120 0.132300 -0.575885
O12   O     O_R   0.017060 0.861050 0.489840 -0.645599
O13   O     O_R   0.612340 0.025880 0.867700 -0.575884
O14   O     O_R   0.132300 0.387660 0.974120 -0.561118
O15   O     O_R   0.867700 0.612340 0.025880 -0.561130
O16   O     O_R   0.974120 0.132300 0.387660 -0.586433
O17   O     O_R   0.025880 0.867700 0.612340 -0.586412
O18   O     O_R   0.138950 0.510160 0.982940 -0.646761
O19   O     O_R   0.861050 0.489840 0.017060 -0.646758
O20   O     O_R   0.510160 0.982940 0.138950 -0.640229
O21   O     O_R   0.489840 0.017060 0.861050 -0.640225
O22   O     O_R   0.489840 0.861050 0.017060 -0.646318
O23   O     O_R   0.510160 0.138950 0.982940 -0.646319
O24   O     O_R   0.017060 0.489840 0.861050 -0.634759
Zn1   Zn    Zn3+2 0.004880 0.004880 0.583590 1.046863
Zn2   Zn    Zn3+2 0.995120 0.995120 0.416410 1.046849
Zn3   Zn    Zn3+2 0.004880 0.583590 0.004880 1.072526
Zn4   Zn    Zn3+2 0.995120 0.416410 0.995120 1.072536
Zn5   Zn    Zn3+2 0.583590 0.004880 0.004880 1.067658
Zn6   Zn    Zn3+2 0.416410 0.995120 0.995120 1.067661

loop_
_geom_bond_atom_site_label_1
_geom_bond_atom_site_label_2
_ccdc_geom_bond_type
C41   O18   A    
C38   C70   S    
C122  C126  A    
C1    C78   A    
C5    C121  A    
C80   C97   A    
C4    C120  A    
C19   C71   S    
C25   N10   T    
C64   C90   A    
C91   C104  A    
C16   N2    T    
C92   C125  A    
C47   C62   S    
C24   C70   A    
O20   Zn5   S    
C71   C94   A    
C106  C112  A    
C101  C123  A    
C13   C69   A    
C38   O16   A    
C77   C100  A    
C25   C77   S    
O15   Zn3   S    
O6    Zn2   S    
C6    N1    T    
C2    C68   A    
C42   O19   A    
C62   C88   A    
C40   O17   A    
C31   N17   T    
C24   C54   A    
C22   N8    T    
C51   O4    A    
C28   N14   T    
C51   O6    A    
C20   N6    T    
C44   O13   A    
C32   C52   A    
C10   N20   T    
C102  C115  A    
C5    C95   A    
C37   C123  A    
C73   C105  A    
C33   C119  A    
C27   N13   T    
C56   C72   A    
C17   N3    T    
C75   C102  A    
C57   C83   A    
C98   C118  A    
C98   C111  A    
C88   Cl4   S    
C41   C68   S    
O2    Zn3   S    
C110  C114  A    
C79   C91   A    
C10   C114  S    
C109  C113  A    
C47   O7    A    
C4    C35   A    
O17   Zn1   S    
O3    Zn2   S    
C34   C120  A    
C101  C114  A    
C15   C110  S    
C44   C65   S    
C103  C117  A    
O1    Zn1   S    
C22   C75   S    
C66   C85   A    
C11   C113  S    
C70   C87   A    
C108  C117  A    
C7    N12   T    
C81   C83   A    
C60   C87   A    
C3    C123  A    
C16   C109  S    
C48   C60   S    
C57   C116  A    
C33   C53   A    
C73   C98   A    
C40   C69   S    
C86   Cl2   S    
C9    C115  S    
C65   C86   A    
C8    C117  S    
C95   C108  A    
C17   C108  S    
C32   C118  A    
C81   C96   A    
C11   N21   T    
C78   C92   A    
O11   Zn6   S    
C48   O2    A    
C21   C74   S    
C35   C55   A    
O9    Zn5   S    
O21   Zn6   S    
C39   C79   A    
C32   C125  A    
C30   C82   S    
C8    N18   T    
C67   C116  A    
C64   C83   A    
C29   C81   S    
C47   O24   A    
O8    Zn4   S    
C33   C124  A    
C43   O20   A    
C3    C97   A    
C14   C104  S    
C35   C121  A    
C19   N5    T    
C39   C59   A    
C5    C34   A    
C63   C89   A    
C14   N23   T    
C68   C89   A    
C96   C126  A    
C51   C58   S    
C118  C124  A    
C18   C107  S    
C18   N4    T    
C107  C115  A    
C15   N24   T    
C69   C88   A    
C45   O22   A    
O23   Zn5   S    
C119  C125  A    
C92   C106  A    
C65   C94   A    
C52   C105  A    
C34   C54   A    
O12   Zn2   S    
C91   C124  A    
C42   C67   S    
C85   Cl1   S    
C21   N7    T    
C66   C105  A    
C26   N11   T    
C103  C121  A    
C58   C85   A    
O4    Zn1   S    
C102  C120  A    
C50   C82   A    
C37   C126  A    
C41   O14   A    
C76   C101  A    
C9    N19   T    
C82   C95   A    
C46   O10   A    
O14   Zn4   S    
C53   C94   A    
O10   Zn6   S    
C49   O5    A    
C46   O23   A    
C23   N9    T    
C100  C113  A    
C38   O1    A    
C12   N22   T    
C61   C84   A    
C49   C59   S    
C44   O21   A    
C29   N15   T    
C104  C111  A    
C24   C75   A    
C30   N16   T    
C48   O8    A    
C43   O11   A    
C99   C119  A    
C96   C109  A    
C45   C64   S    
C27   C79   S    
C89   Cl5   S    
C46   C63   S    
C50   C60   A    
C87   Cl3   S    
C59   C86   A    
C90   Cl6   S    
C50   C54   A    
C36   C122  A    
C2    C56   A    
C1    C58   A    
C93   C107  A    
C12   C106  S    
C97   C110  A    
C39   C53   A    
C71   C99   A    
C3    C36   A    
C43   C66   S    
C99   C112  A    
C55   C61   A    
C36   C56   A    
C76   C116  A    
C7    C111  S    
C20   C73   S    
C100  C122  A    
C84   C93   A    
C67   C90   A    
O7    Zn3   S    
O5    Zn1   S    
C61   C62   A    
C28   C80   S    
C1    C52   A    
C40   O12   A    
C42   O15   A    
C31   C84   S    
O13   Zn5   S    
C4    C93   A    
O22   Zn6   S    
O16   Zn2   S    
C63   C72   A    
C13   C74   A    
C72   C80   A    
C2    C77   A    
C23   C76   S    
C49   O3    A    
C6    C112  S    
C13   C55   A    
O18   Zn3   S    
C45   O9    A    
C37   C57   A    
O24   Zn4   S    
C26   C78   S    
C74   C103  A    
O19   Zn4   S    
