data_mof_unit_6812.cif
_audit_creation_date              2012-12-10T20:43:36-0500
_audit_creation_method            fapswitch 2.2
_symmetry_space_group_name_H-M    P1
_symmetry_Int_Tables_number       1
_space_group_crystal_system       triclinic
_cell_length_a                    18.590917
_cell_length_b                    18.680464
_cell_length_c                    18.794442
_cell_angle_alpha                 109.463227
_cell_angle_beta                  109.250394
_cell_angle_gamma                 109.11085
_cell_volume                      5060.70582416

loop_
_atom_site_label
_atom_site_type_symbol
_atom_type_description
_atom_site_fract_x
_atom_site_fract_y
_atom_site_fract_z
_atom_type_partial_charge
C1    C     C_R   0.382393 0.502979 0.380497 0.883126
C2    C     C_R   0.744000 0.771878 0.803373 -0.117322
C3    C     C_R   0.934561 0.811891 0.000537 -0.190427
C4    C     C_R   0.927050 0.770486 0.049457 -0.207145
C5    C     C_R   0.001916 0.778684 0.110538 0.131664
C6    C     C_R   0.282381 0.545692 0.953748 -0.209207
C7    C     C_R   0.201058 0.474631 0.886408 -0.093900
C8    C     C_R   0.168629 0.396357 0.888188 0.063529
C9    C     C_R   0.220398 0.388779 0.955985 -0.237568
C10   C     C_R   0.301309 0.460365 0.023915 0.336729
C11   C     C_R   0.332124 0.538845 0.022818 -0.129950
C12   C     C_R   0.077537 0.254936 0.753402 -0.238482
C13   C     C_R   0.824267 0.817291 0.575667 -0.263218
C14   C     C_R   0.996681 0.183943 0.685280 -0.078792
C15   C     C_R   0.917396 0.177601 0.680869 -0.011806
C16   C     C_R   0.921787 0.243157 0.747502 -0.252786
C17   C     C_R   0.002572 0.314569 0.815068 -0.063869
C18   C     C_R   0.081513 0.321760 0.818037 0.008897
C19   C     C_R   0.765927 0.121078 0.564080 -0.164892
C20   C     C_R   0.683417 0.052501 0.496371 -0.132410
C21   C     C_R   0.663701 0.966472 0.472865 -0.111200
C22   C     C_R   0.726198 0.949159 0.517683 -0.131866
C23   C     C_R   0.808466 0.017483 0.586210 -0.100851
C24   C     C_R   0.813864 0.809098 0.495637 -0.078289
C25   C     C_R   0.829748 0.104216 0.608998 0.128625
C26   C     C_R   0.738384 0.739774 0.416891 -0.007972
C27   C     C_R   0.676868 0.676906 0.420554 -0.258809
C28   C     C_R   0.687534 0.685399 0.500357 -0.084117
C29   C     C_R   0.760203 0.756725 0.578682 -0.022444
C30   C     C_R   0.641281 0.722579 0.275962 -0.133985
C31   C     C_R   0.622578 0.711622 0.193409 -0.116671
C32   C     C_R   0.682238 0.708559 0.164329 -0.121717
C33   C     C_R   0.620386 0.619916 0.500073 0.867374
C34   C     C_R   0.760770 0.716698 0.217878 -0.116828
C35   C     C_R   0.779810 0.728102 0.300625 -0.103515
C36   C     C_R   0.720351 0.731150 0.330455 0.127076
C37   C     C_R   0.432401 0.788138 0.543865 -0.155999
C38   C     C_R   0.367220 0.711878 0.465854 -0.082372
C39   C     C_R   0.389002 0.669107 0.406128 0.185412
C40   C     C_R   0.476741 0.703186 0.425765 -0.116634
C41   C     C_R   0.541749 0.778532 0.504561 -0.117738
C42   C     C_R   0.519730 0.821279 0.563370 -0.110466
C43   C     C_R   0.254966 0.583229 0.260727 0.209261
C44   C     C_R   0.618961 0.498458 0.619870 0.901674
C45   C     C_R   0.186231 0.501951 0.188529 -0.139067
C46   C     C_R   0.180485 0.422929 0.183410 -0.015594
C47   C     C_R   0.249128 0.426471 0.245297 -0.197963
C48   C     C_R   0.318001 0.506027 0.315628 -0.112544
C49   C     C_R   0.320409 0.585235 0.326170 -0.071390
C50   C     C_R   0.061229 0.286214 0.151118 -0.225136
C51   C     C_R   0.989294 0.202910 0.093999 -0.270015
C52   C     C_R   0.955097 0.167193 0.003185 0.588220
C53   C     C_R   0.996733 0.217343 0.972958 -0.163374
C54   C     C_R   0.069158 0.300797 0.030585 -0.174300
C55   C     C_R   0.378637 0.380117 0.499000 0.861337
C56   C     C_R   0.101873 0.335899 0.120095 0.153798
C57   C     C_R   0.207008 0.518466 0.568111 -0.143419
C58   C     C_R   0.221340 0.449691 0.568891 -0.152256
C59   C     C_R   0.225151 0.395088 0.499351 0.141271
C60   C     C_R   0.213394 0.409593 0.428654 -0.128441
C61   C     C_R   0.198442 0.478093 0.427883 -0.126825
C62   C     C_R   0.195643 0.532701 0.497692 -0.109311
C63   C     C_R   0.176518 0.255474 0.499397 -0.251930
C64   C     C_R   0.186452 0.184179 0.498009 -0.073582
C65   C     C_R   0.259651 0.177524 0.497687 0.000048
C66   C     C_R   0.725422 0.824591 0.770761 -0.104528
C67   C     C_R   0.321872 0.243308 0.497772 -0.252313
C68   C     C_R   0.311580 0.314216 0.498389 -0.078671
C69   C     C_R   0.238939 0.321432 0.499787 -0.008358
C70   C     C_R   0.344895 0.115080 0.562798 -0.144935
C71   C     C_R   0.357990 0.044672 0.559277 -0.143900
C72   C     C_R   0.299065 0.961376 0.487400 -0.114066
C73   C     C_R   0.226949 0.948362 0.418952 -0.118423
C74   C     C_R   0.213044 0.018426 0.422581 -0.128210
C75   C     C_R   0.271942 0.102300 0.494715 0.131818
C76   C     C_R   0.563282 0.603097 0.859290 -0.175465
C77   C     C_R   0.738410 0.825439 0.701947 -0.082834
C78   C     C_R   0.629116 0.592189 0.845014 -0.108586
C79   C     C_R   0.607912 0.514776 0.775855 0.165581
C80   C     C_R   0.520185 0.448154 0.721744 -0.148607
C81   C     C_R   0.454614 0.459257 0.736454 -0.110138
C82   C     C_R   0.476106 0.536741 0.805006 -0.115373
C83   C     C_R   0.741893 0.499860 0.823528 0.428974
C84   C     C_R   0.812595 0.497639 0.812499 -0.168285
C85   C     C_R   0.816267 0.489463 0.736821 -0.004060
C86   C     C_R   0.749951 0.487032 0.673214 -0.261025
C87   C     C_R   0.682422 0.495147 0.685636 -0.156415
C88   C     C_R   0.766667 0.770571 0.663023 0.129252
C89   C     C_R   0.677912 0.502916 0.761235 -0.140625
C90   C     C_R   0.963370 0.543698 0.743998 0.561638
C91   C     C_R   0.026637 0.525885 0.729033 -0.260497
C92   C     C_R   0.008017 0.440037 0.684090 -0.186498
C93   C     C_R   0.927239 0.371237 0.655648 -0.117344
C94   C     C_R   0.865508 0.387962 0.673849 -0.269182
C95   C     C_R   0.883295 0.474013 0.718728 0.037562
C96   C     C_R   0.997973 0.877155 0.380589 0.867368
C97   C     C_R   0.879880 0.877477 0.497577 0.858703
C98   C     C_R   0.998213 0.118776 0.619656 0.865231
C99   C     C_R   0.785693 0.718055 0.696260 -0.136011
C100  C     C_R   0.120220 0.118880 0.498836 0.869831
C101  C     C_R   0.001757 0.380094 0.881178 0.862355
C102  C     C_R   0.120096 0.500549 0.120822 0.918422
C103  C     C_R   0.998128 0.620147 0.118252 0.914229
C104  C     C_R   0.879775 0.499007 0.879040 0.941750
C105  C     C_R   0.089719 0.757380 0.544395 -0.155828
C106  C     C_R   0.084834 0.773517 0.475899 -0.076747
C107  C     C_R   0.006241 0.724817 0.396632 0.108879
C108  C     C_R   0.933946 0.657394 0.385761 -0.191857
C109  C     C_R   0.938935 0.641692 0.454468 -0.114818
C110  C     C_R   0.776309 0.720379 0.767653 -0.093446
C111  C     C_R   0.016774 0.691593 0.533679 -0.117802
C112  C     C_R   0.999395 0.675404 0.254865 -0.222613
C113  C     C_R   0.998352 0.686210 0.184587 -0.067685
C114  C     C_R   0.998526 0.759855 0.179948 -0.000298
C115  C     C_R   0.996613 0.820262 0.245007 -0.271321
C116  C     C_R   0.998911 0.810449 0.315788 -0.100438
C117  C     C_R   0.002029 0.738283 0.322390 -0.016790
C118  C     C_R   0.083578 0.825018 0.118863 -0.156271
C119  C     C_R   0.090693 0.865789 0.069249 -0.171205
C120  C     C_R   0.016543 0.861422 0.011948 0.335287
H1    H     H_    0.733063 0.770841 0.856164 0.116222
H2    H     H_    0.667592 0.699801 0.100314 0.124169
H3    H     H_    0.806789 0.714037 0.195178 0.144332
H4    H     H_    0.840737 0.734705 0.341585 0.103056
H5    H     H_    0.570416 0.879589 0.624337 0.120830
H6    H     H_    0.415334 0.820889 0.589638 0.120173
H7    H     H_    0.299971 0.685558 0.452295 0.125121
H8    H     H_    0.494821 0.670249 0.381107 0.112816
H9    H     H_    0.609345 0.802788 0.520781 0.121991
H10   H     H_    0.246478 0.366174 0.241108 0.167984
H11   H     H_    0.699186 0.863364 0.797577 0.111876
H12   H     H_    0.085713 0.312028 0.220180 0.147593
H13   H     H_    0.962292 0.167764 0.122454 0.138985
H14   H     H_    0.972646 0.191329 0.903951 0.161440
H15   H     H_    0.099244 0.338271 0.005522 0.128081
H16   H     H_    0.184275 0.585786 0.497031 0.123484
H17   H     H_    0.204441 0.560559 0.621986 0.120640
H18   H     H_    0.229928 0.439225 0.623770 0.114600
H19   H     H_    0.215159 0.367515 0.374085 0.099636
H20   H     H_    0.188641 0.488729 0.373077 0.132651
H21   H     H_    0.721644 0.864895 0.675803 0.109910
H22   H     H_    0.119917 0.259666 0.500272 0.153555
H23   H     H_    0.378715 0.239335 0.497399 0.154625
H24   H     H_    0.391336 0.179454 0.618553 0.127718
H25   H     H_    0.414060 0.054762 0.612072 0.128519
H26   H     H_    0.309507 0.906993 0.484528 0.143689
H27   H     H_    0.182178 0.884000 0.362953 0.157012
H28   H     H_    0.157197 0.007650 0.368932 0.111825
H29   H     H_    0.425234 0.545247 0.816220 0.123985
H30   H     H_    0.579879 0.662929 0.912560 0.125567
H31   H     H_    0.696481 0.643846 0.887657 0.119936
H32   H     H_    0.804879 0.673413 0.665156 0.111484
H33   H     H_    0.502916 0.387668 0.668767 0.103344
H34   H     H_    0.387155 0.407797 0.694770 0.135997
H35   H     H_    0.751904 0.480484 0.614395 0.161441
H36   H     H_    0.090248 0.578578 0.752037 0.128433
H37   H     H_    0.056353 0.426809 0.671455 0.141832
H38   H     H_    0.913118 0.304951 0.620238 0.153452
H39   H     H_    0.803652 0.333999 0.652945 0.144593
H40   H     H_    0.020811 0.678521 0.586335 0.116514
H41   H     H_    0.791438 0.680237 0.793567 0.140682
H42   H     H_    0.150261 0.795341 0.605521 0.118538
H43   H     H_    0.142294 0.823456 0.484371 0.133045
H44   H     H_    0.873863 0.616932 0.324035 0.136306
H45   H     H_    0.882760 0.590230 0.446017 0.132529
H46   H     H_    0.000738 0.618935 0.258252 0.160094
H47   H     H_    0.996028 0.877036 0.241706 0.166211
H48   H     H_    0.142301 0.834229 0.167639 0.159068
H49   H     H_    0.154401 0.904498 0.078737 0.161708
H50   H     H_    0.877419 0.809373 0.957423 0.149151
H51   H     H_    0.880608 0.872794 0.635843 0.168725
H52   H     H_    0.863984 0.737171 0.044064 0.147410
H53   H     H_    0.394645 0.594330 0.075209 0.145638
H54   H     H_    0.306626 0.606241 0.952624 0.136030
H55   H     H_    0.162880 0.480918 0.833588 0.137008
H56   H     H_    0.197586 0.327745 0.956446 0.166810
H57   H     H_    0.137777 0.259149 0.755097 0.158597
H58   H     H_    0.861763 0.239245 0.746150 0.156529
H59   H     H_    0.779962 0.187159 0.580969 0.115893
H60   H     H_    0.634905 0.066103 0.461944 0.135780
H61   H     H_    0.619041 0.622154 0.361003 0.172900
H62   H     H_    0.600024 0.913227 0.420087 0.140386
H63   H     H_    0.710846 0.882649 0.498884 0.132981
H64   H     H_    0.855566 0.002841 0.621236 0.102777
H65   H     H_    0.594317 0.724677 0.297556 0.127199
H66   H     H_    0.561749 0.705323 0.151913 0.124750
O1    O     O_R   0.408360 0.551710 0.460090 -0.617635
O2    O     O_R   0.948280 0.908380 0.356650 -0.622348
O3    O     O_R   0.960110 0.908350 0.551690 -0.615356
O4    O     O_R   0.856660 0.908370 0.448270 -0.611278
O5    O     O_R   0.051720 0.091580 0.643310 -0.619581
O6    O     O_R   0.948270 0.091600 0.539890 -0.614291
O7    O     O_R   0.143340 0.091590 0.551680 -0.613390
O8    O     O_R   0.039890 0.091610 0.448270 -0.624378
O9    O     O_R   0.051730 0.460050 0.908360 -0.616327
O10   O     O_R   0.948290 0.356630 0.908390 -0.637948
O11   O     O_R   0.143340 0.551690 0.091580 -0.573012
O12   O     O_R   0.408400 0.448280 0.356670 -0.599279
O13   O     O_R   0.039900 0.448270 0.091610 -0.630606
O14   O     O_R   0.051710 0.643320 0.091560 -0.602448
O15   O     O_R   0.948270 0.539900 0.091590 -0.625518
O16   O     O_R   0.960100 0.551680 0.908340 -0.598396
O17   O     O_R   0.856660 0.448270 0.908370 -0.619620
O18   O     O_R   0.591600 0.643340 0.551710 -0.611758
O19   O     O_R   0.591630 0.539900 0.448290 -0.618941
O20   O     O_R   0.591600 0.551720 0.643330 -0.604214
O21   O     O_R   0.591640 0.448290 0.539910 -0.631726
O22   O     O_R   0.408370 0.460100 0.551710 -0.608143
O23   O     O_R   0.408400 0.356660 0.448290 -0.623727
O24   O     O_R   0.051730 0.908360 0.460060 -0.618653
Zn1   Zn    Zn3+2 0.499980 0.569060 0.569060 0.985549
Zn2   Zn    Zn3+2 0.500020 0.430940 0.430940 0.979881
Zn3   Zn    Zn3+2 0.069070 0.999960 0.569030 0.969433
Zn4   Zn    Zn3+2 0.930930 0.999990 0.430930 0.969048
Zn5   Zn    Zn3+2 0.069070 0.569030 0.999960 1.024461
Zn6   Zn    Zn3+2 0.930930 0.430930 0.000000 0.953203
Br1   Br    Br    0.257233 0.691645 0.273840 -0.561051
O25   O     O_3   0.885480 0.083431 0.940788 -0.647356
C121  C     C_3   0.830294 0.044669 0.969413 0.067572
H67   H     H_    0.763206 0.002824 0.912899 0.155384
H68   H     H_    0.824297 0.092256 0.018459 0.114963
C122  C     C_3   0.858006 0.986567 0.999857 -0.304246
H69   H     H_    0.859189 0.938353 0.947064 0.262192
H70   H     H_    0.925089 0.025644 0.056345 0.233657
C123  C     C_3   0.795338 0.938496 0.024510 -1.016636
H71   H     H_    0.795109 0.985869 0.079010 0.273079
H72   H     H_    0.816639 0.896358 0.045160 0.270183
H73   H     H_    0.727982 0.896769 0.968138 0.258198
O26   O     O_3   0.741044 0.504926 0.898909 -0.655360
C124  C     C_3   0.668110 0.432329 0.883352 0.127685
H74   H     H_    0.610478 0.442151 0.869081 0.151963
H75   H     H_    0.685542 0.431925 0.945665 0.168538
C125  C     C_3   0.643261 0.341871 0.813947 -0.405758
H76   H     H_    0.622501 0.337352 0.749300 0.208940
H77   H     H_    0.700108 0.330692 0.831272 0.247690
C126  C     C_3   0.567583 0.269376 0.806467 -0.969915
H78   H     H_    0.586178 0.269737 0.869190 0.268791
H79   H     H_    0.550742 0.205250 0.756060 0.261896
H80   H     H_    0.509039 0.277994 0.787586 0.266323
O27   O     O_3   0.981589 0.628721 0.788506 -0.633791
C127  C     C_3   0.987093 0.667824 0.736405 -0.001507
H81   H     H_    0.924019 0.631189 0.674376 0.131306
H82   H     H_    0.041067 0.670306 0.722022 0.130975
C128  C     C_3   0.006221 0.761160 0.785293 -0.264473
H83   H     H_    0.954732 0.760345 0.802902 0.255757
H84   H     H_    0.070152 0.798626 0.846125 0.245660
C129  C     C_3   0.009075 0.806225 0.731011 -0.917198
H85   H     H_    0.065373 0.814471 0.719468 0.253294
H86   H     H_    0.016857 0.871612 0.766100 0.296818
H87   H     H_    0.947604 0.767554 0.667733 0.261547
Br2   Br    Br    0.028483 0.930576 0.956776 -0.596765
Br3   Br    Br    0.369360 0.451387 0.118603 -0.552274

loop_
_geom_bond_atom_site_label_1
_geom_bond_atom_site_label_2
_ccdc_geom_bond_type
C8    C9    A    
C40   C41   A    
C94   H39   S    
C5    C114  S    
C85   C95   S    
C73   C74   A    
C96   O2    A    
C105  C106  A    
C35   C36   A    
C120  Br2   S    
C111  H40   S    
C67   H23   S    
O23   Zn2   S    
C103  O15   A    
C114  C115  A    
C90   C91   A    
O25   C121  S    
C7    C8    A    
C20   H60   S    
C100  O7    A    
C108  C109  A    
C55   O22   A    
C108  H44   S    
C33   O19   A    
C26   C27   A    
C34   H3    S    
C73   H27   S    
O10   Zn6   S    
C13   C29   A    
C35   H4    S    
C103  C113  S    
C76   C78   A    
C113  C114  A    
C109  C111  A    
C28   C33   S    
C112  C117  A    
C34   C35   A    
C72   H26   S    
C129  H87   S    
C121  H68   S    
C106  C107  A    
C54   H15   S    
C15   C16   A    
C40   H8    S    
C61   H20   S    
C123  H73   S    
C128  H83   S    
O18   Zn1   S    
C9    H56   S    
C127  H81   S    
C41   C42   A    
C62   H16   S    
C37   C42   A    
C17   C101  S    
C118  C119  A    
O27   C127  S    
C29   C88   S    
C42   H5    S    
C68   C69   A    
O20   Zn1   S    
C105  H42   S    
C83   C84   A    
C77   C88   A    
C128  H84   S    
C16   C17   A    
C65   C67   A    
C7    H55   S    
C47   C48   A    
C107  C108  A    
C70   C71   A    
C76   H30   S    
O16   Zn5   S    
C44   C87   S    
O12   Zn2   S    
C9    C10   A    
O9    Zn5   S    
C61   C62   A    
O11   Zn5   S    
C101  O10   A    
C103  O14   A    
C58   H18   S    
C1    O12   A    
C97   O3    A    
C12   H57   S    
C105  C111  A    
C59   C60   A    
C63   C64   A    
C21   C22   A    
C98   O5    A    
C22   H63   S    
C43   Br1   S    
C1    O1    A    
C48   C49   A    
C67   C68   A    
C91   C92   A    
O6    Zn4   S    
C112  C113  A    
C110  H41   S    
C16   H58   S    
C78   H31   S    
C14   C98   S    
C77   H21   S    
C129  H86   S    
C21   H62   S    
C83   C89   A    
C54   C56   A    
C11   H53   S    
C96   O24   A    
C74   C75   A    
C47   H10   S    
O13   Zn6   S    
C82   H29   S    
C30   H65   S    
C32   H2    S    
O17   Zn6   S    
C80   H33   S    
C38   C39   A    
C84   C85   A    
C98   O6    A    
C126  H78   S    
C3    C120  A    
C102  O11   A    
C76   C82   A    
C6    C11   A    
C55   C68   S    
C78   C79   A    
C80   C81   A    
C6    H54   S    
O19   Zn2   S    
C50   C51   A    
C58   C59   A    
C85   C86   A    
C99   C110  A    
C92   H37   S    
C44   O21   A    
C81   C82   A    
C81   H34   S    
C51   C52   A    
C13   C24   A    
C60   C61   A    
C127  H82   S    
C104  O16   A    
C122  H70   S    
C86   H35   S    
C27   H61   S    
O15   Zn6   S    
C97   O4    A    
C37   C38   A    
C55   O23   A    
C43   C45   A    
O8    Zn4   S    
C31   C32   A    
C13   H51   S    
O3    Zn3   S    
C112  H46   S    
C44   O20   A    
C17   C18   A    
C57   H17   S    
C94   C95   A    
C1    C48   S    
C93   C94   A    
C106  H43   S    
C50   H12   S    
C119  C120  A    
C124  H75   S    
C92   C93   A    
C125  H77   S    
C109  H45   S    
C59   C69   S    
C26   C36   S    
C124  C125  S    
C39   C49   S    
O1    Zn1   S    
C104  O17   A    
C10   C11   A    
O4    Zn4   S    
O21   Zn2   S    
C84   C104  S    
C57   C62   A    
C53   C54   A    
C3    C4    A    
C28   C29   A    
C19   H59   S    
C121  H67   S    
C119  H49   S    
C52   C53   A    
C37   H6    S    
C125  H76   S    
C2    H1    S    
C74   H28   S    
C124  H74   S    
C66   C77   A    
C46   C47   A    
C2    C110  A    
O2    Zn4   S    
C4    H52   S    
C123  H71   S    
C86   C87   A    
C52   O25   S    
C90   O27   S    
C22   C23   A    
C43   C49   A    
C53   H14   S    
C24   C26   A    
C72   C73   A    
C2    C66   A    
C90   C95   A    
C122  C123  S    
C71   H25   S    
C129  H85   S    
C128  C129  S    
C3    H50   S    
O7    Zn3   S    
C6    C7    A    
C100  O8    A    
O14   Zn5   S    
O24   Zn3   S    
C83   O26   S    
C99   H32   S    
C33   O18   A    
C70   H24   S    
O26   C124  S    
C126  H80   S    
C30   C36   A    
C5    C118  A    
C127  C128  S    
C64   C65   A    
C19   C20   A    
C87   C89   A    
C12   C14   A    
C63   C69   A    
C101  O9    A    
C23   H64   S    
C50   C56   A    
O5    Zn3   S    
C121  C122  S    
C41   H9    S    
C51   H13   S    
C57   C58   A    
C30   C31   A    
O22   Zn1   S    
C38   H7    S    
C4    C5    A    
C31   H66   S    
C118  H48   S    
C66   H11   S    
C123  H72   S    
C63   H22   S    
C126  H79   S    
C116  C117  A    
C10   Br3   S    
C24   C97   S    
C23   C25   A    
C93   H38   S    
C19   C25   A    
C125  C126  S    
C8    C18   S    
C79   C89   S    
C88   C99   A    
C15   C25   S    
C45   C102  S    
C60   H19   S    
C79   C80   A    
C39   C40   A    
C45   C46   A    
C64   C100  S    
C91   H36   S    
C20   C21   A    
C12   C18   A    
C70   C75   A    
C14   C15   A    
C96   C116  S    
C71   C72   A    
C102  O13   A    
C115  H47   S    
C122  H69   S    
C107  C117  S    
C65   C75   S    
C115  C116  A    
C32   C34   A    
C27   C28   A    
C46   C56   S    
