data_mof_unit_65415.cif
_audit_creation_date              2013-03-05T16:34:25-0500
_audit_creation_method            fapswitch 2.2
_symmetry_space_group_name_H-M    P1
_symmetry_Int_Tables_number       1
_space_group_crystal_system       triclinic
_cell_length_a                    25.98348
_cell_length_b                    36.28158
_cell_length_c                    36.297642
_cell_angle_alpha                 89.994408
_cell_angle_beta                  89.99985
_cell_angle_gamma                 89.999587
_cell_volume                      34218.5749095

loop_
_atom_site_label
_atom_site_type_symbol
_atom_site_description
_atom_site_fract_x
_atom_site_fract_y
_atom_site_fract_z
_atom_type_partial_charge
Zn1   Zn    Zn3+2 0.206610 0.530520 0.219480 0.977764
Zn2   Zn    Zn3+2 0.206610 0.530520 0.780520 0.975980
Zn3   Zn    Zn3+2 0.793390 0.530520 0.219480 0.975499
Zn4   Zn    Zn3+2 0.793390 0.530520 0.780520 0.975115
Zn5   Zn    Zn3+2 0.706610 0.030520 0.219480 0.978253
Zn6   Zn    Zn3+2 0.706610 0.030520 0.780520 0.978689
Zn7   Zn    Zn3+2 0.293390 0.030520 0.219480 0.978876
Zn8   Zn    Zn3+2 0.293390 0.030520 0.780520 0.978709
Zn9   Zn    Zn3+2 0.706610 0.530520 0.719480 0.972272
Zn10  Zn    Zn3+2 0.706610 0.530520 0.280520 0.975873
Zn11  Zn    Zn3+2 0.293390 0.530520 0.719480 0.975017
Zn12  Zn    Zn3+2 0.293390 0.530520 0.280520 0.977576
Zn13  Zn    Zn3+2 0.206610 0.030520 0.719480 0.978412
Zn14  Zn    Zn3+2 0.206610 0.030520 0.280520 0.978554
Zn15  Zn    Zn3+2 0.793390 0.030520 0.719480 0.978649
Zn16  Zn    Zn3+2 0.793390 0.030520 0.280520 0.978512
Zn17  Zn    Zn3+2 0.293390 0.469490 0.219490 1.004090
Zn18  Zn    Zn3+2 0.293390 0.469490 0.780510 1.008172
Zn19  Zn    Zn3+2 0.706610 0.469490 0.219490 1.008052
Zn20  Zn    Zn3+2 0.706610 0.469490 0.780510 1.009973
Zn21  Zn    Zn3+2 0.793390 0.969490 0.219490 1.004917
Zn22  Zn    Zn3+2 0.793390 0.969490 0.780510 1.005623
Zn23  Zn    Zn3+2 0.206610 0.969490 0.219490 1.003024
Zn24  Zn    Zn3+2 0.206610 0.969490 0.780510 1.004495
Zn25  Zn    Zn3+2 0.793390 0.469490 0.719490 1.009147
Zn26  Zn    Zn3+2 0.793390 0.469490 0.280510 1.007305
Zn27  Zn    Zn3+2 0.206610 0.469490 0.719490 1.004315
Zn28  Zn    Zn3+2 0.206610 0.469490 0.280510 1.004953
Zn29  Zn    Zn3+2 0.293390 0.969490 0.719490 1.003693
Zn30  Zn    Zn3+2 0.293390 0.969490 0.280510 1.005424
Zn31  Zn    Zn3+2 0.706610 0.969490 0.719490 1.003394
Zn32  Zn    Zn3+2 0.706610 0.969490 0.280510 1.005209
O1    O     O_3   0.250000 0.500000 0.250000 -0.491107
O2    O     O_3   0.250000 0.500000 0.750000 -0.490910
O3    O     O_3   0.750000 0.500000 0.250000 -0.491601
O4    O     O_3   0.750000 0.500000 0.750000 -0.491555
O5    O     O_3   0.750000 0.000000 0.250000 -0.491555
O6    O     O_3   0.750000 0.000000 0.750000 -0.491398
O7    O     O_3   0.250000 0.000000 0.250000 -0.491287
O8    O     O_3   0.250000 0.000000 0.750000 -0.491256
O9    O     O_R   0.365800 0.521360 0.271360 -0.645787
O10   O     O_R   0.365800 0.521360 0.728640 -0.645853
O11   O     O_R   0.634200 0.521360 0.271360 -0.645820
O12   O     O_R   0.634200 0.521360 0.728640 -0.645615
O13   O     O_R   0.865800 0.021360 0.271360 -0.645333
O14   O     O_R   0.865800 0.021360 0.728640 -0.645732
O15   O     O_R   0.134200 0.021360 0.271360 -0.645177
O16   O     O_R   0.134200 0.021360 0.728640 -0.645705
O17   O     O_R   0.865800 0.521360 0.771360 -0.647896
O18   O     O_R   0.865800 0.521360 0.228640 -0.645746
O19   O     O_R   0.134200 0.521360 0.771360 -0.648716
O20   O     O_R   0.134200 0.521360 0.228640 -0.645961
O21   O     O_R   0.365800 0.021360 0.771360 -0.645191
O22   O     O_R   0.365800 0.021360 0.228640 -0.645820
O23   O     O_R   0.634200 0.021360 0.771360 -0.645024
O24   O     O_R   0.634200 0.021360 0.228640 -0.645653
O25   O     O_R   0.280370 0.478660 0.168540 -0.611112
O26   O     O_R   0.280370 0.478660 0.831460 -0.609191
O27   O     O_R   0.719630 0.478660 0.168540 -0.607588
O28   O     O_R   0.719630 0.478660 0.831460 -0.609314
O29   O     O_R   0.780370 0.978660 0.168540 -0.609680
O30   O     O_R   0.780370 0.978660 0.831460 -0.607308
O31   O     O_R   0.219630 0.978660 0.168540 -0.612348
O32   O     O_R   0.219630 0.978660 0.831460 -0.608262
O33   O     O_R   0.780370 0.478660 0.668540 -0.605884
O34   O     O_R   0.780370 0.478660 0.331460 -0.607842
O35   O     O_R   0.219630 0.478660 0.668540 -0.610961
O36   O     O_R   0.219630 0.478660 0.331460 -0.608426
O37   O     O_R   0.280370 0.978660 0.668540 -0.611139
O38   O     O_R   0.280370 0.978660 0.331460 -0.607673
O39   O     O_R   0.719630 0.978660 0.668540 -0.612054
O40   O     O_R   0.719630 0.978660 0.331460 -0.608147
O41   O     O_R   0.280390 0.418540 0.228640 -0.632015
O42   O     O_R   0.280390 0.418540 0.771360 -0.628751
O43   O     O_R   0.719610 0.418540 0.228640 -0.630144
O44   O     O_R   0.719610 0.418540 0.771360 -0.627115
O45   O     O_R   0.780390 0.918540 0.228640 -0.631626
O46   O     O_R   0.780390 0.918540 0.771360 -0.629205
O47   O     O_R   0.219610 0.918540 0.228640 -0.633031
O48   O     O_R   0.219610 0.918540 0.771360 -0.630779
O49   O     O_R   0.780390 0.418540 0.728640 -0.631396
O50   O     O_R   0.780390 0.418540 0.271360 -0.627891
O51   O     O_R   0.219610 0.418540 0.728640 -0.634200
O52   O     O_R   0.219610 0.418540 0.271360 -0.630544
O53   O     O_R   0.280390 0.918540 0.728640 -0.632402
O54   O     O_R   0.280390 0.918540 0.271360 -0.629931
O55   O     O_R   0.719610 0.918540 0.728640 -0.633129
O56   O     O_R   0.719610 0.918540 0.271360 -0.630699
O57   O     O_R   0.280340 0.581460 0.271360 -0.631335
O58   O     O_R   0.280340 0.581460 0.728640 -0.629465
O59   O     O_R   0.719660 0.581460 0.271360 -0.632170
O60   O     O_R   0.719660 0.581460 0.728640 -0.630433
O61   O     O_R   0.780340 0.081460 0.271360 -0.630932
O62   O     O_R   0.780340 0.081460 0.728640 -0.630661
O63   O     O_R   0.219660 0.081460 0.271360 -0.631253
O64   O     O_R   0.219660 0.081460 0.728640 -0.630984
O65   O     O_R   0.780340 0.581460 0.771360 -0.640822
O66   O     O_R   0.780340 0.581460 0.228640 -0.631767
O67   O     O_R   0.219660 0.581460 0.771360 -0.640482
O68   O     O_R   0.219660 0.581460 0.228640 -0.631217
O69   O     O_R   0.280340 0.081460 0.771360 -0.630987
O70   O     O_R   0.280340 0.081460 0.228640 -0.630677
O71   O     O_R   0.719660 0.081460 0.771360 -0.631256
O72   O     O_R   0.719660 0.081460 0.228640 -0.630995
O73   O     O_R   0.219630 0.521370 0.168530 -0.648498
O74   O     O_R   0.219630 0.521370 0.831470 -0.641332
O75   O     O_R   0.780370 0.521370 0.168530 -0.649816
O76   O     O_R   0.780370 0.521370 0.831470 -0.641398
O77   O     O_R   0.719630 0.021370 0.168530 -0.648927
O78   O     O_R   0.719630 0.021370 0.831470 -0.649799
O79   O     O_R   0.280370 0.021370 0.168530 -0.647876
O80   O     O_R   0.280370 0.021370 0.831470 -0.649277
O81   O     O_R   0.719630 0.521370 0.668530 -0.650996
O82   O     O_R   0.719630 0.521370 0.331470 -0.650232
O83   O     O_R   0.280370 0.521370 0.668530 -0.648881
O84   O     O_R   0.280370 0.521370 0.331470 -0.649432
O85   O     O_R   0.219630 0.021370 0.668530 -0.648407
O86   O     O_R   0.219630 0.021370 0.331470 -0.649682
O87   O     O_R   0.780370 0.021370 0.668530 -0.647822
O88   O     O_R   0.780370 0.021370 0.331470 -0.649193
O89   O     O_R   0.365810 0.478650 0.228650 -0.626316
O90   O     O_R   0.365810 0.478650 0.771350 -0.627595
O91   O     O_R   0.634190 0.478650 0.228650 -0.626630
O92   O     O_R   0.634190 0.478650 0.771350 -0.628757
O93   O     O_R   0.865810 0.978650 0.228650 -0.626496
O94   O     O_R   0.865810 0.978650 0.771350 -0.627895
O95   O     O_R   0.134190 0.978650 0.228650 -0.626466
O96   O     O_R   0.134190 0.978650 0.771350 -0.627253
O97   O     O_R   0.865810 0.478650 0.728650 -0.624591
O98   O     O_R   0.865810 0.478650 0.271350 -0.628460
O99   O     O_R   0.134190 0.478650 0.728650 -0.623714
O100  O     O_R   0.134190 0.478650 0.271350 -0.626895
O101  O     O_R   0.365810 0.978650 0.728650 -0.626498
O102  O     O_R   0.365810 0.978650 0.271350 -0.627283
O103  O     O_R   0.634190 0.978650 0.728650 -0.626446
O104  O     O_R   0.634190 0.978650 0.271350 -0.627049
C1    C     C_R   0.390227 0.499413 0.250631 0.792741
C2    C     C_R   0.390228 0.499421 0.749378 0.790332
C3    C     C_R   0.609774 0.499415 0.250629 0.791677
C4    C     C_R   0.609772 0.499419 0.749376 0.789826
C5    C     C_R   0.890226 0.999422 0.250621 0.792626
C6    C     C_R   0.890228 0.999419 0.749375 0.790354
C7    C     C_R   0.109773 0.999421 0.250622 0.793804
C8    C     C_R   0.109772 0.999420 0.749377 0.791291
C9    C     C_R   0.890226 0.500623 0.749421 0.790311
C10   C     C_R   0.890227 0.499427 0.249385 0.789870
C11   C     C_R   0.109773 0.500625 0.749419 0.791551
C12   C     C_R   0.109772 0.499425 0.249381 0.791050
C13   C     C_R   0.390226 0.999423 0.750620 0.793356
C14   C     C_R   0.390227 0.999416 0.249372 0.791089
C15   C     C_R   0.609773 0.999422 0.750621 0.793960
C16   C     C_R   0.609772 0.999412 0.249368 0.791644
C17   C     C_R   0.249982 0.499993 0.151009 0.814926
C18   C     C_R   0.250005 0.499997 0.848992 0.819468
C19   C     C_R   0.750003 0.499999 0.151010 0.813319
C20   C     C_R   0.749986 0.500008 0.848992 0.820323
C21   C     C_R   0.749984 0.999994 0.151009 0.814492
C22   C     C_R   0.749984 0.999986 0.848991 0.813078
C23   C     C_R   0.250025 0.999990 0.151008 0.815695
C24   C     C_R   0.250021 0.999981 0.848991 0.813188
C25   C     C_R   0.749997 0.500000 0.651009 0.812729
C26   C     C_R   0.749990 0.499994 0.348991 0.813789
C27   C     C_R   0.250024 0.499992 0.651009 0.814965
C28   C     C_R   0.250022 0.499980 0.348991 0.813065
C29   C     C_R   0.249979 0.999992 0.651008 0.815203
C30   C     C_R   0.249982 0.999983 0.348991 0.813060
C31   C     C_R   0.750024 0.999991 0.651009 0.815577
C32   C     C_R   0.750020 0.999981 0.348991 0.813218
C33   C     C_R   0.249999 0.401004 0.250001 0.817451
C34   C     C_R   0.250003 0.401004 0.749999 0.818112
C35   C     C_R   0.750001 0.401004 0.250001 0.820101
C36   C     C_R   0.749997 0.401004 0.749999 0.820608
C37   C     C_R   0.749999 0.901004 0.250001 0.817105
C38   C     C_R   0.750004 0.901003 0.749999 0.817284
C39   C     C_R   0.250001 0.901004 0.250001 0.817034
C40   C     C_R   0.249996 0.901003 0.749999 0.816789
C41   C     C_R   0.249999 0.599005 0.249999 0.831309
C42   C     C_R   0.249977 0.599004 0.749985 0.824601
C43   C     C_R   0.750001 0.599005 0.249999 0.829609
C44   C     C_R   0.750023 0.599004 0.749985 0.822843
C45   C     C_R   0.749999 0.099005 0.249999 0.831714
C46   C     C_R   0.750001 0.099005 0.749999 0.831814
C47   C     C_R   0.250001 0.099005 0.249999 0.832009
C48   C     C_R   0.249999 0.099005 0.749999 0.831939
H1    H     H_    0.311654 0.716032 0.289744 0.149503
H2    H     H_    0.316072 0.716036 0.714127 0.149057
H3    H     H_    0.690573 0.716032 0.291445 0.149093
H4    H     H_    0.682126 0.716037 0.715900 0.148585
H5    H     H_    0.810039 0.216032 0.290990 0.150745
H6    H     H_    0.809861 0.216045 0.708870 0.150484
H7    H     H_    0.191443 0.216031 0.292075 0.149932
H8    H     H_    0.189174 0.216045 0.709603 0.149585
H9    H     H_    0.818196 0.716034 0.783901 0.146498
H10   H     H_    0.809430 0.716045 0.208551 0.149320
H11   H     H_    0.183598 0.716032 0.785671 0.146683
H12   H     H_    0.188340 0.716045 0.210257 0.149274
H13   H     H_    0.310827 0.216031 0.790391 0.150173
H14   H     H_    0.308558 0.216045 0.207921 0.150136
H15   H     H_    0.690139 0.216032 0.791123 0.150645
H16   H     H_    0.689956 0.216046 0.209009 0.150553
C49   C     C_R   0.284680 0.769274 0.272357 -0.167070
C50   C     C_R   0.287109 0.769274 0.729791 -0.168771
C51   C     C_R   0.716571 0.769274 0.273313 -0.167776
C52   C     C_R   0.711876 0.769274 0.730789 -0.169271
C53   C     C_R   0.783772 0.269274 0.273058 -0.163464
C54   C     C_R   0.783666 0.269282 0.726865 -0.165654
C55   C     C_R   0.217061 0.269274 0.273667 -0.166624
C56   C     C_R   0.215790 0.269282 0.727277 -0.168631
C57   C     C_R   0.788410 0.769274 0.769039 -0.167067
C58   C     C_R   0.783425 0.769282 0.226687 -0.167627
C59   C     C_R   0.212597 0.769274 0.770034 -0.168125
C60   C     C_R   0.215319 0.769282 0.227647 -0.168509
C61   C     C_R   0.284217 0.269274 0.772718 -0.165691
C62   C     C_R   0.282935 0.269282 0.226333 -0.166867
C63   C     C_R   0.716326 0.269275 0.773130 -0.163384
C64   C     C_R   0.716228 0.269282 0.226945 -0.164586
H17   H     H_    0.311657 0.783965 0.289746 0.153189
H18   H     H_    0.316098 0.783967 0.714145 0.151990
H19   H     H_    0.690569 0.783965 0.291447 0.152940
H20   H     H_    0.682101 0.783966 0.715918 0.151542
H21   H     H_    0.810042 0.283965 0.290993 0.155442
H22   H     H_    0.809856 0.283979 0.708871 0.154260
H23   H     H_    0.191440 0.283965 0.292077 0.153403
H24   H     H_    0.189178 0.283978 0.709604 0.151977
H25   H     H_    0.818167 0.783966 0.783924 0.152146
H26   H     H_    0.809426 0.783979 0.208554 0.153072
H27   H     H_    0.183627 0.783967 0.785694 0.151715
H28   H     H_    0.188343 0.783979 0.210259 0.152195
H29   H     H_    0.310831 0.283965 0.790392 0.153851
H30   H     H_    0.308555 0.283979 0.207924 0.153275
H31   H     H_    0.690134 0.283965 0.791124 0.155440
H32   H     H_    0.689959 0.283979 0.209011 0.154864
C65   C     C_R   0.250001 0.788623 0.250003 0.153157
C66   C     C_R   0.249868 0.788620 0.749924 0.154127
C67   C     C_R   0.749997 0.788623 0.250001 0.152970
C68   C     C_R   0.750129 0.788619 0.749925 0.154218
C69   C     C_R   0.750001 0.288623 0.250002 0.150925
C70   C     C_R   0.749994 0.288623 0.749998 0.151226
C71   C     C_R   0.249997 0.288623 0.250001 0.152490
C72   C     C_R   0.250005 0.288623 0.749998 0.152895
C73   C     C_R   0.215317 0.730736 0.227646 -0.169913
C74   C     C_R   0.212580 0.730727 0.770021 -0.174438
C75   C     C_R   0.783427 0.730736 0.226686 -0.170275
C76   C     C_R   0.788427 0.730727 0.769026 -0.174631
C77   C     C_R   0.716226 0.230736 0.226944 -0.167778
C78   C     C_R   0.716328 0.230729 0.773129 -0.168121
C79   C     C_R   0.282937 0.230736 0.226331 -0.168508
C80   C     C_R   0.284215 0.230728 0.772718 -0.168882
C81   C     C_R   0.711891 0.730729 0.730777 -0.170181
C82   C     C_R   0.716573 0.730728 0.273311 -0.170676
C83   C     C_R   0.287094 0.730729 0.729779 -0.169557
C84   C     C_R   0.284679 0.730728 0.272355 -0.170002
C85   C     C_R   0.215788 0.230736 0.727276 -0.168913
C86   C     C_R   0.217063 0.230728 0.273666 -0.169021
C87   C     C_R   0.783669 0.230736 0.726864 -0.167661
C88   C     C_R   0.783770 0.230729 0.273057 -0.167766
C89   C     C_R   0.249997 0.711387 0.250000 0.155753
C90   C     C_R   0.249836 0.711383 0.749899 0.157020
C91   C     C_R   0.750001 0.711387 0.249998 0.155807
C92   C     C_R   0.750161 0.711384 0.749901 0.157190
C93   C     C_R   0.749997 0.211387 0.250000 0.154202
C94   C     C_R   0.750000 0.211387 0.749996 0.154339
C95   C     C_R   0.250001 0.211387 0.249998 0.155125
C96   C     C_R   0.250000 0.211387 0.749997 0.155313
C97   C     C_1   0.250002 0.828272 0.250003 -0.061805
C98   C     C_1   0.249912 0.828269 0.749954 -0.062641
C99   C     C_1   0.749996 0.828272 0.250002 -0.061532
C100  C     C_1   0.750086 0.828269 0.749956 -0.062110
C101  C     C_1   0.750002 0.328272 0.250003 -0.056706
C102  C     C_1   0.749993 0.328272 0.749999 -0.057325
C103  C     C_1   0.249996 0.328272 0.250002 -0.060741
C104  C     C_1   0.250007 0.328272 0.749999 -0.061266
C105  C     C_1   0.249996 0.671738 0.249998 -0.064531
C106  C     C_1   0.249866 0.671735 0.749923 -0.068158
C107  C     C_1   0.750003 0.671738 0.249997 -0.065502
C108  C     C_1   0.750132 0.671735 0.749924 -0.069029
C109  C     C_1   0.749996 0.171738 0.249998 -0.062272
C110  C     C_1   0.750002 0.171738 0.749996 -0.062382
C111  C     C_1   0.250003 0.171738 0.249997 -0.063185
C112  C     C_1   0.249998 0.171738 0.749996 -0.063363
C113  C     C_1   0.249996 0.638522 0.249998 -0.128555
C114  C     C_1   0.249916 0.638519 0.749949 -0.131784
C115  C     C_1   0.750003 0.638522 0.249998 -0.129500
C116  C     C_1   0.750083 0.638519 0.749950 -0.132632
C117  C     C_1   0.749996 0.138522 0.249998 -0.126997
C118  C     C_1   0.750003 0.138522 0.749997 -0.126993
C119  C     C_1   0.250003 0.138522 0.249997 -0.127356
C120  C     C_1   0.249997 0.138522 0.749997 -0.127482
C121  C     C_1   0.250003 0.861488 0.250003 -0.118234
C122  C     C_1   0.249955 0.861486 0.749977 -0.118752
C123  C     C_1   0.749997 0.861488 0.250002 -0.117660
C124  C     C_1   0.750044 0.861486 0.749978 -0.117986
C125  C     C_1   0.750003 0.361488 0.250003 -0.112836
C126  C     C_1   0.749993 0.361488 0.749999 -0.114623
C127  C     C_1   0.249996 0.361488 0.250002 -0.117506
C128  C     C_1   0.250007 0.361488 0.750000 -0.119210
H33   H     H_    0.046811 0.500930 0.306715 0.175108
H34   H     H_    0.046807 0.443265 0.750709 0.161038
H35   H     H_    0.953194 0.500934 0.306718 0.172399
H36   H     H_    0.953196 0.443264 0.750710 0.161693
H37   H     H_    0.546803 0.000510 0.306707 0.176848
H38   H     H_    0.546808 0.000781 0.693285 0.179646
H39   H     H_    0.453200 0.000510 0.306710 0.176505
H40   H     H_    0.453194 0.000781 0.693284 0.179415
H41   H     H_    0.546806 0.500725 0.806711 0.172176
H42   H     H_    0.546801 0.500499 0.193290 0.175576
H43   H     H_    0.453194 0.500725 0.806712 0.174228
H44   H     H_    0.453198 0.500499 0.193292 0.177732
H45   H     H_    0.046804 0.000691 0.806712 0.176460
H46   H     H_    0.046808 0.000751 0.193286 0.179377
H47   H     H_    0.953194 0.000691 0.806711 0.175304
H48   H     H_    0.953195 0.000751 0.193285 0.178487
C129  C     C_R   0.053675 0.489416 0.179735 -0.169181
C130  C     C_R   0.053680 0.570335 0.739594 -0.161239
C131  C     C_R   0.946305 0.489378 0.179748 -0.168562
C132  C     C_R   0.946312 0.570331 0.739586 -0.163568
C133  C     C_R   0.553671 0.989777 0.179651 -0.168440
C134  C     C_R   0.553680 0.989531 0.820288 -0.168055
C135  C     C_R   0.446308 0.989766 0.179659 -0.168572
C136  C     C_R   0.446313 0.989533 0.820286 -0.168354
C137  C     C_R   0.553680 0.489580 0.679701 -0.168362
C138  C     C_R   0.553688 0.489772 0.320345 -0.167408
C139  C     C_R   0.446313 0.489580 0.679703 -0.168936
C140  C     C_R   0.446325 0.489784 0.320351 -0.168461
C141  C     C_R   0.053686 0.989608 0.679697 -0.168921
C142  C     C_R   0.053680 0.989556 0.320294 -0.168197
C143  C     C_R   0.946320 0.989611 0.679695 -0.168916
C144  C     C_R   0.946313 0.989558 0.320292 -0.168167
H49   H     H_    0.095142 0.487811 0.178346 0.145779
H50   H     H_    0.095144 0.571728 0.737965 0.148094
H51   H     H_    0.904839 0.487737 0.178372 0.146599
H52   H     H_    0.904848 0.571721 0.737949 0.147424
H53   H     H_    0.595132 0.988140 0.178248 0.145897
H54   H     H_    0.595144 0.987897 0.821677 0.146186
H55   H     H_    0.404847 0.988117 0.178262 0.145505
H56   H     H_    0.404849 0.987900 0.821675 0.145701
H57   H     H_    0.595144 0.487945 0.678310 0.146818
H58   H     H_    0.595149 0.488121 0.321744 0.147762
H59   H     H_    0.404849 0.487944 0.678314 0.145688
H60   H     H_    0.404864 0.488146 0.321754 0.146256
H61   H     H_    0.095150 0.987970 0.678306 0.145445
H62   H     H_    0.095144 0.987921 0.321684 0.145856
H63   H     H_    0.904857 0.987976 0.678302 0.145352
H64   H     H_    0.904849 0.987923 0.321682 0.145752
C145  C     C_R   0.026727 0.485441 0.146778 -0.132679
C146  C     C_R   0.026737 0.603323 0.735746 -0.128848
C147  C     C_R   0.973241 0.485417 0.146785 -0.131092
C148  C     C_R   0.973251 0.603321 0.735741 -0.129972
C149  C     C_R   0.526726 0.986031 0.146667 -0.133104
C150  C     C_R   0.526738 0.985652 0.853257 -0.132663
C151  C     C_R   0.473242 0.986025 0.146671 -0.133792
C152  C     C_R   0.473252 0.985653 0.853256 -0.133598
C153  C     C_R   0.526737 0.485728 0.646729 -0.131770
C154  C     C_R   0.526752 0.486036 0.353334 -0.131023
C155  C     C_R   0.473251 0.485728 0.646731 -0.133669
C156  C     C_R   0.473268 0.486043 0.353338 -0.133631
C157  C     C_R   0.026748 0.985774 0.646722 -0.133866
C158  C     C_R   0.026738 0.985691 0.353265 -0.133290
C159  C     C_R   0.973262 0.985776 0.646721 -0.133992
C160  C     C_R   0.973252 0.985692 0.353264 -0.133504
H65   H     H_    0.047471 0.481790 0.121171 0.140667
H66   H     H_    0.047483 0.628952 0.732177 0.141898
H67   H     H_    0.952488 0.481744 0.121185 0.142374
H68   H     H_    0.952500 0.628948 0.732167 0.141513
H69   H     H_    0.547469 0.982536 0.121037 0.139563
H70   H     H_    0.547485 0.982054 0.878871 0.140232
H71   H     H_    0.452491 0.982525 0.121045 0.138685
H72   H     H_    0.452502 0.982058 0.878869 0.139178
H73   H     H_    0.547484 0.482152 0.621113 0.141486
H74   H     H_    0.547502 0.482540 0.378962 0.142535
H75   H     H_    0.452502 0.482153 0.621116 0.139315
H76   H     H_    0.452524 0.482552 0.378968 0.139835
H77   H     H_    0.047498 0.982210 0.621105 0.138760
H78   H     H_    0.047485 0.982105 0.378880 0.139334
H79   H     H_    0.952515 0.982213 0.621103 0.138530
H80   H     H_    0.952502 0.982107 0.378878 0.139059
C161  C     C_R   0.472691 0.994390 0.213459 0.098653
C162  C     C_R   0.472695 0.994280 0.786504 0.098587
C163  C     C_R   0.527298 0.994393 0.213456 0.098389
C164  C     C_R   0.527301 0.994279 0.786505 0.098238
C165  C     C_R   0.972692 0.494212 0.213514 0.098084
C166  C     C_R   0.972695 0.536531 0.744304 0.098683
C167  C     C_R   0.027298 0.494223 0.213510 0.098359
C168  C     C_R   0.027302 0.536532 0.744306 0.098928
C169  C     C_R   0.972698 0.994315 0.713483 0.098557
C170  C     C_R   0.972695 0.994291 0.286508 0.098569
C171  C     C_R   0.027305 0.994315 0.713484 0.098424
C172  C     C_R   0.027301 0.994291 0.286508 0.098374
C173  C     C_R   0.472695 0.494301 0.713488 0.098455
C174  C     C_R   0.472700 0.494396 0.286545 0.098416
C175  C     C_R   0.527301 0.494301 0.713487 0.097987
C176  C     C_R   0.527307 0.494393 0.286543 0.097749
C177  C     C_R   0.053818 0.497591 0.247488 -0.082121
C178  C     C_R   0.053820 0.502529 0.747573 -0.072684
C179  C     C_R   0.946179 0.497587 0.247492 -0.080947
C180  C     C_R   0.946179 0.502527 0.747573 -0.073207
C181  C     C_R   0.553818 0.997560 0.247456 -0.083601
C182  C     C_R   0.553820 0.997579 0.752520 -0.085232
C183  C     C_R   0.446179 0.997560 0.247461 -0.083348
C184  C     C_R   0.446180 0.997579 0.752518 -0.085016
C185  C     C_R   0.553819 0.497574 0.747475 -0.080986
C186  C     C_R   0.553821 0.497558 0.252541 -0.082839
C187  C     C_R   0.446180 0.497575 0.747476 -0.081763
C188  C     C_R   0.446181 0.497559 0.252543 -0.083799
C189  C     C_R   0.053820 0.997572 0.747474 -0.083371
C190  C     C_R   0.053820 0.997577 0.252522 -0.085033
C191  C     C_R   0.946181 0.997572 0.747473 -0.082766
C192  C     C_R   0.946180 0.997577 0.252520 -0.084445
C193  C     C_R   0.026628 0.498951 0.280654 -0.183689
C194  C     C_R   0.026627 0.469345 0.748817 -0.187074
C195  C     C_R   0.973374 0.498952 0.280656 -0.185551
C196  C     C_R   0.973374 0.469344 0.748817 -0.185855
C197  C     C_R   0.526626 0.998697 0.280631 -0.182443
C198  C     C_R   0.526627 0.998861 0.719352 -0.180877
C199  C     C_R   0.473374 0.998698 0.280633 -0.182707
C200  C     C_R   0.473373 0.998861 0.719351 -0.181012
C201  C     C_R   0.526626 0.498826 0.780643 -0.185874
C202  C     C_R   0.526626 0.498691 0.219368 -0.183583
C203  C     C_R   0.473373 0.498827 0.780644 -0.184448
C204  C     C_R   0.473374 0.498691 0.219369 -0.182472
C205  C     C_R   0.026626 0.998807 0.780643 -0.183067
C206  C     C_R   0.026627 0.998843 0.219353 -0.181107
C207  C     C_R   0.973373 0.998806 0.780642 -0.183720
C208  C     C_R   0.973374 0.998843 0.219353 -0.181450
H81   H     H_    0.325327 0.519294 0.466304 0.164111
H82   H     H_    0.324597 0.520559 0.533790 0.164183
H83   H     H_    0.697200 0.543101 0.466236 0.167120
H84   H     H_    0.698677 0.544021 0.533722 0.167174
H85   H     H_    0.824193 0.021458 0.466300 0.164452
H86   H     H_    0.823397 0.022707 0.533784 0.164555
H87   H     H_    0.177637 0.024494 0.466295 0.164736
H88   H     H_    0.178530 0.025718 0.533778 0.164851
H89   H     H_    0.803938 0.542355 0.966241 0.168552
H90   H     H_    0.802526 0.543276 0.033727 0.167728
H91   H     H_    0.177850 0.524715 0.966293 0.167659
H92   H     H_    0.178721 0.525918 0.033776 0.165745
H93   H     H_    0.325009 0.019905 0.966303 0.164220
H94   H     H_    0.324263 0.021164 0.033788 0.164305
H95   H     H_    0.682576 0.030958 0.966277 0.166051
H96   H     H_    0.683674 0.032107 0.033763 0.166165
C209  C     C_R   0.290507 0.511428 0.519205 -0.218821
C210  C     C_R   0.291014 0.510531 0.480849 -0.218574
C211  C     C_R   0.721980 0.523979 0.519166 -0.217771
C212  C     C_R   0.720937 0.523333 0.480810 -0.219275
C213  C     C_R   0.789853 0.012585 0.519202 -0.218158
C214  C     C_R   0.790407 0.011700 0.480846 -0.218396
C215  C     C_R   0.211194 0.014208 0.519199 -0.218565
C216  C     C_R   0.210571 0.013342 0.480843 -0.218980
C217  C     C_R   0.778592 0.523619 0.019171 -0.217379
C218  C     C_R   0.779593 0.522969 0.980814 -0.215491
C219  C     C_R   0.211342 0.514345 0.019200 -0.218739
C220  C     C_R   0.210730 0.513490 0.980844 -0.215000
C221  C     C_R   0.290320 0.011755 0.019204 -0.218572
C222  C     C_R   0.290838 0.010863 0.980848 -0.218572
C223  C     C_R   0.713943 0.017621 0.019190 -0.217687
C224  C     C_R   0.713172 0.016809 0.980833 -0.218606
C225  C     C_R   0.246688 0.500401 0.538652 -0.009222
C226  C     C_R   0.247650 0.498706 0.461351 -0.009165
C227  C     C_R   0.752461 0.498910 0.538649 -0.010526
C228  C     C_R   0.750486 0.497685 0.461348 -0.010699
C229  C     C_R   0.746699 0.000288 0.538652 -0.008986
C230  C     C_R   0.747750 0.998617 0.461351 -0.009063
C231  C     C_R   0.253274 0.000132 0.538652 -0.009145
C232  C     C_R   0.252094 0.998496 0.461351 -0.009122
C233  C     C_R   0.747357 0.499032 0.038653 -0.011066
C234  C     C_R   0.749252 0.497801 0.961353 -0.011149
C235  C     C_R   0.253352 0.500174 0.038656 -0.010048
C236  C     C_R   0.252192 0.498558 0.961355 -0.010766
C237  C     C_R   0.246681 0.000370 0.038652 -0.008956
C238  C     C_R   0.247665 0.998686 0.961351 -0.009051
C239  C     C_R   0.753083 0.999728 0.038651 -0.009885
C240  C     C_R   0.751623 0.998192 0.961350 -0.009903
C241  C     C_R   0.202482 0.488270 0.519487 0.221380
C242  C     C_R   0.202904 0.487537 0.480464 0.221464
C243  C     C_R   0.782488 0.472673 0.519521 0.222903
C244  C     C_R   0.781630 0.472138 0.480499 0.223261
C245  C     C_R   0.703217 0.986873 0.519490 0.221622
C246  C     C_R   0.703676 0.986151 0.480467 0.220339
C247  C     C_R   0.295592 0.984919 0.519493 0.221632
C248  C     C_R   0.295080 0.984212 0.480470 0.220328
C249  C     C_R   0.716499 0.473294 0.019526 0.223134
C250  C     C_R   0.717318 0.472759 0.980503 0.222419
C251  C     C_R   0.295616 0.484883 0.019502 0.222515
C252  C     C_R   0.295111 0.484185 0.980479 0.220657
C253  C     C_R   0.202669 0.987879 0.019489 0.221790
C254  C     C_R   0.203099 0.987152 0.980465 0.220590
C255  C     C_R   0.792245 0.980663 0.019501 0.222041
C256  C     C_R   0.791610 0.979998 0.980478 0.221106
C257  C     C_1   0.248480 0.500379 0.578346 0.044858
C258  C     C_1   0.249131 0.499459 0.421657 0.044248
C259  C     C_1   0.751020 0.499647 0.578343 0.043949
C260  C     C_1   0.749899 0.498917 0.421654 0.046123
C261  C     C_1   0.748492 0.000326 0.578346 0.044814
C262  C     C_1   0.749182 0.999415 0.421658 0.044847
C263  C     C_1   0.251490 0.000254 0.578345 0.044339
C264  C     C_1   0.250736 0.999355 0.421658 0.044666
C265  C     C_1   0.748875 0.499714 0.078346 0.044563
C266  C     C_1   0.749919 0.499002 0.921658 0.048981
C267  C     C_1   0.251541 0.500280 0.078349 0.045390
C268  C     C_1   0.250830 0.499406 0.921661 0.047262
C269  C     C_1   0.248477 0.000363 0.078346 0.044968
C270  C     C_1   0.249134 0.999450 0.921658 0.044569
C271  C     C_1   0.751367 0.000056 0.078345 0.044358
C272  C     C_1   0.750480 0.999196 0.921657 0.045425
C273  C     C_1   0.249862 0.499871 0.388469 -0.098385
C274  C     C_1   0.249507 0.500248 0.611533 -0.096668
C275  C     C_1   0.749755 0.499639 0.388467 -0.097254
C276  C     C_1   0.750246 0.499983 0.611532 -0.095940
C277  C     C_1   0.749883 0.999855 0.388469 -0.097587
C278  C     C_1   0.749517 0.000230 0.611533 -0.097726
C279  C     C_1   0.250084 0.999833 0.388469 -0.097691
C280  C     C_1   0.250470 0.000207 0.611533 -0.097926
C281  C     C_1   0.750143 0.499693 0.888470 -0.094688
C282  C     C_1   0.749707 0.500013 0.111534 -0.097456
C283  C     C_1   0.250151 0.499868 0.888472 -0.095827
C284  C     C_1   0.250496 0.500221 0.111535 -0.098040
C285  C     C_1   0.249862 0.999869 0.888469 -0.097917
C286  C     C_1   0.249508 0.000242 0.111533 -0.097919
C287  C     C_1   0.749978 0.999765 0.888468 -0.097174
C288  C     C_1   0.750405 0.000135 0.111532 -0.097512
N1    N     N_R   0.158117 0.475475 0.539433 0.237305
O105  O     O_R   0.136647 0.444237 0.530830 -0.296523
O106  O     O_R   0.139373 0.494708 0.566551 -0.350524
N2    N     N_R   0.157539 0.476786 0.460467 0.234418
O107  O     O_R   0.112951 0.490687 0.469033 -0.300766
O108  O     O_R   0.160632 0.453417 0.433366 -0.349534
N3    N     N_R   0.812208 0.445867 0.539505 0.235922
O109  O     O_R   0.809247 0.411097 0.530976 -0.309939
O110  O     O_R   0.841852 0.455989 0.566567 -0.337653
N4    N     N_R   0.813647 0.446707 0.460539 0.235690
O111  O     O_R   0.861983 0.442981 0.469147 -0.287311
O112  O     O_R   0.794858 0.427507 0.433414 -0.356811
N5    N     N_R   0.659621 0.972790 0.539440 0.237760
O113  O     O_R   0.639961 0.940944 0.530846 -0.297583
O114  O     O_R   0.639793 0.991462 0.566555 -0.349214
N6    N     N_R   0.658957 0.974082 0.460473 0.234783
O115  O     O_R   0.613611 0.986657 0.469050 -0.289822
O116  O     O_R   0.663376 0.950824 0.433371 -0.349817
N7    N     N_R   0.337966 0.969038 0.539446 0.237811
O117  O     O_R   0.354984 0.936417 0.530866 -0.299176
O118  O     O_R   0.359298 0.986860 0.566548 -0.347552
N8    N     N_R   0.338743 0.970292 0.460479 0.234752
O119  O     O_R   0.385039 0.980939 0.469067 -0.288005
O120  O     O_R   0.332439 0.947263 0.433372 -0.350306
N9    N     N_R   0.685958 0.446964 0.039509 0.236217
O121  O     O_R   0.687803 0.412161 0.030955 -0.308494
O122  O     O_R   0.656676 0.457547 0.066597 -0.342534
N10   N     N_R   0.684499 0.447858 0.960544 0.235376
O123  O     O_R   0.636058 0.444923 0.969155 -0.288863
O124  O     O_R   0.702672 0.428353 0.933422 -0.355143
N11   N     N_R   0.337922 0.468919 0.039460 0.237136
O125  O     O_R   0.354848 0.436279 0.030859 -0.299174
O126  O     O_R   0.359285 0.486685 0.066586 -0.353571
N12   N     N_R   0.338723 0.470184 0.960492 0.234424
O127  O     O_R   0.385051 0.480762 0.969071 -0.299088
O128  O     O_R   0.332339 0.447163 0.933388 -0.349898
N13   N     N_R   0.158514 0.974718 0.039436 0.237570
O129  O     O_R   0.137547 0.943307 0.030833 -0.296654
O130  O     O_R   0.139467 0.993794 0.066557 -0.351633
N14   N     N_R   0.157906 0.976034 0.960469 0.234715
O131  O     O_R   0.113099 0.989563 0.969046 -0.293683
O132  O     O_R   0.161368 0.952699 0.933363 -0.349343
N15   N     N_R   0.831344 0.960953 0.039461 0.237419
O133  O     O_R   0.842243 0.927012 0.030896 -0.303551
O134  O     O_R   0.855764 0.976634 0.066549 -0.344614
N16   N     N_R   0.832350 0.962097 0.960496 0.234920
O135  O     O_R   0.880191 0.968317 0.969082 -0.286480
O136  O     O_R   0.821891 0.939860 0.933387 -0.352488

loop_
_geom_bond_atom_site_label_1
_geom_bond_atom_site_label_2
_geom_bond_distance
_ccdc_geom_bond_type
Zn29  O101  1.939569 S    
Zn4   O4    1.929952 S    
C26   C275  1.432959 S    
Zn5   O5    1.929822 S    
O98   C10   1.267404 A    
C58   H26   1.083466 S    
C161  C183  1.418100 A    
C248  N8    1.438340 S    
C106  C114  1.205108 T    
C162  C184  1.418009 A    
C61   H29   1.083472 S    
C135  H55   1.080164 S    
N13   O129  1.301253 A    
C268  C283  1.204938 T    
C175  C185  1.418032 A    
H46   C206  1.083963 S    
N8    O119  1.301340 A    
C133  C149  1.393604 A    
Zn28  O52   1.908309 S    
C269  C286  1.204915 T    
H84   C211  1.083778 S    
Zn22  O6    1.929404 S    
O15   C7    1.266152 A    
H85   C214  1.083847 S    
O16   C8    1.266077 A    
N4    O111  1.301258 A    
C70   C102  1.438517 S    
O60   C44   1.275915 A    
O61   C45   1.275857 A    
Zn18  O26   1.909295 S    
C213  C229  1.398113 A    
Zn7   O70   1.908251 S    
C156  H76   1.082617 S    
H43   C203  1.083958 S    
C100  C124  1.205162 T    
Zn11  O83   1.909167 S    
C101  C125  1.205125 T    
C271  C288  1.204902 T    
Zn26  O98   1.939556 S    
C231  C263  1.441541 S    
H91   C220  1.083811 S    
Zn2   O2    1.929941 S    
C35   C125  1.433699 S    
C28   C273  1.432958 S    
C197  C199  1.383662 A    
C235  C251  1.413222 A    
C97   C121  1.205125 T    
C74   C90   1.401127 A    
C164  C182  1.418026 A    
C233  C249  1.413172 A    
C51   H19   1.083463 S    
H35   C195  1.083976 S    
C258  C273  1.204909 T    
C153  C155  1.389752 A    
O92   C4    1.267443 A    
Zn26  O50   1.908314 S    
Zn29  O37   1.909234 S    
O36   C28   1.275531 A    
Zn31  O55   1.908246 S    
C265  C282  1.204879 T    
C244  N4    1.438199 S    
N15   O133  1.301268 A    
C140  H60   1.080155 S    
Zn22  O46   1.908314 S    
N11   O126  1.301217 A    
C22   C287  1.432955 S    
O21   C13   1.266151 A    
C174  C176  1.418885 A    
C150  H70   1.082581 S    
C188  C204  1.396755 A    
C61   C80   1.398506 A    
C170  C172  1.418864 A    
C219  C235  1.398057 A    
C235  C267  1.441503 S    
C50   C66   1.401111 A    
C51   C82   1.398510 A    
Zn4   O76   1.909102 S    
C217  C233  1.398003 A    
H14   C79   1.083464 S    
C49   C84   1.398506 A    
H48   C208  1.083953 S    
C189  C205  1.396708 A    
C54   C70   1.401086 A    
O95   C7    1.267515 A    
C58   C67   1.401084 A    
C229  C261  1.441545 S    
C130  C146  1.393561 A    
O48   C40   1.276486 A    
H2    C83   1.083493 S    
C53   C88   1.398506 A    
Zn18  O90   1.939556 S    
H45   C205  1.083959 S    
N14   O131  1.301272 A    
H11   C74   1.083504 S    
Zn10  O59   1.908193 S    
C249  N9    1.438162 S    
N5    O114  1.301217 A    
H6    C87   1.083463 S    
H9    C76   1.083507 S    
C260  C275  1.204909 T    
C254  N14   1.438221 S    
C238  C254  1.413258 A    
O87   C31   1.275921 A    
Zn14  O63   1.908193 S    
C243  C244  1.416706 A    
C221  C237  1.398071 A    
O88   C32   1.276112 A    
O55   C38   1.276520 A    
O50   C35   1.276497 A    
O80   C24   1.276115 A    
Zn16  O13   1.939311 S    
C142  C158  1.393549 A    
O23   C15   1.266158 A    
C174  C188  1.418152 A    
H12   C73   1.083467 S    
C227  C243  1.413174 A    
Zn4   O17   1.939311 S    
C157  H77   1.082593 S    
C140  C174  1.415366 A    
C225  C241  1.413186 A    
C52   C68   1.401120 A    
Zn19  O3    1.929541 S    
Zn3   O66   1.908251 S    
O63   C47   1.275861 A    
C42   C114  1.433664 S    
C136  C162  1.415313 A    
N10   O124  1.301200 A    
O86   C30   1.276098 A    
C243  N3    1.438144 S    
O83   C27   1.275900 A    
C213  C214  1.392691 A    
C18   C283  1.433029 S    
Zn25  O4    1.929527 S    
O81   C25   1.276041 A    
Zn26  O3    1.929404 S    
C236  C268  1.441569 S    
O33   C25   1.275577 A    
C263  C280  1.204913 T    
Zn7   O7    1.929827 S    
H93   C222  1.083811 S    
Zn8   O8    1.929952 S    
Zn28  O100  1.939553 S    
Zn12  O1    1.929952 S    
O75   C19   1.276052 A    
C253  N13   1.438214 S    
Zn1   O73   1.909164 S    
C169  C171  1.418864 A    
C190  C206  1.396711 A    
C256  N16   1.438234 S    
C55   H23   1.083465 S    
C90   C106  1.438511 S    
C76   C92   1.401137 A    
O31   C23   1.275739 A    
C2    C187  1.457008 S    
O77   C21   1.275978 A    
C232  C264  1.441547 S    
Zn15  O62   1.908251 S    
O22   C14   1.266068 A    
H37   C197  1.083986 S    
C165  C179  1.417971 A    
C166  C180  1.418016 A    
C60   C73   1.398506 A    
Zn15  O6    1.929827 S    
C239  C255  1.413194 A    
C139  C173  1.415317 A    
N6    O116  1.301220 A    
Zn16  O88   1.909102 S    
C83   C90   1.401115 A    
C95   C111  1.438528 S    
C154  H74   1.082627 S    
C138  H58   1.080164 S    
Zn32  O56   1.908309 S    
O91   C3    1.267531 A    
C210  C226  1.398049 A    
O89   C1    1.267555 A    
O44   C36   1.276498 A    
C137  H57   1.080191 S    
O93   C5    1.267508 A    
Zn30  O102  1.939556 S    
C12   C177  1.457013 S    
Zn9   O4    1.929822 S    
Zn6   O6    1.929941 S    
O99   C11   1.267517 A    
Zn10  O3    1.929941 S    
C179  C195  1.396722 A    
C184  C200  1.396704 A    
C107  C115  1.205136 T    
Zn29  O53   1.908251 S    
C158  H78   1.082580 S    
Zn31  O39   1.909233 S    
C50   C83   1.398495 A    
O20   C12   1.266063 A    
O39   C31   1.275730 A    
Zn4   O65   1.908188 S    
Zn17  O41   1.908251 S    
O40   C32   1.275532 A    
C59   C74   1.398543 A    
C182  C198  1.396706 A    
C23   C286  1.432952 S    
C32   C277  1.432962 S    
Zn9   O60   1.908256 S    
C201  C203  1.383706 A    
Zn3   O18   1.939301 S    
C247  N7    1.438295 S    
C67   C99   1.438525 S    
H90   C217  1.083783 S    
C68   C100  1.438569 S    
H7    C86   1.083465 S    
H10   C75   1.083465 S    
Zn13  O64   1.908256 S    
C252  N12   1.438234 S    
Zn26  O34   1.909295 S    
C147  H67   1.082602 S    
C261  C278  1.204913 T    
C234  C266  1.441564 S    
O67   C42   1.275765 A    
C238  C270  1.441558 S    
C132  H52   1.080193 S    
H41   C201  1.083955 S    
O65   C44   1.275764 A    
C108  C116  1.205119 T    
Zn19  O27   1.909233 S    
C17   C284  1.432917 S    
C109  C117  1.205133 T    
Zn2   O74   1.909103 S    
N15   O134  1.301212 A    
C111  C119  1.205133 T    
Zn6   O78   1.909103 S    
C237  C269  1.441550 S    
C253  C254  1.416764 A    
O42   C34   1.276502 A    
C226  C258  1.441550 S    
Zn18  O2    1.929404 S    
C146  C148  1.389755 A    
C251  C252  1.416754 A    
Zn3   O3    1.929827 S    
C163  C181  1.418150 A    
C249  C250  1.416723 A    
C177  C193  1.396731 A    
C98   C122  1.205152 T    
Zn32  O5    1.929412 S    
C158  C160  1.389752 A    
N1    O106  1.301211 A    
C103  C127  1.205125 T    
C137  C175  1.415311 A    
C11   C178  1.457046 S    
C138  C176  1.415380 A    
C52   C81   1.398481 A    
N2    O108  1.301218 A    
Zn2   O67   1.908193 S    
C9    C180  1.457036 S    
C10   C179  1.456975 S    
C44   C116  1.433664 S    
C56   C85   1.398510 A    
C48   C120  1.433721 S    
C81   C92   1.401119 A    
C142  H62   1.080191 S    
C131  H51   1.080224 S    
C82   C91   1.401085 A    
C173  C175  1.418867 A    
N16   O135  1.301291 A    
C264  C279  1.204913 T    
Zn21  O29   1.909234 S    
C7    C190  1.457041 S    
C159  H79   1.082583 S    
O78   C22   1.276069 A    
Zn8   O21   1.939311 S    
C139  C155  1.393520 A    
C56   H24   1.083468 S    
Zn16  O5    1.929952 S    
C154  C156  1.389703 A    
Zn9   O81   1.909164 S    
C272  C287  1.204906 T    
C132  C166  1.415302 A    
C228  C260  1.441550 S    
C31   C278  1.432957 S    
C151  H71   1.082630 S    
N8    O120  1.301237 A    
C178  C194  1.396707 A    
C185  C201  1.396697 A    
C54   H22   1.083467 S    
C191  C207  1.396708 A    
H82   C209  1.083819 S    
C47   C119  1.433721 S    
N9    O122  1.301206 A    
Zn15  O87   1.909167 S    
Zn30  O7    1.929404 S    
O72   C45   1.275865 A    
N4    O112  1.301207 A    
H4    C81   1.083496 S    
O37   C29   1.275700 A    
C161  C163  1.418880 A    
Zn27  O35   1.909233 S    
C65   C97   1.438525 S    
C219  C220  1.392660 A    
C220  C236  1.398064 A    
O35   C27   1.275747 A    
C93   C109  1.438536 S    
Zn24  O32   1.909297 S    
H8    C85   1.083470 S    
N7    O117  1.301301 A    
Zn24  O96   1.939553 S    
C167  C177  1.418042 A    
Zn15  O14   1.939301 S    
C80   C96   1.401095 A    
C88   C93   1.401084 A    
C176  C186  1.418109 A    
Zn12  O84   1.909102 S    
C14   C183  1.457020 S    
Zn25  O49   1.908251 S    
O58   C42   1.275912 A    
C15   C182  1.457039 S    
C239  C271  1.441539 S    
C8    C189  1.457014 S    
O10   C2    1.266074 A    
C172  C190  1.418029 A    
Zn5   O24   1.939302 S    
O73   C17   1.275942 A    
C247  C248  1.416743 A    
Zn6   O23   1.939315 S    
C61   C72   1.401091 A    
C34   C128  1.433710 S    
C134  C164  1.415307 A    
O14   C6    1.266069 A    
H39   C199  1.083991 S    
Zn17  O1    1.929527 S    
H40   C200  1.083961 S    
C43   C115  1.433725 S    
N12   O128  1.301221 A    
C52   H20   1.083495 S    
O70   C47   1.275860 A    
C55   C86   1.398506 A    
C58   C75   1.398506 A    
Zn8   O80   1.909102 S    
C24   C285  1.432951 S    
O82   C26   1.275994 A    
H42   C202  1.083997 S    
C205  C207  1.383693 A    
H38   C198  1.083962 S    
O53   C40   1.276522 A    
C57   C76   1.398532 A    
Zn11  O10   1.939301 S    
O54   C39   1.276497 A    
C129  H49   1.080208 S    
O79   C23   1.275916 A    
Zn13  O8    1.929822 S    
O26   C18   1.275485 A    
H15   C78   1.083466 S    
C144  H64   1.080190 S    
Zn14  O7    1.929941 S    
C214  C230  1.398086 A    
O85   C29   1.275940 A    
O74   C18   1.276188 A    
C4    C185  1.457036 S    
C257  C274  1.204907 T    
C242  N2    1.438216 S    
O30   C22   1.275554 A    
C91   C107  1.438528 S    
Zn20  O28   1.909297 S    
Zn8   O69   1.908188 S    
C45   C117  1.433728 S    
C78   C94   1.401085 A    
C55   C71   1.401086 A    
C16   C181  1.457083 S    
C29   C280  1.432959 S    
O18   C10   1.266082 A    
Zn23  O31   1.909233 S    
C77   C93   1.401086 A    
C223  C224  1.392709 A    
O12   C4    1.266076 A    
N5    O113  1.301289 A    
O13   C5    1.266150 A    
C234  C250  1.413186 A    
C57   H25   1.083492 S    
C259  C276  1.204906 T    
Zn1   O68   1.908256 S    
O24   C16   1.266067 A    
Zn30  O38   1.909295 S    
C84   C89   1.401091 A    
C30   C279  1.432967 S    
C255  N15   1.438194 S    
C46   C118  1.433721 S    
N13   O130  1.301194 A    
C215  C216  1.392695 A    
C39   C121  1.433707 S    
C21   C288  1.432951 S    
O90   C2    1.267431 A    
Zn31  O103  1.939563 S    
H87   C216  1.083884 S    
Zn32  O104  1.939553 S    
O101  C13   1.267504 A    
H88   C215  1.083887 S    
C64   C77   1.398506 A    
C135  C161  1.415386 A    
O25   C17   1.275673 A    
O94   C6    1.267449 A    
C13   C184  1.457024 S    
H16   C77   1.083461 S    
C112  C120  1.205133 T    
C51   C67   1.401084 A    
Zn12  O9    1.939311 S    
O29   C21   1.275652 A    
C218  C234  1.398041 A    
C49   C65   1.401085 A    
O76   C20   1.276102 A    
Zn19  O91   1.939563 S    
Zn10  O82   1.909103 S    
O32   C24   1.275528 A    
O17   C9    1.266156 A    
C102  C126  1.205125 T    
C230  C262  1.441545 S    
C131  C147  1.393581 A    
Zn6   O71   1.908193 S    
C53   C69   1.401081 A    
C136  C152  1.393525 A    
C73   C89   1.401088 A    
C104  C128  1.205125 T    
Zn17  O89   1.939569 S    
C170  C192  1.418015 A    
H92   C219  1.083832 S    
C63   H31   1.083461 S    
C171  C189  1.418023 A    
O34   C26   1.275635 A    
C131  C165  1.415293 A    
N12   O127  1.301294 A    
C162  C164  1.418864 A    
C62   H30   1.083468 S    
C237  C253  1.413187 A    
Zn23  O95   1.939563 S    
N3    O110  1.301210 A    
C143  C159  1.393552 A    
O45   C37   1.276494 A    
C110  C118  1.205136 T    
Zn28  O36   1.909297 S    
C134  H54   1.080197 S    
C202  C204  1.383664 A    
H95   C224  1.083810 S    
C129  C167  1.415301 A    
Zn13  O85   1.909164 S    
C240  C256  1.413240 A    
C141  C157  1.393533 A    
C240  C272  1.441547 S    
Zn31  O6    1.929541 S    
C105  C113  1.205133 T    
C138  C154  1.393557 A    
C99   C123  1.205125 T    
C62   C71   1.401084 A    
C57   C68   1.401166 A    
C137  C153  1.393541 A    
C50   H18   1.083496 S    
Zn5   O77   1.909164 S    
O103  C15   1.267508 A    
Zn7   O79   1.909167 S    
C267  C284  1.204889 T    
Zn1   O20   1.939302 S    
Zn29  O8    1.929527 S    
Zn22  O94   1.939556 S    
Zn2   O19   1.939315 S    
H86   C213  1.083849 S    
Zn27  O51   1.908246 S    
C60   H28   1.083465 S    
C231  C247  1.413273 A    
Zn21  O5    1.929527 S    
C63   C78   1.398506 A    
C145  H65   1.082613 S    
C165  C167  1.418859 A    
C160  H80   1.082586 S    
C69   C101  1.438521 S    
O62   C46   1.275860 A    
Zn7   O22   1.939301 S    
O66   C43   1.275860 A    
O104  C16   1.267483 A    
Zn17  O25   1.909234 S    
C94   C110  1.438532 S    
C6    C191  1.457032 S    
C139  H59   1.080191 S    
C135  C151  1.393548 A    
N7    O118  1.301227 A    
O71   C46   1.275861 A    
Zn27  O99   1.939563 S    
C245  N5    1.438249 S    
C198  C200  1.383727 A    
H47   C207  1.083959 S    
Zn25  O97   1.939569 S    
C56   C72   1.401093 A    
O28   C20   1.275573 A    
C60   C65   1.401091 A    
C209  C210  1.392692 A    
Zn1   O1    1.929822 S    
C224  C240  1.398061 A    
C186  C202  1.396738 A    
Zn16  O61   1.908188 S    
C245  C246  1.416741 A    
C129  C145  1.393608 A    
H83   C212  1.083780 S    
C228  C244  1.413185 A    
C223  C239  1.398073 A    
C64   C69   1.401084 A    
N10   O123  1.301254 A    
H34   C194  1.083954 S    
H81   C210  1.083818 S    
C169  C191  1.418041 A    
O38   C30   1.275532 A    
C155  H75   1.082594 S    
C153  H73   1.082577 S    
C66   C98   1.438562 S    
N3    O109  1.301254 A    
O102  C14   1.267448 A    
O51   C34   1.276494 A    
C211  C227  1.398028 A    
C226  C242  1.413256 A    
Zn20  O44   1.908309 S    
C20   C281  1.433016 S    
O49   C36   1.276493 A    
C209  C225  1.398088 A    
C144  C170  1.415315 A    
C168  C178  1.418030 A    
Zn24  O8    1.929412 S    
Zn24  O48   1.908309 S    
C27   C274  1.432960 S    
C133  H53   1.080155 S    
Zn14  O86   1.909103 S    
O59   C43   1.275857 A    
C25   C276  1.432948 S    
C250  N10   1.438190 S    
H33   C193  1.083976 S    
O11   C3    1.266146 A    
C173  C187  1.418018 A    
O57   C41   1.275857 A    
Zn30  O54   1.908314 S    
N1    O105  1.301271 A    
C251  N11   1.438232 S    
H96   C223  1.083812 S    
C37   C123  1.433703 S    
Zn5   O72   1.908256 S    
C149  C151  1.389703 A    
C59   H27   1.083489 S    
Zn21  O93   1.939569 S    
C206  C208  1.383719 A    
C136  H56   1.080196 S    
H94   C221  1.083810 S    
O69   C48   1.275858 A    
O64   C48   1.275864 A    
O68   C41   1.275865 A    
C33   C127  1.433703 S    
C192  C208  1.396710 A    
C148  H68   1.082592 S    
C40   C122  1.433747 S    
C143  C169  1.415316 A    
C132  C148  1.393546 A    
Zn27  O2    1.929541 S    
N16   O136  1.301212 A    
Zn20  O92   1.939553 S    
H89   C218  1.083773 S    
C262  C277  1.204913 T    
H36   C196  1.083957 S    
O47   C39   1.276491 A    
Zn12  O57   1.908188 S    
Zn25  O33   1.909234 S    
N6    O115  1.301295 A    
C146  H66   1.082584 S    
O52   C33   1.276493 A    
C233  C265  1.441506 S    
N11   O125  1.301276 A    
O27   C19   1.275562 A    
Zn20  O4    1.929412 S    
C75   C91   1.401089 A    
C144  C160  1.393530 A    
Zn3   O75   1.909167 S    
C241  C242  1.416734 A    
C212  C228  1.398043 A    
O56   C37   1.276493 A    
C5    C192  1.457029 S    
C92   C108  1.438521 S    
C157  C159  1.389742 A    
C150  C152  1.389760 A    
C140  C156  1.393597 A    
C3    C186  1.457051 S    
C227  C259  1.441542 S    
Zn22  O30   1.909295 S    
O96   C8    1.267435 A    
C216  C232  1.398133 A    
C1    C188  1.457090 S    
C225  C257  1.441555 S    
C87   C94   1.401086 A    
O19   C11   1.266156 A    
C141  C171  1.415319 A    
C142  C172  1.415309 A    
N9    O121  1.301244 A    
C63   C70   1.401084 A    
C215  C231  1.398151 A    
C54   C87   1.398506 A    
C270  C285  1.204922 T    
C62   C79   1.398506 A    
C143  H63   1.080183 S    
C85   C96   1.401091 A    
C41   C113  1.433725 S    
H44   C204  1.083985 S    
C86   C95   1.401089 A    
C217  C218  1.392677 A    
C241  N1    1.438209 S    
C152  H72   1.082590 S    
C134  C150  1.393542 A    
O43   C35   1.276491 A    
C266  C281  1.204926 T    
C130  C168  1.415308 A    
C193  C195  1.383740 A    
C246  N6    1.438276 S    
C255  C256  1.416718 A    
C141  H61   1.080187 S    
C130  H50   1.080191 S    
C181  C197  1.396750 A    
O9    C1    1.266144 A    
C180  C196  1.396697 A    
Zn9   O12   1.939302 S    
C166  C168  1.418877 A    
Zn10  O11   1.939315 S    
O100  C12   1.267448 A    
C194  C196  1.383703 A    
O84   C28   1.276109 A    
Zn11  O2    1.929827 S    
Zn28  O1    1.929412 S    
Zn13  O16   1.939302 S    
C183  C199  1.396730 A    
Zn14  O15   1.939315 S    
N14   O132  1.301208 A    
C232  C248  1.413352 A    
H13   C80   1.083467 S    
C89   C105  1.438528 S    
C79   C95   1.401086 A    
C59   C66   1.401158 A    
C71   C103  1.438525 S    
C133  C163  1.415362 A    
C72   C104  1.438521 S    
H3    C82   1.083467 S    
Zn19  O43   1.908246 S    
C49   H17   1.083469 S    
C211  C212  1.392707 A    
C187  C203  1.396689 A    
H1    C84   1.083465 S    
Zn11  O58   1.908251 S    
C145  C147  1.389776 A    
C230  C246  1.413306 A    
Zn23  O7    1.929541 S    
C36   C126  1.433703 S    
C53   H21   1.083465 S    
C96   C112  1.438528 S    
H5    C88   1.083462 S    
O97   C9    1.267507 A    
C221  C222  1.392688 A    
C229  C245  1.413228 A    
C236  C252  1.413272 A    
N2    O107  1.301279 A    
Zn18  O42   1.908314 S    
Zn21  O45   1.908251 S    
O46   C38   1.276490 A    
C19   C282  1.432910 S    
C64   H32   1.083463 S    
C38   C124  1.433751 S    
Zn23  O47   1.908246 S    
O41   C33   1.276494 A    
C149  H69   1.082615 S    
Zn32  O40   1.909297 S    
C222  C238  1.398030 A    
