data_mof_unit_17612.cif
_audit_creation_date              2012-12-10T17:07:12-0500
_audit_creation_method            fapswitch 2.2
_symmetry_space_group_name_H-M    P1
_symmetry_Int_Tables_number       1
_space_group_crystal_system       triclinic
_cell_length_a                    17.262726
_cell_length_b                    11.020833
_cell_length_c                    9.984208
_cell_angle_alpha                 110.856163
_cell_angle_beta                  94.752797
_cell_angle_gamma                 94.577517
_cell_volume                      1756.70078716

loop_
_atom_site_label
_atom_site_type_symbol
_atom_type_description
_atom_site_fract_x
_atom_site_fract_y
_atom_site_fract_z
_atom_type_partial_charge
C1    C     C_R   0.494192 0.254452 0.441367 0.852061
C2    C     C_R   0.505808 0.745548 0.558633 0.852060
C3    C     C_2   0.491027 0.114603 0.408728 -0.347711
C4    C     C_2   0.508972 0.885397 0.591272 -0.347711
C5    C     C_2   0.501502 0.069681 0.515763 -0.158290
C6    C     C_2   0.498498 0.930319 0.484237 -0.158289
C7    C     C_2   0.507587 0.512406 0.079767 0.261253
C8    C     C_2   0.492413 0.487594 0.920233 0.261252
C9    C     C_R   0.352223 0.500187 0.517776 0.836429
C10   C     C_R   0.647777 0.499814 0.482224 0.836429
C11   C     C_R   0.268213 0.499228 0.523694 -0.066481
C12   C     C_R   0.731787 0.500772 0.476306 -0.066482
C13   C     C_R   0.216226 0.396792 0.419556 0.101604
C14   C     C_R   0.783774 0.603208 0.580445 0.101605
C15   C     C_R   0.136376 0.413450 0.400108 0.217881
C16   C     C_R   0.863624 0.586549 0.599893 0.217881
C17   C     C_R   0.108972 0.526392 0.495468 0.097884
C18   C     C_R   0.891027 0.473607 0.504533 0.097883
C19   C     C_R   0.160495 0.623106 0.602287 -0.271871
C20   C     C_R   0.839504 0.376893 0.397713 -0.271871
C21   C     C_R   0.240031 0.610966 0.616394 0.102040
C22   C     C_R   0.759969 0.389034 0.383606 0.102041
C23   C     C_2   0.026052 0.544553 0.492464 -0.207050
C24   C     C_2   0.973948 0.455445 0.507537 -0.207051
Cu1   Cu    Cu3+1 0.513640 0.521550 0.643210 0.941802
Cu2   Cu    Cu3+1 0.486360 0.478450 0.356790 0.941802
H1    H     H_    0.991451 0.363801 0.510667 0.166071
H2    H     H_    0.008549 0.636197 0.489334 0.166071
H3    H     H_    0.138807 0.709190 0.674749 0.149698
H4    H     H_    0.861193 0.290809 0.325250 0.149698
H5    H     H_    0.487519 0.864079 0.372097 0.186961
H6    H     H_    0.512481 0.135921 0.627903 0.186960
H7    H     H_    0.519848 0.952011 0.703222 0.151239
H8    H     H_    0.480152 0.047989 0.296778 0.151239
H9    H     H_    0.578228 0.625649 0.918368 0.184902
H10   H     H_    0.421772 0.374351 0.081631 0.184902
N1    N     N_2   0.465840 0.446060 0.141630 -0.287914
N2    N     N_2   0.534160 0.553940 0.858370 -0.287913
O1    O     O_R   0.507280 0.332200 0.576490 -0.587749
O2    O     O_R   0.492720 0.667800 0.423510 -0.587749
O3    O     O_R   0.484240 0.295800 0.334620 -0.569646
O4    O     O_R   0.515760 0.704200 0.665380 -0.569646
O5    O     O_R   0.399260 0.520290 0.634950 -0.564758
O6    O     O_R   0.600740 0.479710 0.365050 -0.564758
O7    O     O_R   0.376220 0.483890 0.393080 -0.573588
O8    O     O_R   0.623780 0.516110 0.606920 -0.573588
C25   C     C_3   0.245350 0.270395 0.328521 -0.845967
H11   H     H_    0.206383 0.185220 0.328394 0.230857
H12   H     H_    0.246585 0.266333 0.216041 0.238495
H13   H     H_    0.304671 0.259019 0.370925 0.214420
C26   C     C_3   0.754649 0.729604 0.671481 -0.845966
H14   H     H_    0.793616 0.814779 0.671610 0.230857
H15   H     H_    0.695328 0.740980 0.629078 0.214420
H16   H     H_    0.753415 0.733664 0.783961 0.238495
N3    N     N_3   0.707257 0.285248 0.278797 -0.572071
H17   H     H_    0.712710 0.199884 0.300191 0.213416
H18   H     H_    0.724825 0.270383 0.176951 0.222054
N4    N     N_3   0.292743 0.714752 0.721202 -0.572071
H19   H     H_    0.287290 0.800116 0.699807 0.213416
H20   H     H_    0.275175 0.729617 0.823048 0.222054
C27   C     C_3   0.917393 0.686407 0.725270 -0.883335
H21   H     H_    0.889653 0.708345 0.826383 0.237147
H22   H     H_    0.973821 0.651372 0.746535 0.240948
H23   H     H_    0.929539 0.777855 0.703914 0.225316
C28   C     C_3   0.082607 0.313591 0.274732 -0.883336
H24   H     H_    0.110347 0.291652 0.173618 0.237147
H25   H     H_    0.070461 0.222144 0.296089 0.225316
H26   H     H_    0.026179 0.348626 0.253467 0.240948
C29   C     C_3   0.426141 0.381738 0.836750 -0.778689
H27   H     H_    0.370811 0.408778 0.882817 0.189525
H28   H     H_    0.413377 0.361374 0.722241 0.276617
H29   H     H_    0.439335 0.287519 0.845094 0.176504
C30   C     C_3   0.573859 0.618262 0.163250 -0.778689
H30   H     H_    0.629189 0.591223 0.117183 0.189524
H31   H     H_    0.560664 0.712481 0.154906 0.176504
H32   H     H_    0.586623 0.638626 0.277758 0.276618

loop_
_geom_bond_atom_site_label_1
_geom_bond_atom_site_label_2
_ccdc_geom_bond_type
Cu1   O4    S    
C10   O8    A    
C29   H29   S    
C2    C4    S    
N3    H17   S    
Cu2   N1    S    
C9    O7    A    
C22   N3    S    
C2    O2    A    
Cu1   N2    S    
C27   H23   S    
C9    C11   S    
C30   H30   S    
C14   C26   S    
Cu2   O7    S    
C24   H1    S    
C23   C24   D    
C26   H16   S    
Cu1   O5    S    
C13   C15   A    
C6    H5    S    
C7    N1    D    
C3    C5    D    
Cu2   O6    S    
C21   N4    S    
C25   H12   S    
C16   C18   A    
C20   H4    S    
C23   H2    S    
Cu1   O1    S    
C11   C13   A    
Cu2   O2    S    
C8    C29   S    
C17   C23   S    
C27   H21   S    
C10   C12   S    
C8    N2    D    
C2    O4    A    
C18   C24   S    
C5    C6    S    
C10   O6    A    
C1    O3    A    
H10   N1    S    
C17   C19   A    
C12   C14   A    
C25   H13   S    
C18   C20   A    
N3    H18   S    
C29   H27   S    
C30   H32   S    
C14   C16   A    
C9    O5    A    
C4    C6    D    
C19   C21   A    
C16   C27   S    
C30   H31   S    
C26   H15   S    
N4    H20   S    
C26   H14   S    
C15   C28   S    
C12   C22   A    
C7    C30   S    
C7    C8    S    
C28   H26   S    
Cu2   O3    S    
C29   H28   S    
C28   H24   S    
Cu1   Cu2   S    
C15   C17   A    
C1    O1    A    
H9    N2    S    
C3    H8    S    
C28   H25   S    
N4    H19   S    
C4    H7    S    
C13   C25   S    
Cu1   O8    S    
C11   C21   A    
C5    H6    S    
C25   H11   S    
C27   H22   S    
C20   C22   A    
C1    C3    S    
C19   H3    S    
