data_mof_unit_51624.cif
_audit_creation_date              2012-12-10T19:04:44-0500
_audit_creation_method            fapswitch 2.2
_symmetry_space_group_name_H-M    P1
_symmetry_Int_Tables_number       1
_space_group_crystal_system       triclinic
_cell_length_a                    15.825292
_cell_length_b                    10.850981
_cell_length_c                    9.59316
_cell_angle_alpha                 90.752409
_cell_angle_beta                  89.228483
_cell_angle_gamma                 92.175015
_cell_volume                      1645.869538

loop_
_atom_site_label
_atom_site_type_symbol
_atom_type_description
_atom_site_fract_x
_atom_site_fract_y
_atom_site_fract_z
_atom_type_partial_charge
C1    C     C_R   0.498435 0.262661 0.499365 0.787347
C2    C     C_3   0.082605 0.495198 0.503497 0.110043
C3    C     C_3   0.975080 0.607299 0.464344 -0.183322
C4    C     C_3   0.916777 0.495771 0.501473 0.108167
C5    C     C_3   0.030117 0.521061 0.374151 -0.177912
C6    C     C_3   0.970310 0.409379 0.410855 -0.202056
C7    C     C_1   0.174424 0.496670 0.503468 -0.076223
C8    C     C_1   0.825148 0.496450 0.498651 -0.073939
C9    C     C_R   0.501265 0.066079 0.622996 0.063905
C10   C     C_R   0.491273 0.129568 0.499365 -0.099267
C11   C     C_R   0.471314 0.061713 0.377564 -0.220619
C12   C     C_R   0.339918 0.499373 0.500782 0.827474
C13   C     C_R   0.471965 0.932837 0.378188 -0.205570
C14   C     C_R   0.490302 0.870674 0.501646 -0.074140
C15   C     C_R   0.497118 0.939375 0.625313 0.043245
C16   C     C_3   0.558540 0.935340 0.741555 -0.475506
C17   C     C_3   0.566180 0.076251 0.736800 0.308499
C18   C     C_R   0.568769 0.544413 0.072536 0.168380
C19   C     C_R   0.436774 0.442970 0.077208 -0.076951
C20   C     C_R   0.435843 0.441418 0.929108 0.223054
C21   C     C_R   0.571262 0.536815 0.925915 0.099485
C22   C     C_3   0.622139 0.655085 0.913065 -0.073983
C23   C     C_R   0.498585 0.737658 0.500674 0.784042
C24   C     C_3   0.606610 0.673475 0.071282 -0.125165
C25   C     C_R   0.659975 0.499008 0.499200 0.816762
C26   C     C_3   0.969563 0.470169 0.630406 0.199219
C27   C     C_3   0.023914 0.384095 0.540382 0.195659
C28   C     C_1   0.250105 0.497993 0.502596 -0.186540
C29   C     C_1   0.749604 0.497397 0.497729 -0.193935
C30   C     C_3   0.029045 0.581859 0.593858 -0.201422
Cu1   Cu    Cu3+1 0.500000 0.499980 0.640670 0.916793
Cu2   Cu    Cu3+1 0.500000 0.500020 0.359330 0.925008
H1    H     H_    0.386124 0.397032 0.135775 0.148924
H2    H     H_    0.588218 0.719475 0.848696 0.177411
H3    H     H_    0.556685 0.741435 0.091593 0.145112
H4    H     H_    0.944729 0.339278 0.335682 0.137040
H5    H     H_    0.953397 0.698865 0.432899 0.140962
H6    H     H_    0.461002 0.882688 0.281353 0.158996
N1    N     N_R   0.500530 0.500930 0.147930 -0.205888
N2    N     N_R   0.500530 0.500890 0.852020 -0.211558
O1    O     O_R   0.500000 0.319640 0.618810 -0.617781
O2    O     O_R   0.500010 0.319680 0.381230 -0.580744
O3    O     O_R   0.379070 0.499970 0.618770 -0.574949
O4    O     O_R   0.379080 0.500010 0.381190 -0.579816
O5    O     O_R   0.499990 0.680320 0.618770 -0.577189
O6    O     O_R   0.500000 0.680360 0.381190 -0.590696
O7    O     O_R   0.620920 0.499990 0.618810 -0.576271
O8    O     O_R   0.620930 0.500030 0.381230 -0.585658
C31   C     C_3   0.056649 0.257278 0.574889 -0.406449
C32   C     C_3   0.984755 0.162220 0.600245 -0.852934
H7    H     H_    0.947774 0.186677 0.694853 0.253894
H8    H     H_    0.942115 0.155919 0.509220 0.246733
H9    H     H_    0.011431 0.070359 0.616118 0.242103
H10   H     H_    0.096077 0.225295 0.485822 0.201143
H11   H     H_    0.097483 0.264946 0.667937 0.197152
H12   H     H_    0.616624 0.888209 0.710889 0.185595
C33   C     C_3   0.530951 0.139204 0.870321 -0.414089
C34   C     C_3   0.583638 0.118796 0.000007 -0.872624
H13   H     H_    0.586932 0.019083 0.022322 0.253567
H14   H     H_    0.648511 0.159789 0.987234 0.247076
H15   H     H_    0.553816 0.165008 0.090963 0.250317
H16   H     H_    0.529493 0.239817 0.854045 0.226156
H17   H     H_    0.464944 0.105045 0.891842 0.186975
C35   C     C_3   0.655782 0.128658 0.692619 -0.350475
C36   C     C_3   0.689577 0.087563 0.549163 -0.860348
H18   H     H_    0.684040 0.986156 0.534252 0.252168
H19   H     H_    0.656482 0.132896 0.463940 0.253146
H20   H     H_    0.757570 0.115991 0.540007 0.236104
H21   H     H_    0.655916 0.231103 0.694771 0.204937
H22   H     H_    0.701956 0.100551 0.771238 0.200497
C37   C     C_3   0.364304 0.363861 0.865982 -0.368605
C38   C     C_3   0.280349 0.429123 0.876307 -0.822725
H23   H     H_    0.259016 0.435951 0.986816 0.230806
H24   H     H_    0.286620 0.523628 0.833585 0.271637
H25   H     H_    0.231240 0.375665 0.816966 0.232756
H26   H     H_    0.377367 0.332631 0.758992 0.245624
H27   H     H_    0.356848 0.276051 0.924189 0.148929
C39   C     C_3   0.714068 0.631475 0.861355 -0.322554
C40   C     C_3   0.745606 0.727155 0.755545 -0.873017
H28   H     H_    0.705058 0.723660 0.662030 0.250083
H29   H     H_    0.745701 0.821238 0.802172 0.246859
H30   H     H_    0.811216 0.707648 0.721979 0.240355
H31   H     H_    0.760385 0.631112 0.946178 0.203137
H32   H     H_    0.717866 0.538790 0.811926 0.213998
C41   C     C_3   0.681268 0.696203 0.171172 -0.309826
C42   C     C_3   0.724848 0.822839 0.151182 -0.882812
H33   H     H_    0.753004 0.831996 0.045539 0.268958
H34   H     H_    0.678841 0.896462 0.168416 0.252645
H35   H     H_    0.776181 0.836146 0.228343 0.239685
H36   H     H_    0.655575 0.697079 0.278986 0.231530
H37   H     H_    0.727395 0.621704 0.165156 0.195277
C43   C     C_3   0.930327 0.449180 0.775357 -0.413678
C44   C     C_3   0.997134 0.431322 0.885723 -0.856956
H38   H     H_    0.030408 0.344676 0.865893 0.255070
H39   H     H_    0.043868 0.510294 0.886758 0.250418
H40   H     H_    0.966116 0.425425 0.990076 0.240358
H41   H     H_    0.893699 0.530936 0.804965 0.201170
H42   H     H_    0.885670 0.367885 0.772275 0.199027
H43   H     H_    0.056417 0.542081 0.268880 0.142382
H44   H     H_    0.054594 0.652533 0.668378 0.138102
H45   H     H_    0.458683 0.107763 0.281082 0.158118
H46   H     H_    0.526520 0.899343 0.837274 0.174183

loop_
_geom_bond_atom_site_label_1
_geom_bond_atom_site_label_2
_ccdc_geom_bond_type
C44   H38   S    
C23   O5    A    
C18   C21   A    
C19   C20   A    
C4    C8    S    
C41   H37   S    
C43   H42   S    
C33   H16   S    
C41   C42   S    
C26   C27   S    
Cu1   O3    S    
C12   C28   S    
C18   C24   S    
C8    C29   T    
C12   O3    A    
C17   C35   S    
C37   H26   S    
C20   N2    A    
C42   H34   S    
C34   H14   S    
C31   H10   S    
C30   H44   S    
Cu1   N2    S    
Cu2   N1    S    
C2    C7    S    
C39   H31   S    
Cu1   Cu2   S    
C16   C17   S    
C36   H19   S    
C32   H8    S    
C20   C37   S    
C2    C27   S    
C35   H22   S    
C24   C41   S    
C25   O7    A    
C34   H15   S    
C44   H39   S    
C23   O6    A    
Cu1   O7    S    
C21   C22   S    
Cu2   O8    S    
C38   H25   S    
C43   H41   S    
C33   H17   S    
C25   C29   S    
C22   H2    S    
C24   H3    S    
C15   C16   S    
C32   H9    S    
C5    H43   S    
C22   C39   S    
C38   H24   S    
C19   H1    S    
C40   H29   S    
C42   H33   S    
C34   H13   S    
C31   H11   S    
C7    C28   T    
C14   C23   S    
C3    C30   S    
C18   N1    A    
C16   H12   S    
C6    C27   S    
C36   H20   S    
C32   H7    S    
Cu2   O4    S    
C11   H45   S    
C35   H21   S    
C25   O8    A    
C13   H6    S    
C19   N1    A    
C1    O1    A    
C26   C30   S    
C44   H40   S    
C22   C24   S    
C4    C6    S    
C3    C4    S    
C37   H27   S    
C9    C10   A    
C9    C17   S    
Cu1   O1    S    
C39   C40   S    
Cu2   O6    S    
C1    C10   S    
C38   H23   S    
C3    C5    S    
C42   H35   S    
C40   H30   S    
C4    C26   S    
C41   H36   S    
C2    C30   S    
C35   C36   S    
C9    C15   A    
C37   C38   S    
C12   O4    A    
C16   H46   S    
C11   C13   A    
C33   C34   S    
C5    C6    S    
C21   N2    A    
C43   C44   S    
C6    H4    S    
C36   H18   S    
C10   C11   A    
C40   H28   S    
C2    C5    S    
C39   H32   S    
C1    O2    A    
C3    H5    S    
C31   C32   S    
Cu1   O5    S    
Cu2   O2    S    
C14   C15   A    
C13   C14   A    
C26   C43   S    
C27   C31   S    
C17   C33   S    
