data_mof_unit_16965.cif
_audit_creation_date              2013-03-05T16:08:07-0500
_audit_creation_method            fapswitch 2.2
_symmetry_space_group_name_H-M    P1
_symmetry_Int_Tables_number       1
_space_group_crystal_system       triclinic
_cell_length_a                    6.975364
_cell_length_b                    14.76126
_cell_length_c                    15.806036
_cell_angle_alpha                 90.356167
_cell_angle_beta                  90.57114
_cell_angle_gamma                 90.038423
_cell_volume                      1627.358314

loop_
_atom_site_label
_atom_site_type_symbol
_atom_site_description
_atom_site_fract_x
_atom_site_fract_y
_atom_site_fract_z
_atom_type_partial_charge
O1    O     O_R   0.494400 0.415450 0.412630 -0.606759
O2    O     O_R   0.823940 0.405730 0.586760 -0.601335
O3    O     O_R   0.994240 0.584550 0.587370 -0.575209
C1    C     C_R   0.655518 0.383275 0.614930 1.020704
O4    O     O_R   0.824110 0.404430 0.413240 -0.570580
O5    O     O_R   0.994420 0.583240 0.412620 -0.565234
C2    C     C_R   0.653984 0.380503 0.386014 1.058218
O6    O     O_R   0.494230 0.416760 0.587380 -0.609244
O7    O     O_3   0.660800 0.558670 0.500000 -0.230508
V1    V     V_3+5 0.935650 0.489120 0.500000 1.299068
O8    O     O_R   0.324140 0.594270 0.413240 -0.560259
C3    C     C_R   0.155309 0.613450 0.382108 1.124628
O9    O     O_R   0.323960 0.595570 0.586760 -0.570663
C4    C     C_R   0.155673 0.616940 0.615778 1.139615
V2    V     V_3+5 0.435660 0.510880 0.500000 1.316833
O10   O     O_3   0.160640 0.441330 0.500000 -0.318845
C5    C     C_3   0.003649 0.684045 0.760273 0.327500
C6    C     C_3   0.166001 0.710591 0.822077 0.265493
C7    C     C_3   0.119999 0.811813 0.809423 -0.375981
C8    C     C_3   0.957268 0.784847 0.747129 0.378146
C9    C     C_3   0.099518 0.787694 0.673480 0.360094
C10   C     C_3   0.264918 0.815868 0.734719 -0.388324
C11   C     C_3   0.306816 0.713685 0.748144 0.502074
C12   C     C_3   0.145371 0.686198 0.685549 -0.398395
H1    H     H_    0.372229 0.869861 0.723316 0.205782
C13   C     C_R   0.263295 0.814679 0.240701 0.055980
C14   C     C_R   0.124624 0.807365 0.176025 -0.382627
C15   C     C_R   0.003284 0.729694 0.175169 0.370102
C16   C     C_R   0.018101 0.664534 0.241215 0.533173
C17   C     C_R   0.144818 0.678308 0.310266 -0.398593
C18   C     C_R   0.275280 0.749825 0.305154 -0.005764
C19   C     C_3   0.487892 0.741111 0.295501 0.562526
C20   C     C_3   0.476884 0.815040 0.228802 -0.015996
H2    H     H_    0.521167 0.794838 0.163981 0.143874
C21   C     C_R   0.514002 0.319844 0.747633 0.048603
C22   C     C_R   0.648332 0.314600 0.682716 -0.272381
C23   C     C_R   0.778149 0.241583 0.684395 -0.202273
H3    H     H_    0.884090 0.235207 0.635036 0.153227
C24   C     C_R   0.760570 0.170982 0.743840 0.610746
C25   C     C_R   0.621812 0.177328 0.809438 -0.435194
C26   C     C_R   0.503858 0.254100 0.810518 0.005013
C27   C     C_3   0.289351 0.259850 0.812132 0.788215
C28   C     C_3   0.300743 0.331588 0.742648 -0.027612
H4    H     H_    0.237689 0.310981 0.680506 0.068058
C29   C     C_R   0.504763 0.315974 0.254577 0.094405
C30   C     C_R   0.641198 0.308590 0.319981 -0.385919
C31   C     C_R   0.761262 0.230595 0.321038 0.357111
C32   C     C_R   0.746074 0.164618 0.254930 0.597988
C33   C     C_R   0.621643 0.178279 0.185107 -0.341360
C34   C     C_R   0.494723 0.251496 0.188920 -0.150643
C35   C     C_3   0.280409 0.245482 0.195120 0.582604
C36   C     C_3   0.290777 0.316439 0.265177 0.050726
H5    H     H_    0.244724 0.293666 0.328781 0.115408
O11   O     O_R   0.771650 0.079500 0.908680 -0.590840
O12   O     O_R   0.441690 0.091800 0.082800 -0.595557
O13   O     O_R   0.271460 0.912980 0.083410 -0.595885
C37   C     C_R   0.610641 0.111909 0.113616 1.102556
O14   O     O_R   0.441930 0.090510 0.909280 -0.563852
O15   O     O_R   0.271690 0.911670 0.908660 -0.603519
C38   C     C_R   0.610138 0.110247 0.878811 0.979974
O16   O     O_R   0.771410 0.080810 0.083440 -0.541342
O17   O     O_3   0.605100 0.937580 0.996050 -0.289562
V3    V     V_3+5 0.330220 0.007110 0.996030 1.288375
O18   O     O_R   0.941980 0.900620 0.909250 -0.596972
C39   C     C_R   0.110076 0.880001 0.879788 1.081025
O19   O     O_R   0.941740 0.901920 0.082770 -0.570608
C40   C     C_R   0.111821 0.878465 0.110083 1.093873
V4    V     V_3+5 0.830220 0.985300 0.996000 1.295518
O20   O     O_3   0.105210 0.054870 0.996020 -0.245748
O21   O     O_3   0.202339 0.671196 0.900855 -0.717914
H6    H     H_    0.210903 0.605215 0.889848 0.390779
O22   O     O_3   0.586353 0.764876 0.370429 -0.678040
H7    H     H_    0.725091 0.759632 0.358032 0.336920
N1    N     N_R   0.569152 0.899102 0.256339 0.276831
O23   O     O_R   0.469167 0.970676 0.274977 -0.300136
O24   O     O_R   0.755222 0.903030 0.259467 -0.363507
O25   O     O_3   0.871332 0.094714 0.731101 -0.720530
H8    H     H_    0.810980 0.042364 0.759177 0.320585
O26   O     O_3   0.224184 0.292100 0.890420 -0.682047
H9    H     H_    0.082215 0.293987 0.886065 0.357971
O27   O     O_3   0.197862 0.178790 0.787311 -0.725703
H10   H     H_    0.251032 0.159100 0.732097 0.299476
N2    N     N_R   0.237525 0.421431 0.770091 0.267365
O28   O     O_R   0.055114 0.437794 0.776567 -0.363226
O29   O     O_R   0.359423 0.487501 0.780048 -0.353143
O30   O     O_3   0.886751 0.213834 0.387341 -0.737374
H11   H     H_    0.837569 0.242707 0.439441 0.305460
O31   O     O_3   0.870713 0.614829 0.773370 -0.629100
H12   H     H_    0.841656 0.616788 0.834601 0.355640
O32   O     O_3   0.833473 0.081217 0.261764 -0.634106
H13   H     H_    0.892117 0.074315 0.318609 0.401043
N3    N     N_R   0.213422 0.156942 0.224389 0.219225
O33   O     O_R   0.258055 0.128449 0.299853 -0.376670
O34   O     O_R   0.133035 0.100918 0.171159 -0.321904
O35   O     O_3   0.184472 0.274984 0.121521 -0.668906
H14   H     H_    0.228336 0.236066 0.074163 0.354740
N4    N     N_R   0.199168 0.401396 0.241158 0.284552
O36   O     O_R   0.299567 0.473301 0.224727 -0.296142
O37   O     O_R   0.013285 0.404522 0.235417 -0.318919
O38   O     O_3   0.774905 0.823946 0.746017 -0.738120
H15   H     H_    0.717746 0.806795 0.690540 0.357913
O39   O     O_3   0.062248 0.827546 0.595035 -0.705408
H16   H     H_    0.039599 0.892537 0.607482 0.353523
O40   O     O_3   0.488827 0.674940 0.750151 -0.644622
H17   H     H_    0.544981 0.694595 0.805084 0.361928
O41   O     O_3   0.876825 0.712486 0.109126 -0.717812
H18   H     H_    0.926964 0.739865 0.056811 0.332881
O42   O     O_3   0.928701 0.581522 0.234811 -0.629798
H19   H     H_    0.871329 0.573601 0.177736 0.409499
N5    N     N_R   0.544095 0.652184 0.261695 0.212603
O43   O     O_R   0.609588 0.590484 0.312655 -0.314082
O44   O     O_R   0.502436 0.629532 0.183892 -0.355382

loop_
_geom_bond_atom_site_label_1
_geom_bond_atom_site_label_2
_geom_bond_distance
_ccdc_geom_bond_type
C6    O21   1.398496 S    
O19   V4    2.000491 S    
C1    C22   1.480747 S    
C25   C38   1.484800 S    
C5    O31   1.397071 S    
C28   N2    1.462478 S    
C26   C27   1.499186 S    
C21   C22   1.398241 A    
C1    O6    1.301271 A    
N4    O36   1.300207 A    
C19   O22   1.405583 S    
O11   C38   1.300335 A    
O25   H8    0.989367 S    
C13   C14   1.403960 A    
C23   H3    1.083651 S    
C19   N5    1.469165 S    
N2    O28   1.300186 A    
C24   O25   1.380719 S    
C15   C16   1.426914 A    
O5    C3    1.305259 A    
C17   C18   1.396551 A    
O11   V4    2.004674 S    
O41   H18   0.989513 S    
O14   C38   1.306155 A    
V2    O10   2.175197 S    
C36   N4    1.458529 S    
C5    C8    1.537857 S    
C33   C37   1.492314 S    
O42   H19   0.989491 S    
C6    C7    1.542254 S    
C4    C12   1.501385 S    
N5    O43   1.299751 A    
O38   H15   0.991009 S    
O8    V2    2.000473 S    
C7    C8    1.545517 S    
C15   O41   1.382145 S    
V4    O20   2.175147 S    
C10   H1    1.109814 S    
O12   V3    2.001126 S    
C11   C12   1.543986 S    
C16   O42   1.377243 S    
O21   H6    0.990272 S    
O1    V2    2.011763 S    
C21   C28   1.499093 S    
O7    V1    2.175366 S    
O19   C40   1.306117 A    
C27   O26   1.403089 S    
C32   O32   1.378505 S    
O9    C4    1.302790 A    
C27   O27   1.407500 S    
O40   H17   0.990672 S    
N4    O37   1.299742 A    
C5    C6    1.537175 S    
C5    C12   1.548208 S    
N1    O23   1.300245 A    
C6    C11   1.534902 S    
C2    C30   1.486057 S    
V3    O20   1.721022 S    
C7    C10   1.563411 S    
C24   C25   1.428117 A    
O4    C2    1.305963 A    
O30   H11   0.989412 S    
C29   C36   1.503681 S    
C34   C35   1.501702 S    
C29   C30   1.402933 A    
O27   H10   0.993524 S    
C35   C36   1.520640 S    
O2    C1    1.303851 A    
C28   H4    1.112754 S    
C31   O30   1.382361 S    
C16   C17   1.411233 A    
C35   N3    1.466809 S    
C13   C20   1.503554 S    
C31   C32   1.427076 A    
C8    O38   1.397206 S    
O17   V3    2.175408 S    
N3    O34   1.299042 A    
C20   H2    1.112071 S    
O13   V3    2.010110 S    
O31   H12   0.991041 S    
O3    C4    1.297972 A    
N1    O24   1.299595 A    
C9    O39   1.397813 S    
C32   C33   1.412758 A    
N2    O29   1.301232 A    
O6    V2    2.004506 S    
O12   C37   1.304033 A    
C27   C28   1.532958 S    
O2    V1    2.010958 S    
O18   V4    2.012862 S    
C14   C15   1.424548 A    
C36   H5    1.112381 S    
O14   V3    2.010940 S    
C30   C31   1.424233 A    
C25   C26   1.400996 A    
C3    C17   1.491096 S    
O1    C2    1.299857 A    
C18   C19   1.497926 S    
O22   H7    0.992278 S    
O5    V1    2.010024 S    
O8    C3    1.303761 A    
C37   O16   1.305541 A    
O13   C40   1.299452 A    
O15   V3    2.005575 S    
O17   V4    1.720628 S    
O18   C39   1.301503 A    
O9    V2    2.012893 S    
O7    V2    1.721169 S    
O4    V1    2.001207 S    
C23   C24   1.413599 A    
O3    V1    2.005554 S    
V1    O10   1.721078 S    
C19   C20   1.523496 S    
O16   V4    2.013443 S    
O32   H13   0.989370 S    
C29   C34   1.404965 A    
N3    O33   1.302139 A    
C7    C39   1.497529 S    
C11   O40   1.392977 S    
O39   H16   0.991206 S    
C21   C26   1.395738 A    
N5    O44   1.302367 A    
C14   C40   1.485820 S    
O26   H9    0.992408 S    
C20   N1    1.459467 S    
C13   C18   1.404228 A    
C8    C9    1.537860 S    
C22   C23   1.408393 A    
C33   C34   1.398939 A    
C9    C12   1.544766 S    
O35   H14   0.991668 S    
C10   C11   1.552063 S    
C9    C10   1.553402 S    
O15   C39   1.297696 A    
C35   O35   1.407812 S    
