data_mof_unit_11402.cif
_audit_creation_date              2012-12-10T17:42:42-0500
_audit_creation_method            fapswitch 2.2
_symmetry_space_group_name_H-M    P1
_symmetry_Int_Tables_number       1
_space_group_crystal_system       triclinic
_cell_length_a                    10.083376
_cell_length_b                    10.650495
_cell_length_c                    13.333311
_cell_angle_alpha                 95.540872
_cell_angle_beta                  71.985698
_cell_angle_gamma                 88.501016
_cell_volume                      1352.97242888

loop_
_atom_site_label
_atom_site_type_symbol
_atom_type_description
_atom_site_fract_x
_atom_site_fract_y
_atom_site_fract_z
_atom_type_partial_charge
C1    C     C_R   0.497709 0.738872 0.497858 0.856619
C2    C     C_R   0.374256 0.521753 0.822600 -0.164766
C3    C     C_R   0.366471 0.865220 0.357746 -0.227140
C4    C     C_R   0.422358 0.506768 0.704009 0.948582
C5    C     C_R   0.325511 0.928209 0.283909 0.061788
C6    C     C_R   0.387042 0.041335 0.253418 0.462497
C7    C     C_R   0.471339 0.096440 0.309400 0.077893
C8    C     C_R   0.473943 0.052217 0.404906 -0.021385
C9    C     C_R   0.442571 0.927189 0.419438 0.062382
C10   C     C_R   0.488100 0.871668 0.496148 -0.027521
C11   C     C_R   0.528337 0.944407 0.572546 -0.130517
C12   C     C_R   0.431064 0.505644 0.987088 0.018250
C13   C     C_R   0.538913 0.071910 0.567713 -0.122047
C14   C     C_R   0.513804 0.125470 0.483686 -0.038927
C15   C     C_R   0.832054 0.722770 0.576944 -0.279922
C16   C     C_R   0.505340 0.260049 0.491701 0.857290
C17   C     C_R   0.894779 0.838653 0.580393 0.323846
C18   C     C_R   0.039078 0.838198 0.557885 0.409534
C19   C     C_R   0.106180 0.725468 0.565350 0.166102
C20   C     C_R   0.055345 0.608798 0.536272 -0.084656
C21   C     C_R   0.912012 0.608236 0.537711 0.049331
C22   C     C_R   0.950907 0.398496 0.457243 0.108913
C23   C     C_R   0.471658 0.528883 0.879752 -0.122295
C24   C     C_R   0.091796 0.396809 0.461498 0.494596
C25   C     C_R   0.576639 0.489221 0.297509 0.915187
C26   C     C_R   0.789132 0.442578 0.008164 0.335289
C27   C     C_R   0.618655 0.463899 0.182035 -0.345709
C28   C     C_R   0.230981 0.526719 0.880545 0.466858
C29   C     C_R   0.189177 0.537238 0.991368 -0.344363
C30   C     C_R   0.286559 0.524393 0.045876 0.518062
C31   C     C_R   0.539569 0.477795 0.030891 0.021473
C32   C     C_R   0.681685 0.480503 0.968260 -0.146401
C33   C     C_R   0.713277 0.534819 0.873682 -0.300991
C34   C     C_R   0.604876 0.573584 0.837556 0.541345
C35   C     C_R   0.514302 0.443573 0.132931 0.441749
C36   C     C_R   0.759321 0.448895 0.118658 0.426657
H1    H     H_    0.329530 0.772276 0.369263 0.215468
H2    H     H_    0.049281 0.018848 0.547829 0.378968
H3    H     H_    0.130144 0.215802 0.431735 0.333226
H4    H     H_    0.913828 0.373208 0.870390 0.374898
H5    H     H_    0.413824 0.329526 0.232519 0.387298
H6    H     H_    0.046801 0.574326 0.876578 0.358663
H7    H     H_    0.139046 0.549062 0.182641 0.360170
H8    H     H_    0.700194 0.720045 0.785240 0.321259
H9    H     H_    0.564223 0.129178 0.630345 0.164177
H10   H     H_    0.722815 0.724812 0.611152 0.246218
H11   H     H_    0.818758 0.560247 0.834740 0.170094
H12   H     H_    0.079603 0.555111 0.035335 0.178958
H13   H     H_    0.544829 0.901978 0.638381 0.147819
H14   H     H_    0.949932 0.398283 0.111137 0.382795
H15   H     H_    0.328782 0.039072 0.126662 0.370190
H16   H     H_    0.734309 0.933306 0.677263 0.334850
I1    I     I_    0.173192 0.847495 0.221979 -0.301836
I2    I     I_    0.659708 0.158437 0.212523 -0.235872
I3    I     I_    0.904486 0.247966 0.360237 -0.157507
I4    I     I_    0.162963 0.757184 0.706078 -0.240828
N1    N     N_R   0.856860 0.501200 0.500990 -0.121476
N2    N     N_R   0.142450 0.501280 0.501020 -0.111251
O1    O     O_R   0.385310 0.683220 0.500000 -0.627260
O2    O     O_3   0.376858 0.095200 0.165742 -0.703169
O3    O     O_3   0.816897 0.950956 0.618331 -0.752718
O4    O     O_3   0.107170 0.948880 0.560051 -0.724291
O5    O     O_3   0.182980 0.292856 0.419662 -0.714437
O6    O     O_3   0.919319 0.396907 0.942696 -0.760839
O7    O     O_3   0.398417 0.376810 0.176542 -0.624371
O8    O     O_3   0.132386 0.526690 0.828728 -0.705713
O9    O     O_3   0.242618 0.544277 0.155319 -0.682069
O10   O     O_3   0.617453 0.674847 0.779695 -0.793190
O11   O     O_R   0.614640 0.683250 0.500010 -0.624337
O12   O     O_R   0.328400 0.499950 0.653610 -0.539701
O13   O     O_R   0.557730 0.499970 0.653620 -0.597234
O14   O     O_R   0.385360 0.316750 0.499990 -0.555731
O15   O     O_R   0.614690 0.316780 0.500000 -0.601417
O16   O     O_R   0.442270 0.500030 0.346380 -0.598526
O17   O     O_R   0.671600 0.500050 0.346390 -0.527495
O18   O     O_3   0.861925 0.431741 0.165654 -0.711559
Zn1   Zn    Zn3+2 0.346880 0.499980 0.499990 1.051818
Zn2   Zn    Zn3+2 0.653120 0.500020 0.500010 1.028358

loop_
_geom_bond_atom_site_label_1
_geom_bond_atom_site_label_2
_ccdc_geom_bond_type
C19   I4    S    
C26   C32   A    
C28   O8    S    
C19   C20   A    
C16   O14   A    
O1    Zn1   S    
C22   N1    A    
C4    O12   A    
C7    C8    A    
C12   C23   A    
O14   Zn1   S    
C3    C9    A    
C22   C24   A    
C5    I1    S    
C28   C29   A    
C18   C19   A    
H16   O3    S    
C1    O1    A    
C5    C6    A    
C35   O7    S    
C25   O16   A    
C26   O6    S    
C36   O18   S    
N2    Zn1   S    
C17   O3    S    
C8    C9    A    
O16   Zn1   S    
O15   Zn2   S    
C9    C10   A    
C30   O9    S    
C13   C14   A    
O12   Zn1   S    
O11   Zn2   S    
C33   C34   A    
C29   H12   S    
C16   O15   A    
C24   N2    A    
C6    O2    S    
C7    I2    S    
C34   O10   S    
C18   O4    S    
H5    O7    S    
C27   C35   A    
C1    O11   A    
C25   O17   A    
C2    C4    S    
C21   N1    A    
C29   C30   A    
C11   H13   S    
H14   O18   S    
C31   C32   A    
C23   C34   A    
C17   C18   A    
C6    C7    A    
C26   C36   A    
C24   O5    S    
C12   C31   A    
C33   H11   S    
C14   C16   S    
H8    O10   S    
C20   N2    A    
C15   C17   A    
C8    C14   A    
C12   C30   A    
N1    Zn2   S    
C1    C10   S    
C3    C5    A    
C22   I3    S    
C27   C36   A    
C25   C27   S    
H3    O5    S    
H4    O6    S    
C32   C33   A    
C13   H9    S    
C11   C13   A    
C31   C35   A    
O13   Zn2   S    
O17   Zn2   S    
C10   C11   A    
C15   C21   A    
C20   C21   A    
C3    H1    S    
H7    O9    S    
C2    C23   A    
H6    O8    S    
C2    C28   A    
H15   O2    S    
C15   H10   S    
C4    O13   A    
H2    O4    S    
