data_mof_unit_60457.cif
_audit_creation_date              2012-12-10T19:17:23-0500
_audit_creation_method            fapswitch 2.2
_symmetry_space_group_name_H-M    P1
_symmetry_Int_Tables_number       1
_space_group_crystal_system       triclinic
_cell_length_a                    22.323189
_cell_length_b                    22.400221
_cell_length_c                    15.007748
_cell_angle_alpha                 89.96063
_cell_angle_beta                  89.981207
_cell_angle_gamma                 90.017819
_cell_volume                      7504.53731034

loop_
_atom_site_label
_atom_site_type_symbol
_atom_type_description
_atom_site_fract_x
_atom_site_fract_y
_atom_site_fract_z
_atom_type_partial_charge
C1    C     C_R   0.080967 0.419176 0.500007 0.906956
C2    C     C_1   0.836605 0.661474 0.499567 -0.004996
C3    C     C_1   0.209596 0.134270 0.450326 0.225557
C4    C     C_1   0.161999 0.765547 0.631779 0.266670
C5    C     C_1   0.120056 0.784515 0.494692 0.150460
C6    C     C_1   0.158763 0.234310 0.627981 0.236686
C7    C     C_1   0.121367 0.215615 0.487851 0.163186
C8    C     C_1   0.641314 0.264132 0.613792 0.174246
C9    C     C_1   0.631990 0.291977 0.466814 0.241121
C10   C     C_1   0.665350 0.740849 0.639141 0.236945
C11   C     C_1   0.621037 0.715256 0.506084 0.163230
C12   C     C_1   0.075548 0.584460 0.087634 0.347880
C13   C     C_1   0.336715 0.838358 0.499586 -0.018316
C14   C     C_1   0.086870 0.573330 0.902840 0.322405
C15   C     C_1   0.946260 0.399168 0.098395 0.233557
C16   C     C_1   0.928463 0.412074 0.913904 0.279060
C17   C     C_1   0.574960 0.084986 0.087526 0.345846
C18   C     C_1   0.586463 0.073811 0.902774 0.320589
C19   C     C_1   0.446914 0.898843 0.098412 0.232014
C20   C     C_1   0.429005 0.911647 0.913929 0.276616
C21   C     C_1   0.336772 0.161637 0.499474 -0.004814
C22   C     C_1   0.874371 0.375590 0.500119 -0.140644
C23   C     C_1   0.874426 0.624443 0.499895 -0.148388
C24   C     C_1   0.374498 0.875449 0.499962 -0.152770
C25   C     C_1   0.374519 0.124532 0.499866 -0.148867
C26   C     C_3   0.992173 0.435590 0.052011 -0.322183
C27   C     C_3   0.985808 0.436858 0.947156 -0.313247
C28   C     C_3   0.060033 0.524509 0.052707 -0.308088
C29   C     C_R   0.080971 0.580827 0.499975 0.904311
C30   C     C_3   0.061533 0.519904 0.947572 -0.257691
C31   C     C_3   0.492588 0.935553 0.052013 -0.321417
C32   C     C_3   0.486201 0.936776 0.947161 -0.312739
C33   C     C_3   0.559876 0.024907 0.052692 -0.307142
C34   C     C_3   0.561417 0.020268 0.947563 -0.256990
C35   C     C_3   0.998571 0.500743 0.090140 -0.029182
C36   C     C_3   0.998368 0.501345 0.909881 0.002679
C37   C     C_3   0.498570 0.000747 0.090137 -0.028837
C38   C     C_3   0.498365 0.001334 0.909877 0.003417
C39   C     C_3   0.949561 0.546229 0.947012 0.653010
C40   C     C_R   0.580948 0.919157 0.500007 0.906911
C41   C     C_3   0.946051 0.541378 0.053428 0.769673
C42   C     C_3   0.449289 0.045927 0.947009 0.652461
C43   C     C_3   0.445786 0.041039 0.053420 0.769442
C44   C     C_1   0.999322 0.500465 0.809012 0.111167
C45   C     C_1   0.999398 0.500252 0.190984 0.195390
C46   C     C_1   0.499321 0.000459 0.809010 0.110490
C47   C     C_1   0.499401 0.000260 0.190983 0.194734
C48   C     C_R   0.919000 0.419235 0.500033 0.900904
C49   C     C_R   0.919006 0.580765 0.499986 0.905545
C50   C     C_R   0.419020 0.919210 0.500018 0.904848
C51   C     C_R   0.580961 0.080834 0.499974 0.909070
C52   C     C_R   0.419017 0.080775 0.499983 0.906064
C53   C     C_3   0.813375 0.237856 0.558159 0.264624
C54   C     C_3   0.776388 0.272968 0.399407 0.161805
C55   C     C_3   0.809606 0.759357 0.566372 0.200452
C56   C     C_3   0.782401 0.732197 0.399740 0.231623
C57   C     C_3   0.305187 0.744781 0.575261 0.274007
C58   C     C_3   0.288488 0.761483 0.402716 0.190744
C59   C     C_3   0.306223 0.255980 0.573841 0.201254
C60   C     C_3   0.287618 0.237362 0.402053 0.232389
C61   C     C_3   0.231825 0.717676 0.400496 0.330147
C62   C     C_1   0.161932 0.663028 0.500026 0.011651
C63   C     C_3   0.261823 0.689284 0.563046 0.256312
C64   C     C_3   0.233283 0.283453 0.400223 0.306417
C65   C     C_3   0.261511 0.311077 0.563010 0.272832
C66   C     C_3   0.734525 0.215367 0.401992 0.296053
C67   C     C_3   0.760469 0.190402 0.566691 0.263433
C68   C     C_3   0.727993 0.778213 0.398847 0.306015
C69   C     C_3   0.764304 0.813867 0.554452 0.272750
C70   C     C_1   0.124844 0.625251 0.499942 -0.131565
C71   C     C_1   0.124940 0.374867 0.499975 -0.153614
C72   C     C_1   0.624867 0.125218 0.499945 -0.147015
C73   C     C_1   0.162149 0.337215 0.499746 0.001506
C74   C     C_1   0.624829 0.874758 0.499975 -0.152928
C75   C     C_3   0.790197 0.292935 0.500102 -0.050972
C76   C     C_3   0.790331 0.707194 0.499087 -0.046029
C77   C     C_3   0.290433 0.792637 0.499090 -0.038161
C78   C     C_3   0.290551 0.207409 0.498932 -0.046136
C79   C     C_3   0.207380 0.709451 0.500190 -0.106609
C80   C     C_3   0.207731 0.290853 0.499455 -0.087712
C81   C     C_3   0.707484 0.209394 0.500279 -0.077083
C82   C     C_3   0.707518 0.790646 0.499546 -0.088095
C83   C     C_3   0.179039 0.770907 0.536308 -0.203003
C84   C     C_1   0.662013 0.162945 0.500058 -0.002275
C85   C     C_3   0.178884 0.229189 0.533835 -0.195715
C86   C     C_3   0.677984 0.271434 0.531584 -0.200628
C87   C     C_3   0.680675 0.730955 0.543858 -0.195686
C88   C     C_3   0.730368 0.319505 0.543978 -0.089059
C89   C     C_3   0.728418 0.678295 0.531844 -0.090930
C90   C     C_3   0.226945 0.823014 0.520323 -0.098748
C91   C     C_3   0.227232 0.177139 0.521323 -0.089718
C92   C     C_1   0.868264 0.211245 0.517733 0.238560
C93   C     C_1   0.831684 0.261732 0.346110 0.192515
C94   C     C_1   0.873280 0.777989 0.552866 0.163506
C95   C     C_1   0.661965 0.837034 0.499764 0.001741
C96   C     C_1   0.838509 0.760744 0.366649 0.260466
C97   C     C_1   0.369377 0.725683 0.573038 0.262108
C98   C     C_1   0.345663 0.729841 0.383223 0.221477
C99   C     C_1   0.370354 0.275027 0.569625 0.164858
C100  C     C_1   0.345164 0.267321 0.378640 0.258888
C101  C     C_1   0.184602 0.743017 0.342022 0.416138
C102  C     C_1   0.241425 0.665966 0.651190 0.225082
C103  C     C_1   0.185949 0.262708 0.337312 0.306424
C104  C     C_1   0.239754 0.331589 0.651413 0.329240
C105  C     C_1   0.687083 0.220032 0.332845 0.416611
C106  C     C_1   0.836502 0.338601 0.500145 0.014302
C107  C     C_1   0.739082 0.186530 0.660651 0.222654
C108  C     C_1   0.677668 0.754488 0.343919 0.305414
C109  C     C_1   0.747028 0.838815 0.642498 0.329637
C110  C     C_1   0.740193 0.334814 0.639337 0.284518
C111  C     C_1   0.714468 0.378720 0.505312 0.236029
C112  C     C_1   0.736433 0.642699 0.614993 0.313613
C113  C     C_1   0.707370 0.632003 0.468054 0.227402
C114  C     C_1   0.230617 0.864590 0.597691 0.312462
C115  C     C_1   0.208931 0.863845 0.446909 0.215659
C116  C     C_1   0.231100 0.137420 0.600900 0.311216
H1    H     H_    0.020799 0.406551 0.919777 0.162479
H2    H     H_    0.282385 0.644916 0.373211 0.385378
H3    H     H_    0.320583 0.353278 0.484893 0.372362
H4    H     H_    0.218635 0.366395 0.358315 0.353181
H5    H     H_    0.751138 0.102416 0.557294 0.362978
H6    H     H_    0.806089 0.161649 0.397726 0.373348
H7    H     H_    0.819116 0.851878 0.465431 0.372775
H8    H     H_    0.711017 0.858852 0.349515 0.353996
H9    H     H_    0.773264 0.354490 0.349044 0.358600
H10   H     H_    0.848800 0.224590 0.677294 0.354143
H11   H     H_    0.805840 0.658237 0.335392 0.353208
H12   H     H_    0.034757 0.411713 0.066972 0.168644
H13   H     H_    0.826165 0.764341 0.696393 0.349684
H14   H     H_    0.319053 0.830240 0.331964 0.357482
H15   H     H_    0.313309 0.746970 0.707202 0.346775
H16   H     H_    0.314455 0.166780 0.332409 0.353409
H17   H     H_    0.316126 0.254361 0.705542 0.349845
H18   H     H_    0.878819 0.483736 0.045830 0.361029
H19   H     H_    0.893302 0.546170 0.846235 0.358192
H20   H     H_    0.913847 0.620359 0.081974 0.370909
H21   H     H_    0.930386 0.630839 0.928133 0.363977
H22   H     H_    0.378929 0.982966 0.045754 0.362045
H23   H     H_    0.093413 0.483426 0.930492 0.142180
H24   H     H_    0.393046 0.045569 0.846215 0.359008
H25   H     H_    0.413048 0.119800 0.081960 0.371124
H26   H     H_    0.429627 0.130428 0.928142 0.363826
H27   H     H_    0.096126 0.494887 0.078569 0.141561
H28   H     H_    0.521369 0.906676 0.919775 0.161236
H29   H     H_    0.535328 0.911950 0.066966 0.167854
H30   H     H_    0.593509 0.983964 0.930532 0.141361
H31   H     H_    0.596171 0.995550 0.078599 0.141344
H32   H     H_    0.266953 0.606586 0.518647 0.362780
N1    N     N_1   0.999850 0.500000 0.731150 -0.085544
N2    N     N_1   0.390116 0.705542 0.366992 -0.142069
N3    N     N_1   0.420077 0.289635 0.567071 -0.153166
N4    N     N_1   0.389802 0.290304 0.359418 -0.144414
N5    N     N_1   0.148226 0.762289 0.295147 -0.149626
N6    N     N_1   0.225911 0.647332 0.719371 -0.163692
N7    N     N_1   0.149607 0.246986 0.287558 -0.153271
N8    N     N_1   0.223194 0.348216 0.720171 -0.189540
N9    N     N_1   0.650479 0.223157 0.278407 -0.158431
N10   N     N_1   0.723075 0.182946 0.733845 -0.149028
N11   N     N_1   0.638957 0.736405 0.300276 -0.152380
N12   N     N_1   0.999850 0.500000 0.268850 -0.085851
N13   N     N_1   0.733953 0.858889 0.710862 -0.189192
N14   N     N_1   0.747551 0.347082 0.713480 -0.116643
N15   N     N_1   0.702150 0.424830 0.475601 -0.154910
N16   N     N_1   0.742657 0.614897 0.679399 -0.142599
N17   N     N_1   0.690815 0.595710 0.418961 -0.112885
N18   N     N_1   0.233490 0.897001 0.657607 -0.140164
N19   N     N_1   0.194736 0.895972 0.390240 -0.115522
N20   N     N_1   0.234112 0.106422 0.662507 -0.140566
N21   N     N_1   0.195668 0.100619 0.395566 -0.116385
N22   N     N_1   0.148118 0.762023 0.705961 -0.135385
N23   N     N_1   0.499850 1.000000 0.731150 -0.085922
N24   N     N_1   0.073952 0.795134 0.463094 -0.138052
N25   N     N_1   0.142466 0.237624 0.701080 -0.155711
N26   N     N_1   0.076380 0.204996 0.452871 -0.143595
N27   N     N_1   0.612358 0.258692 0.677320 -0.134766
N28   N     N_1   0.595730 0.308441 0.417403 -0.133712
N29   N     N_1   0.652780 0.747871 0.713271 -0.158110
N30   N     N_1   0.574440 0.703025 0.477521 -0.142209
N31   N     N_1   0.087790 0.631188 0.115027 -0.122897
N32   N     N_1   0.106674 0.614939 0.867797 -0.135473
N33   N     N_1   0.910531 0.370696 0.134766 -0.141976
N34   N     N_1   0.499850 1.000000 0.268850 -0.086386
N35   N     N_1   0.883755 0.392625 0.887787 -0.125092
N36   N     N_1   0.586863 0.131824 0.114820 -0.125567
N37   N     N_1   0.606046 0.115506 0.867682 -0.136792
N38   N     N_1   0.411370 0.870149 0.134795 -0.144084
N39   N     N_1   0.384413 0.891925 0.887830 -0.127496
N40   N     N_1   0.911210 0.190539 0.487488 -0.151058
N41   N     N_1   0.874443 0.253360 0.304285 -0.143809
N42   N     N_1   0.922682 0.792317 0.543134 -0.147718
N43   N     N_1   0.881978 0.782578 0.339956 -0.141603
N44   N     N_1   0.419093 0.711010 0.572086 -0.155174
O1    O     O_R   0.061440 0.438650 0.574260 -0.607786
O2    O     O_R   0.938580 0.438650 0.425740 -0.609503
O3    O     O_R   0.938580 0.561350 0.574260 -0.601472
O4    O     O_R   0.938580 0.561350 0.425740 -0.602589
O5    O     O_R   0.438580 0.938650 0.574260 -0.602815
O6    O     O_R   0.438580 0.938650 0.425740 -0.610042
O7    O     O_R   0.438580 0.061350 0.574260 -0.599835
O8    O     O_R   0.438580 0.061350 0.425740 -0.602534
O9    O     O_3   0.293893 0.641784 0.523844 -0.791728
O10   O     O_3   0.242739 0.661635 0.359386 -0.753840
O11   O     O_3   0.289152 0.363125 0.528554 -0.727818
O12   O     O_R   0.061440 0.438650 0.425740 -0.618166
O13   O     O_3   0.253238 0.338986 0.365917 -0.745988
O14   O     O_3   0.782572 0.132829 0.545588 -0.746473
O15   O     O_3   0.764065 0.161803 0.377859 -0.733256
O16   O     O_3   0.789965 0.863971 0.511278 -0.723871
O17   O     O_3   0.745991 0.831815 0.356285 -0.745235
O18   O     O_3   0.745997 0.319561 0.354540 -0.754596
O19   O     O_3   0.831875 0.258620 0.642890 -0.758743
O20   O     O_3   0.770581 0.685189 0.339030 -0.747181
O21   O     O_3   0.806449 0.736327 0.654175 -0.755733
O22   O     O_3   0.282624 0.804788 0.334279 -0.750580
O23   O     O_R   0.061440 0.561350 0.574260 -0.608281
O24   O     O_3   0.296084 0.772270 0.659140 -0.771132
O25   O     O_3   0.279040 0.193580 0.335090 -0.746899
O26   O     O_3   0.298679 0.228611 0.658215 -0.755134
O27   O     O_3   0.890238 0.518494 0.082654 -0.735163
O28   O     O_3   0.892913 0.533227 0.909512 -0.788827
O29   O     O_3   0.952139 0.598663 0.091263 -0.739627
O30   O     O_3   0.966151 0.604815 0.922013 -0.762038
O31   O     O_3   0.390122 0.017780 0.082615 -0.733051
O32   O     O_3   0.392724 0.032602 0.909482 -0.787020
O33   O     O_3   0.451479 0.098356 0.091279 -0.739336
O34   O     O_R   0.061440 0.561350 0.425740 -0.601321
O35   O     O_3   0.465546 0.104613 0.922040 -0.761139
O36   O     O_R   0.561440 0.938650 0.574260 -0.609744
O37   O     O_R   0.561440 0.938650 0.425740 -0.617860
O38   O     O_R   0.561440 0.061350 0.574260 -0.607512
O39   O     O_R   0.561440 0.061350 0.425740 -0.604131
O40   O     O_R   0.938580 0.438650 0.574260 -0.601348
Zn1   Zn    Zn3+2 0.000010 0.500000 0.599130 1.016517
Zn2   Zn    Zn3+2 0.000010 0.500000 0.400870 1.020669
Zn3   Zn    Zn3+2 0.500010 1.000000 0.599130 1.015360
Zn4   Zn    Zn3+2 0.500010 1.000000 0.400870 1.018869

loop_
_geom_bond_atom_site_label_1
_geom_bond_atom_site_label_2
_ccdc_geom_bond_type
C64   C103  S    
C22   C48   S    
C37   C43   S    
C56   C76   S    
C59   C99   S    
C61   C101  S    
C58   C98   S    
C19   C31   S    
C81   C84   S    
C85   C91   S    
C16   N35   T    
H26   O35   S    
C39   C41   S    
C108  N11   T    
N23   Zn3   S    
C42   O35   S    
C100  N4    T    
C89   C112  S    
C60   C78   S    
C26   C27   S    
C1    C71   S    
C6    C85   S    
C4    N22   T    
C12   C28   S    
H4    O13   S    
H5    O14   S    
C96   N43   T    
C14   C30   S    
C38   C42   S    
H10   O19   S    
C55   C94   S    
C19   N38   T    
C113  N17   T    
C5    C83   S    
C86   C88   S    
C23   C49   S    
H8    O17   S    
H18   O27   S    
C7    N26   T    
C61   C79   S    
C46   N23   T    
C62   C70   T    
C9    N28   T    
C3    C91   S    
H16   O25   S    
O36   Zn3   S    
O12   Zn2   S    
C69   C82   S    
C33   H31   S    
C58   C77   S    
C88   C111  S    
C69   C109  S    
C73   C80   S    
C97   N44   T    
C105  N9    T    
H20   O29   S    
C28   C35   S    
C11   C87   S    
C54   C93   S    
O23   Zn1   S    
C21   C78   S    
C39   O30   S    
C57   C63   S    
O39   Zn4   S    
C53   C75   S    
C32   C38   S    
C37   C47   S    
C82   C95   S    
C102  N6    T    
C81   C86   S    
C109  N13   T    
N34   Zn4   S    
C76   C89   S    
C88   C110  S    
C58   C61   S    
C27   H1    S    
C65   C80   S    
N12   Zn2   S    
C51   O38   A    
H25   O33   S    
C64   C80   S    
H2    O10   S    
C45   N12   T    
C17   C33   S    
C29   O34   A    
O2    Zn2   S    
C63   C102  S    
C42   O32   S    
C68   O17   S    
C74   C95   T    
C59   C78   S    
O1    Zn1   S    
C41   O27   S    
C50   O5    A    
C20   C32   S    
H32   O9    S    
C114  N18   T    
C89   C113  S    
O5    Zn3   S    
C24   C50   S    
C112  N16   T    
C13   C77   S    
C77   C90   S    
C8    N27   T    
C47   N34   T    
C51   O39   A    
C75   C88   S    
C57   C77   S    
C39   O28   S    
O38   Zn3   S    
H3    O11   S    
C91   C116  S    
C26   C35   S    
C28   H27   S    
C3    N21   T    
C15   C26   S    
C63   C79   S    
C49   O3    A    
C22   C106  T    
C99   N3    T    
H21   O30   S    
N1    Zn1   S    
C31   C37   S    
C13   C24   T    
C31   H29   S    
C40   O36   A    
C1    O1    A    
C94   N42   T    
C80   C85   S    
C44   N1    T    
O7    Zn3   S    
C9    C86   S    
O3    Zn1   S    
C62   C79   S    
C31   C32   S    
C65   O11   S    
C57   O24   S    
C101  N5    T    
C53   O19   S    
C57   C97   S    
C53   C92   S    
C33   C34   S    
C111  N15   T    
C10   C87   S    
C50   O6    A    
C52   O7    A    
C26   H12   S    
C90   C115  S    
C104  N8    T    
C18   C34   S    
C14   N32   T    
C72   C84   T    
C67   O14   S    
H13   O21   S    
C52   O8    A    
C55   C76   S    
C58   O22   S    
C103  N7    T    
C49   O4    A    
C67   C81   S    
C87   C89   S    
C78   C91   S    
C36   C44   S    
C42   C43   S    
C66   C105  S    
C115  N19   T    
C35   C45   S    
C107  N10   T    
C2    C76   S    
C71   C73   T    
C29   C70   S    
C98   N2    T    
C56   C96   S    
C83   C90   S    
C21   C25   T    
C69   O16   S    
C30   H23   S    
C63   O9    S    
C48   O2    A    
H15   O24   S    
C34   C38   S    
C10   N29   T    
H6    O15   S    
C36   C39   S    
H24   O32   S    
O8    Zn4   S    
C60   C100  S    
C59   O26   S    
C55   O21   S    
H9    O18   S    
C92   N40   T    
C56   O20   S    
C54   C66   S    
C6    N25   T    
C93   N41   T    
C27   C36   S    
C64   O13   S    
C18   N37   T    
H17   O26   S    
O34   Zn2   S    
C30   C36   S    
C60   C64   S    
C32   H28   S    
C68   C82   S    
C110  N14   T    
C55   C69   S    
O37   Zn4   S    
C28   C30   S    
C25   C52   S    
C56   C68   S    
C60   O25   S    
C59   C65   S    
C20   N39   T    
C79   C83   S    
C66   O15   S    
C34   H30   S    
C17   N36   T    
C67   C107  S    
C7    C85   S    
C4    C83   S    
O4    Zn2   S    
H22   O31   S    
C16   C27   S    
H19   O28   S    
C15   N33   T    
O40   Zn1   S    
C5    N24   T    
C40   C74   S    
H7    O16   S    
H14   O22   S    
C8    C86   S    
C90   C114  S    
C61   O10   S    
C53   C67   S    
C33   C37   S    
C38   C46   S    
C29   O23   A    
C54   C75   S    
C48   O40   A    
C43   O33   S    
H11   O20   S    
C54   O18   S    
C12   N31   T    
C75   C106  S    
C51   C72   S    
C2    C23   T    
C35   C41   S    
C116  N20   T    
O6    Zn4   S    
C68   C108  S    
C65   C104  S    
C40   O37   A    
C1    O12   A    
C11   N30   T    
C41   O29   S    
C43   O31   S    
C82   C87   S    
C66   C81   S    
