data_mof_unit_55025.cif
_audit_creation_date              2013-03-05T16:48:14-0500
_audit_creation_method            fapswitch 2.2
_symmetry_space_group_name_H-M    P1
_symmetry_Int_Tables_number       1
_space_group_crystal_system       triclinic
_cell_length_a                    23.495834
_cell_length_b                    8.929976
_cell_length_c                    8.087153
_cell_angle_alpha                 90.054917
_cell_angle_beta                  89.89412
_cell_angle_gamma                 89.957436
_cell_volume                      1696.81992398

loop_
_atom_site_label
_atom_site_type_symbol
_atom_site_description
_atom_site_fract_x
_atom_site_fract_y
_atom_site_fract_z
_atom_type_partial_charge
O1    O     O_R   0.500000 0.285350 0.636850 -0.612474
O2    O     O_R   0.500000 0.714650 0.363150 -0.622441
O3    O     O_R   0.500000 0.714650 0.636850 -0.615532
O4    O     O_R   0.500000 0.285350 0.363150 -0.624645
C1    C     C_R   0.499991 0.217924 0.499946 0.923145
C2    C     C_R   0.499975 0.782075 0.500047 0.915910
O5    O     O_R   0.416160 0.500000 0.636910 -0.561586
O6    O     O_R   0.583840 0.500000 0.363090 -0.607196
O7    O     O_R   0.583840 0.500000 0.636910 -0.554786
O8    O     O_R   0.416160 0.500000 0.363090 -0.608826
C3    C     C_R   0.208138 0.521581 0.488378 0.016758
C4    C     C_R   0.792767 0.484864 0.486030 0.019681
C5    C     C_R   0.389005 0.503803 0.500138 0.972090
C6    C     C_R   0.611187 0.495409 0.499756 0.967559
Zn1   Zn    Zn3+2 0.500000 0.500000 0.682780 1.073034
Zn2   Zn    Zn3+2 0.500000 0.500000 0.317220 1.039472
C7    C     C_R   0.298754 0.590215 0.368190 0.234054
C8    C     C_R   0.702567 0.439051 0.351912 0.226033
C9    C     C_R   0.295255 0.450812 0.629858 0.389732
C10   C     C_R   0.705167 0.521874 0.641511 0.386574
C11   C     C_R   0.326785 0.516030 0.499949 -0.342580
C12   C     C_R   0.673796 0.484270 0.498248 -0.345379
C13   C     C_R   0.879673 0.627708 0.489628 0.563204
C14   C     C_R   0.121326 0.384979 0.443879 0.565462
C15   C     C_R   0.883416 0.361852 0.453233 0.598665
C16   C     C_R   0.117694 0.648137 0.499522 0.595249
N1    N     N_R   0.853385 0.491667 0.475455 -0.328884
N2    N     N_R   0.147603 0.518385 0.476160 -0.328735
C17   C     C_R   0.942731 0.365634 0.444400 -0.039741
C18   C     C_R   0.058328 0.646717 0.492662 -0.038591
C19   C     C_R   0.938994 0.636322 0.488312 -0.035905
C20   C     C_R   0.062022 0.377194 0.440072 -0.037653
C21   C     C_R   0.970650 0.503890 0.465230 -0.014358
C22   C     C_R   0.030386 0.509392 0.465238 -0.014466
C23   C     C_R   0.974612 0.234838 0.417563 -0.148756
C24   C     C_R   0.026419 0.778151 0.515102 -0.147595
C25   C     C_R   0.967221 0.773131 0.511846 -0.139298
C26   C     C_R   0.033789 0.240740 0.414280 -0.138931
C27   C     C_1   0.499973 0.065180 0.499915 -0.154383
C28   C     C_1   0.499965 0.934817 0.500060 -0.155649
C29   C     C_R   0.239245 0.584980 0.358516 0.485508
C30   C     C_R   0.761967 0.449798 0.343338 0.476861
C31   C     C_R   0.235514 0.458649 0.627393 0.325581
C32   C     C_R   0.764956 0.515170 0.637442 0.322359
N3    N     N_1   0.500000 0.500000 0.073640 0.001889
N4    N     N_1   0.500000 0.500000 0.926360 0.005098
O9    O     O_2   0.848335 0.753577 0.506537 -0.497615
O10   O     O_2   0.152672 0.260453 0.417467 -0.497471
O11   O     O_2   0.855820 0.229740 0.441378 -0.502380
O12   O     O_2   0.145464 0.777343 0.530824 -0.502286
H1    H     H_    0.953982 0.127764 0.399193 0.187527
H2    H     H_    0.047028 0.884862 0.536254 0.187634
H3    H     H_    0.943685 0.876040 0.530720 0.193709
H4    H     H_    0.057292 0.138016 0.393714 0.195525
O13   O     O_3   0.209529 0.643956 0.226069 -0.695501
H5    H     H_    0.236356 0.677104 0.139021 0.397982
O14   O     O_3   0.791876 0.422416 0.198805 -0.690919
H6    H     H_    0.765156 0.407707 0.105718 0.403437
O15   O     O_3   0.205292 0.402112 0.760463 -0.720136
H7    H     H_    0.165036 0.434069 0.754216 0.351639
O16   O     O_3   0.794855 0.540725 0.782025 -0.727734
H8    H     H_    0.834705 0.506774 0.769048 0.353966
O17   O     O_3   0.328098 0.670123 0.249361 -0.719233
H9    H     H_    0.360778 0.720253 0.303306 0.348890
O18   O     O_3   0.673991 0.381863 0.217058 -0.714430
H10   H     H_    0.645191 0.310224 0.259111 0.354208
O19   O     O_3   0.324118 0.379194 0.756403 -0.702189
H11   H     H_    0.296957 0.334948 0.836158 0.400365
O20   O     O_3   0.676280 0.564071 0.783618 -0.691015
H12   H     H_    0.703343 0.593156 0.871575 0.400501

loop_
_geom_bond_atom_site_label_1
_geom_bond_atom_site_label_2
_geom_bond_distance
_ccdc_geom_bond_type
Zn2   N3    1.969869 S    
O4    Zn2   1.952827 S    
C4    C30   1.398622 A    
O13   H5    0.989723 S    
C19   C21   1.408687 A    
C3    C31   1.413079 A    
O1    Zn1   1.952128 S    
C13   N1    1.368060 A    
C32   O16   1.384021 S    
C15   N1    1.368180 A    
O2    Zn2   1.952127 S    
C24   H2    1.082821 S    
C17   C23   1.403594 A    
C16   N2    1.367459 A    
O16   H8    0.989347 S    
C26   H4    1.082919 S    
C18   C24   1.403703 A    
O7    C6    1.281439 A    
O3    C2    1.260083 A    
C25   H3    1.082717 S    
C6    C12   1.474356 S    
C16   O12   1.349907 S    
C14   C20   1.395596 A    
C21   C22   1.404450 A    
O7    Zn1   2.003841 S    
C5    C11   1.465920 S    
O15   H7    0.989146 S    
C4    C32   1.412711 A    
O8    Zn2   2.003843 S    
N3    N4    1.191075 T    
C7    O17   1.381180 S    
C8    O18   1.379531 S    
C9    O19   1.385427 S    
O14   H6    0.989846 S    
O2    C2    1.259736 A    
C3    N2    1.426240 S    
O1    C1    1.259790 A    
O4    C1    1.260040 A    
C30   O14   1.384211 S    
O5    Zn1   2.005191 S    
C24   C25   1.391961 A    
C10   C32   1.406344 A    
C10   C12   1.414627 A    
C16   C18   1.396118 A    
C20   C26   1.403426 A    
C8    C30   1.400612 A    
C23   H1    1.082568 S    
O20   H12   0.989616 S    
C15   O11   1.350025 S    
C10   O20   1.385398 S    
C7    C29   1.401339 A    
C13   O9    1.349941 S    
C18   C22   1.408997 A    
C4    N1    1.428015 S    
O19   H11   0.989307 S    
C14   O10   1.349953 S    
C17   C21   1.408610 A    
O5    C5    1.278400 A    
C2    C28   1.363988 S    
O3    Zn1   1.952826 S    
C15   C17   1.395800 A    
C31   O15   1.384191 S    
O18   H10   0.991479 S    
O6    Zn2   2.005188 S    
C3    C29   1.398790 A    
C27   C28   1.164132 T    
C1    C27   1.364001 S    
C23   C26   1.391644 A    
C29   O13   1.384003 S    
O6    C6    1.280146 A    
C9    C31   1.405545 A    
Zn1   N4    1.969869 S    
C9    C11   1.410909 A    
C20   C22   1.408986 A    
C8    C12   1.419959 A    
C7    C11   1.418219 A    
C19   C25   1.403518 A    
C14   N2    1.367342 A    
O17   H9    0.990808 S    
O8    C5    1.278241 A    
C13   C19   1.395991 A    
