data_mof_unit_49427.cif
_audit_creation_date              2012-10-26T20:17:56-0400
_audit_creation_method            fapswitch 2.2
_symmetry_space_group_name_H-M    P1
_symmetry_Int_Tables_number       1
_space_group_crystal_system       triclinic
_cell_length_a                    13.844534
_cell_length_b                    11.100121
_cell_length_c                    9.815162
_cell_angle_alpha                 111.201336
_cell_angle_beta                  92.634567
_cell_angle_gamma                 92.135943
_cell_volume                      1402.42198906

loop_
_atom_site_label
_atom_site_type_symbol
_atom_type_description
_atom_site_fract_x
_atom_site_fract_y
_atom_site_fract_z
_atom_type_partial_charge
C1    C     C_R   0.495161 0.254759 0.441449 0.541964
C2    C     C_2   0.491979 0.488806 0.919894 -0.005399
C3    C     C_1   0.132101 0.515182 0.554512 -0.034333
C4    C     C_1   0.868001 0.485456 0.445670 -0.028821
C5    C     C_2   0.489826 0.116511 0.409722 -0.116668
C6    C     C_2   0.513927 0.883450 0.589454 -0.098443
C7    C     C_2   0.517713 0.067275 0.511161 0.228348
C8    C     C_2   0.486408 0.932971 0.488594 0.237694
C9    C     C_3   0.046915 0.596463 0.819898 -0.014327
C10   C     C_3   0.990514 0.646816 0.956805 -0.374608
C11   C     C_3   0.953456 0.406149 0.180386 -0.016052
C12   C     C_R   0.505498 0.745330 0.558430 0.544832
C13   C     C_3   0.009903 0.356057 0.043501 -0.373454
C14   C     C_3   0.334563 0.882304 0.369804 -0.007160
C15   C     C_3   0.276673 0.767480 0.383279 -0.231698
C16   C     C_3   0.168065 0.786257 0.380339 -0.491490
C17   C     C_3   0.665417 0.168589 0.619217 0.031872
C18   C     C_3   0.730024 0.067618 0.642084 -0.287447
C19   C     C_3   0.836585 0.100560 0.630320 -0.478845
C20   C     C_R   0.319561 0.503745 0.524739 0.537259
C21   C     C_R   0.680438 0.495896 0.475195 0.538992
C22   C     C_1   0.782097 0.490410 0.457417 -0.046454
C23   C     C_1   0.217954 0.509653 0.542654 -0.049079
C24   C     C_2   0.972335 0.479766 0.436809 0.282153
C25   C     C_2   0.027817 0.521557 0.563391 0.284177
C26   C     C_2   0.507961 0.511276 0.080140 -0.004126
Cu1   Cu    Cu3+1 0.516510 0.521490 0.642840 0.944574
Cu2   Cu    Cu3+1 0.483490 0.478510 0.357160 0.944976
H1    H     H_    0.592294 0.623207 0.922682 0.204398
H2    H     H_    0.039131 0.661261 0.055204 0.092260
H3    H     H_    0.960330 0.740649 0.966393 0.158867
H4    H     H_    0.921554 0.498020 0.184715 0.126390
H5    H     H_    0.894901 0.331887 0.172247 0.137164
H6    H     H_    0.040061 0.262155 0.033677 0.159859
H7    H     H_    0.961307 0.341735 0.945083 0.092451
H8    H     H_    0.070340 0.426725 0.049233 0.155777
H9    H     H_    0.308855 0.894561 0.266929 0.143819
H10   H     H_    0.319032 0.973027 0.461644 0.109940
H11   H     H_    0.291510 0.677519 0.291203 0.203364
H12   H     H_    0.407705 0.376796 0.077320 0.203994
H13   H     H_    0.299492 0.756703 0.488018 0.163461
H14   H     H_    0.151004 0.872582 0.475298 0.145805
H15   H     H_    0.128134 0.699852 0.386276 0.175779
H16   H     H_    0.143425 0.798952 0.277359 0.140050
H17   H     H_    0.689574 0.265236 0.701278 0.174735
H18   H     H_    0.675719 0.174364 0.509593 0.116768
H19   H     H_    0.720315 0.063491 0.752128 0.170018
H20   H     H_    0.708939 0.970842 0.557913 0.155283
H21   H     H_    0.848353 0.102572 0.519942 0.151712
H22   H     H_    0.881573 0.026075 0.647904 0.152265
H23   H     H_    0.549050 0.944434 0.694290 0.108510
H24   H     H_    0.860006 0.196360 0.714577 0.148219
H25   H     H_    0.456630 0.054825 0.303793 0.102106
H26   H     H_    0.437306 0.415768 0.854178 0.156695
H27   H     H_    0.562609 0.584347 0.145871 0.156892
H28   H     H_    0.105116 0.670966 0.827343 0.135342
H29   H     H_    0.079298 0.505072 0.816291 0.127766
H30   H     H_    0.930103 0.576215 0.951364 0.156815
N1    N     N_2   0.458660 0.446210 0.142550 -0.351511
N2    N     N_2   0.541340 0.553790 0.857450 -0.350695
O1    O     O_R   0.508810 0.332170 0.576290 -0.449880
O2    O     O_3   0.017122 0.427633 0.304532 -0.584679
O3    O     O_3   0.434148 0.856618 0.359752 -0.570223
O4    O     O_3   0.567598 0.143144 0.642734 -0.576980
O5    O     O_R   0.491190 0.667830 0.423710 -0.442507
O6    O     O_R   0.480920 0.295870 0.335040 -0.500327
O7    O     O_R   0.519080 0.704130 0.664960 -0.503981
O8    O     O_R   0.378070 0.520740 0.637680 -0.498510
O9    O     O_R   0.621930 0.479260 0.362320 -0.500075
O10   O     O_R   0.350180 0.484440 0.396440 -0.489503
O11   O     O_R   0.649820 0.515560 0.603560 -0.485246
O12   O     O_3   0.983049 0.573789 0.695675 -0.580828

loop_
_geom_bond_atom_site_label_1
_geom_bond_atom_site_label_2
_ccdc_geom_bond_type
Cu2   O6    S    
C17   H18   S    
C9    O12   S    
Cu1   O8    S    
C11   H5    S    
C6    H23   S    
C14   H10   S    
C4    C22   T    
C9    C10   S    
C19   H21   S    
C3    C23   T    
Cu2   O9    S    
C16   H15   S    
H1    N2    S    
C3    C25   S    
C11   O2    S    
C20   O10   A    
C18   H19   S    
C1    O6    A    
C5    C7    D    
C13   H6    S    
C2    C26   S    
C25   O12   S    
C2    H26   S    
C21   C22   S    
C26   H27   S    
C14   H9    S    
C24   O2    S    
C11   C13   S    
C19   H22   S    
C15   H11   S    
C21   O11   A    
C1    C5    S    
C14   O3    S    
C10   H3    S    
C5    H25   S    
C10   H30   S    
C17   H17   S    
C11   H4    S    
C13   H7    S    
C9    H29   S    
Cu1   N2    S    
C17   O4    S    
C6    C12   S    
C4    C24   S    
C12   O7    A    
C2    N2    D    
C7    O4    S    
Cu1   O7    S    
C8    O3    S    
C1    O1    A    
C15   C16   S    
C16   H14   S    
C7    C8    S    
Cu1   O11   S    
C24   C25   D    
C15   H13   S    
C13   H8    S    
C17   C18   S    
C18   C19   S    
C12   O5    A    
Cu2   N1    S    
Cu1   Cu2   S    
C9    H28   S    
C16   H16   S    
C14   C15   S    
C26   N1    D    
C6    C8    D    
C10   H2    S    
Cu1   O1    S    
H12   N1    S    
C20   C23   S    
Cu2   O5    S    
C19   H24   S    
C20   O8    A    
Cu2   O10   S    
C21   O9    A    
C18   H20   S    
