data_mof_unit_20323.cif
_audit_creation_date              2012-12-10T16:52:38-0500
_audit_creation_method            fapswitch 2.2
_symmetry_space_group_name_H-M    P1
_symmetry_Int_Tables_number       1
_space_group_crystal_system       triclinic
_cell_length_a                    7.832949
_cell_length_b                    8.606914
_cell_length_c                    13.757967
_cell_angle_alpha                 93.603826
_cell_angle_beta                  93.080793
_cell_angle_gamma                 94.024127
_cell_volume                      921.834821596

loop_
_atom_site_label
_atom_site_type_symbol
_atom_type_description
_atom_site_fract_x
_atom_site_fract_y
_atom_site_fract_z
_atom_type_partial_charge
C1    C     C_R   0.044563 0.794269 0.497611 0.914130
C2    C     C_R   0.937107 0.489038 0.317867 0.860304
C3    C     C_R   0.099732 0.546548 0.785903 -0.069985
C4    C     C_R   0.908345 0.481926 0.212632 -0.062022
C5    C     C_R   0.079002 0.714000 0.931511 -0.191217
C6    C     C_R   0.965919 0.377117 0.052034 -0.189108
C7    C     C_R   0.012611 0.656646 0.839192 -0.197046
C8    C     C_R   0.014111 0.402411 0.150893 -0.197307
C9    C     C_R   0.246971 0.489803 0.825887 -0.278881
C10   C     C_R   0.763901 0.546954 0.174848 -0.278837
C11   C     C_R   0.326651 0.558783 0.912407 0.093014
C12   C     C_R   0.955349 0.205746 0.502121 0.913499
C13   C     C_R   0.712940 0.523919 0.076104 0.088238
C14   C     C_R   0.237322 0.667945 0.967775 0.176356
C15   C     C_R   0.812509 0.431823 0.015084 0.181364
C16   C     C_R   0.493008 0.522662 0.944331 0.060919
C17   C     C_R   0.558150 0.579081 0.038755 0.062399
C18   C     C_3   0.111384 0.001113 0.313307 -0.796986
C19   C     C_3   0.887252 0.002888 0.686201 -0.798392
C20   C     C_R   0.466192 0.687998 0.092698 -0.229798
C21   C     C_R   0.598094 0.435713 0.883845 -0.236794
C22   C     C_R   0.308901 0.732120 0.057211 -0.228841
C23   C     C_R   0.755693 0.392229 0.918786 -0.222374
C24   C     C_2   0.059575 0.954321 0.481304 -0.024023
C25   C     C_2   0.939972 0.045618 0.517946 -0.024614
C26   C     C_R   0.063508 0.513626 0.682059 0.859781
H1    H     H_    0.243176 0.816945 0.099989 0.145834
H2    H     H_    0.564427 0.403033 0.807961 0.157629
H3    H     H_    0.487312 0.374051 0.427689 0.192567
H4    H     H_    0.512693 0.625905 0.572347 0.193195
H5    H     H_    0.295959 0.955758 0.419112 0.236677
H6    H     H_    0.210531 0.050110 0.266722 0.232890
H7    H     H_    0.998665 0.072209 0.307598 0.235215
H8    H     H_    0.073013 0.878639 0.285964 0.228246
H9    H     H_    0.702700 0.042342 0.578973 0.237145
H10   H     H_    0.788486 0.953822 0.732976 0.235733
H11   H     H_    0.922907 0.126408 0.712230 0.222502
H12   H     H_    0.831697 0.324351 0.870707 0.147725
H13   H     H_    0.001619 0.934114 0.693169 0.236999
H14   H     H_    0.686258 0.605958 0.225605 0.159041
H15   H     H_    0.300955 0.395868 0.785122 0.148711
H16   H     H_    0.128287 0.353116 0.179713 0.159001
H17   H     H_    0.897372 0.701575 0.808391 0.162570
H18   H     H_    0.010545 0.798641 0.972673 0.138580
H19   H     H_    0.044755 0.309926 0.005317 0.140122
H20   H     H_    0.515592 0.746236 0.161137 0.147577
N1    N     N_2   0.440860 0.456490 0.474790 -0.170768
N2    N     N_2   0.559140 0.543510 0.525210 -0.171691
N3    N     N_2   0.180326 0.005858 0.413301 -0.289420
N4    N     N_2   0.819271 0.994108 0.585934 -0.288928
O1    O     O_R   0.891570 0.738930 0.506190 -0.583242
O2    O     O_R   0.108430 0.261070 0.493810 -0.582592
O3    O     O_R   0.174650 0.711050 0.490030 -0.636736
O4    O     O_R   0.825350 0.288950 0.509970 -0.637483
O5    O     O_R   0.909850 0.521900 0.644940 -0.612117
O6    O     O_R   0.090150 0.478100 0.355060 -0.609387
O7    O     O_R   0.192930 0.494020 0.628780 -0.618262
O8    O     O_R   0.807070 0.505980 0.371220 -0.623393
Zn1   Zn    Zn3+2 0.810990 0.518620 0.510790 0.939280
Zn2   Zn    Zn3+2 0.189010 0.481380 0.489210 0.943003

loop_
_geom_bond_atom_site_label_1
_geom_bond_atom_site_label_2
_ccdc_geom_bond_type
C2    C4    S    
C2    O8    A    
C16   C21   A    
C3    C9    A    
C6    H19   S    
C7    H17   S    
C23   H12   S    
C9    C11   A    
C11   C16   A    
C9    H15   S    
N1    N2    D    
C8    H16   S    
C13   C17   A    
C12   C25   S    
C4    C8    A    
C26   O5    A    
C14   C22   A    
H9    N4    S    
C21   C23   A    
N1    Zn2   S    
N2    Zn1   S    
C2    O6    A    
C1    O1    A    
C19   N4    S    
C5    C14   A    
C19   H13   S    
H5    N3    S    
C18   H8    S    
H4    N2    S    
C12   O2    A    
C21   H2    S    
H3    N1    S    
C3    C7    A    
C19   H10   S    
C13   C15   A    
C22   H1    S    
C26   O7    A    
C12   O4    A    
C19   H11   S    
O8    Zn1   S    
O1    Zn1   S    
C18   H7    S    
C15   C23   A    
C4    C10   A    
O5    Zn1   S    
C24   N3    S    
C17   C20   A    
C18   H6    S    
C24   C25   D    
C1    C24   S    
C10   H14   S    
C11   C14   A    
C5    C7    A    
C1    O3    A    
C25   N4    S    
O7    Zn2   S    
C6    C8    A    
O2    Zn2   S    
C6    C15   A    
O4    Zn1   S    
C5    H18   S    
O3    Zn2   S    
C3    C26   S    
C20   H20   S    
O6    Zn2   S    
C18   N3    S    
C20   C22   A    
C16   C17   A    
C10   C13   A    
