data_mof_unit_50725.cif
_audit_creation_date              2012-12-11T15:16:36-0500
_audit_creation_method            fapswitch 2.2
_symmetry_space_group_name_H-M    P1
_symmetry_Int_Tables_number       1
_space_group_crystal_system       triclinic
_cell_length_a                    25.134626
_cell_length_b                    7.230283
_cell_length_c                    21.9258
_cell_angle_alpha                 89.999937
_cell_angle_beta                  110.261248
_cell_angle_gamma                 89.999856
_cell_volume                      3738.03296462

loop_
_atom_site_label
_atom_site_type_symbol
_atom_type_description
_atom_site_fract_x
_atom_site_fract_y
_atom_site_fract_z
_atom_type_partial_charge
O1    O     O_R   0.554350 0.505270 0.581390 -0.531536
O2    O     O_R   0.445650 0.005270 0.418610 -0.531535
O3    O     O_R   0.553380 0.177580 0.454800 -0.514639
O4    O     O_R   0.446620 0.677580 0.545200 -0.514638
C1    C     C_R   0.566464 0.344335 0.438915 0.690600
C2    C     C_R   0.433535 0.844335 0.561084 0.690600
O5    O     O_R   0.560970 0.175640 0.583140 -0.536058
O6    O     O_R   0.439030 0.675640 0.416860 -0.536057
O7    O     O_R   0.453290 0.004120 0.547860 -0.542607
O8    O     O_R   0.546710 0.504120 0.452140 -0.542609
C3    C     C_R   0.576090 0.343909 0.607554 0.672368
C4    C     C_R   0.423910 0.843910 0.392446 0.672371
O9    O     O_3   0.464660 0.338800 0.488280 -0.368665
O10   O     O_3   0.535340 0.838800 0.511720 -0.368666
V1    V     V_3+5 0.506560 0.064420 0.502170 1.451001
V2    V     V_3+5 0.493440 0.564420 0.497830 1.451002
C5    C     C_R   0.148308 0.979750 0.288962 -0.156365
C6    C     C_R   0.851690 0.479779 0.711039 -0.156366
H1    H     H_    0.063016 0.007610 0.222559 0.108732
H2    H     H_    0.936983 0.507640 0.777442 0.108732
H3    H     H_    0.233797 0.975641 0.401279 0.127992
H4    H     H_    0.766201 0.475683 0.598722 0.127992
H5    H     H_    0.135943 0.008055 0.330741 0.118485
H6    H     H_    0.864054 0.508098 0.669260 0.118485
C7    C     C_R   0.120818 0.942271 0.172433 -0.035099
C8    C     C_R   0.879182 0.442275 0.827567 -0.035100
C9    C     C_R   0.396684 0.814649 0.273811 -0.156799
C10   C     C_R   0.603317 0.314629 0.726189 -0.156798
C11   C     C_R   0.357311 0.812248 0.211012 -0.114685
C12   C     C_R   0.642690 0.312220 0.788987 -0.114685
C13   C     C_R   0.299992 0.843493 0.199844 -0.156890
C14   C     C_R   0.700009 0.343472 0.800156 -0.156890
C15   C     C_R   0.280284 0.878680 0.251843 0.076552
C16   C     C_R   0.719716 0.378676 0.748157 0.076552
C17   C     C_R   0.321230 0.882635 0.316471 0.069562
C18   C     C_R   0.678770 0.382640 0.683529 0.069561
C19   C     C_R   0.221413 0.909807 0.241852 0.073436
C20   C     C_R   0.778586 0.409810 0.758148 0.073436
C21   C     C_R   0.205308 0.945864 0.296795 0.136864
C22   C     C_R   0.794691 0.445884 0.703206 0.136864
C23   C     C_R   0.246069 0.948681 0.359339 -0.199186
C24   C     C_R   0.753929 0.448710 0.640662 -0.199185
C25   C     C_R   0.302989 0.917207 0.369127 -0.194476
C26   C     C_R   0.697010 0.417228 0.630874 -0.194477
C27   C     C_R   0.177757 0.907298 0.179484 -0.212267
C28   C     C_R   0.822243 0.407292 0.820516 -0.212267
C29   C     C_R   0.106616 0.979141 0.227390 -0.163208
C30   C     C_R   0.893383 0.479163 0.772611 -0.163207
C31   C     C_R   0.379639 0.850069 0.326966 -0.080261
C32   C     C_R   0.620361 0.350065 0.673034 -0.080262
H7    H     H_    0.186499 0.880938 0.135508 0.095362
H8    H     H_    0.813502 0.380919 0.864491 0.095363
H9    H     H_    0.440913 0.788342 0.281064 0.109928
H10   H     H_    0.559088 0.288314 0.718935 0.109926
H11   H     H_    0.272212 0.838987 0.149868 0.111398
H12   H     H_    0.727789 0.338960 0.850131 0.111398
H13   H     H_    0.371339 0.785052 0.170425 0.126420
H14   H     H_    0.628663 0.285011 0.829574 0.126420
H15   H     H_    0.332732 0.920571 0.418551 0.108412
H16   H     H_    0.667266 0.420600 0.581449 0.108416
C33   C     C_R   0.117565 0.767551 0.877518 -0.161009
C34   C     C_R   0.882427 0.267549 0.122472 -0.161011
H17   H     H_    0.099793 0.639834 0.887788 0.123300
H18   H     H_    0.900193 0.139829 0.112194 0.123300
C35   C     C_R   0.153284 0.758942 0.840749 -0.138556
C36   C     C_R   0.846708 0.258940 0.159241 -0.138555
H19   H     H_    0.161938 0.624995 0.824144 0.135130
H20   H     H_    0.838048 0.124991 0.175838 0.135128
C37   C     C_R   0.177406 0.920473 0.825646 0.021117
C38   C     C_R   0.822594 0.420474 0.174353 0.021117
C39   C     C_R   0.164931 0.090979 0.848596 -0.136531
C40   C     C_R   0.835076 0.590983 0.151413 -0.136530
H21   H     H_    0.182625 0.218355 0.837936 0.138316
H22   H     H_    0.817388 0.718361 0.162080 0.138315
C41   C     C_R   0.129025 0.099760 0.885245 -0.160901
C42   C     C_R   0.870982 0.599763 0.114764 -0.160898
H23   H     H_    0.120287 0.233809 0.901695 0.122910
H24   H     H_    0.879726 0.733815 0.098322 0.122907
C43   C     C_R   0.104715 0.938122 0.900190 -0.046682
C44   C     C_R   0.895285 0.438123 0.099810 -0.046683
N1    N     N_R   0.241880 0.063621 0.775064 -0.281657
N2    N     N_R   0.758126 0.563628 0.224943 -0.281656
N3    N     N_R   0.275395 0.054019 0.739417 -0.283872
N4    N     N_R   0.724610 0.554025 0.260590 -0.283872
C45   C     C_R   0.283431 0.890997 0.712891 0.527111
C46   C     C_R   0.716568 0.390998 0.287108 0.527110
N5    N     N_R   0.256507 0.738179 0.723788 -0.281968
N6    N     N_R   0.743486 0.238175 0.276204 -0.281966
N7    N     N_R   0.223126 0.747687 0.759505 -0.285571
N8    N     N_R   0.776867 0.247683 0.240487 -0.285570
C47   C     C_R   0.214996 0.910559 0.785959 0.512992
C48   C     C_R   0.785003 0.410560 0.214040 0.512991
C49   C     C_R   0.324308 0.714537 0.640528 -0.171903
C50   C     C_R   0.675689 0.214533 0.359468 -0.171902
C51   C     C_R   0.359581 0.700089 0.602804 0.204709
C52   C     C_R   0.640416 0.200084 0.397192 0.204710
C53   C     C_R   0.393410 0.853400 0.598172 -0.064239
C54   C     C_R   0.606590 0.353400 0.401827 -0.064239
C55   C     C_R   0.389120 0.018503 0.630376 -0.212296
C56   C     C_R   0.610882 0.518507 0.369627 -0.212301
H25   H     H_    0.414074 0.138632 0.628027 0.154167
H26   H     H_    0.585931 0.638639 0.371978 0.154172
C57   C     C_R   0.353365 0.031384 0.666977 -0.148509
C58   C     C_R   0.646637 0.531388 0.333026 -0.148510
H27   H     H_    0.351707 0.160748 0.691144 0.147933
H28   H     H_    0.648297 0.660756 0.308862 0.147931
C59   C     C_R   0.320852 0.879194 0.673009 -0.012068
C60   C     C_R   0.679148 0.379194 0.326991 -0.012065
O11   O     O_R   0.953220 0.285790 0.047790 -0.537741
O12   O     O_R   0.046780 0.785790 0.952210 -0.537741
O13   O     O_R   0.939020 0.617570 0.916840 -0.533914
O14   O     O_R   0.060980 0.117570 0.083160 -0.533913
C61   C     C_R   0.923957 0.448710 0.892442 0.682462
C62   C     C_R   0.076043 0.948709 0.107558 0.682462
O15   O     O_R   0.946600 0.615450 0.045180 -0.541253
O16   O     O_R   0.053400 0.115450 0.954820 -0.541253
O17   O     O_R   0.054370 0.786770 0.081410 -0.531198
O18   O     O_R   0.945630 0.286770 0.918590 -0.531199
C63   C     C_R   0.934273 0.447067 0.061666 0.676407
C64   C     C_R   0.065727 0.947067 0.938334 0.676407
O19   O     O_3   0.035300 0.454160 0.011680 -0.373188
O20   O     O_3   0.964700 0.954160 0.988320 -0.373188
V3    V     V_3+5 0.993450 0.728620 0.997830 1.411275
V4    V     V_3+5 0.006550 0.228620 0.002170 1.411275
H29   H     H_    0.298935 0.596467 0.643849 0.139781
H30   H     H_    0.701060 0.096459 0.356144 0.139780
N9    N     N_3   0.360074 0.531088 0.568444 -0.648806
H31   H     H_    0.339088 0.557082 0.518983 0.221228
H32   H     H_    0.336985 0.427785 0.581586 0.218654
N10   N     N_3   0.639920 0.031076 0.431547 -0.648811
H33   H     H_    0.660907 0.057057 0.481009 0.221231
H34   H     H_    0.663007 0.927773 0.418402 0.218651

loop_
_geom_bond_atom_site_label_1
_geom_bond_atom_site_label_2
_ccdc_geom_bond_type
C36   H20   S    
C9    C11   A    
C55   C57   A    
O1    C3    A    
C40   C42   A    
O2    C4    A    
C2    O7    A    
C58   H28   S    
C4    C31   S    
O3    V1    S    
C21   C23   A    
H4    C24   S    
O5    C3    A    
C50   C60   A    
C5    H5    S    
C6    H6    S    
C34   C44   A    
C20   C22   A    
C42   H24   S    
O14   V4    S    
C46   N6    A    
C27   H7    S    
C28   H8    S    
C56   C58   A    
N2    C48   A    
C33   H17   S    
C5    C21   A    
C37   C39   A    
C6    C22   A    
O19   V4    S    
C34   H18   S    
C53   C55   A    
C10   C32   A    
O13   C61   A    
C35   H19   S    
C52   C54   A    
C17   C31   A    
C13   C15   A    
N7    C47   A    
C17   C25   A    
C7    C29   A    
C16   C18   A    
C8    C30   A    
O6    V2    S    
C45   N5    A    
C44   C63   S    
C49   C51   A    
C9    H9    S    
C23   C25   A    
C24   C26   A    
O14   C62   A    
N1    N3    A    
C50   H30   S    
C38   C48   S    
C39   C41   A    
O15   V3    S    
C34   C36   A    
O13   V3    S    
C2    C53   S    
C42   C44   A    
C40   H22   S    
O12   C64   A    
C39   H21   S    
C10   H10   S    
C15   C19   A    
O16   C64   A    
C14   C16   A    
O4    V2    S    
N10   H34   S    
N9    H32   S    
C51   N9    S    
O12   V3    S    
N8    C48   A    
C33   C43   A    
N2    N4    A    
O6    C4    A    
C43   C64   S    
C56   H26   S    
C57   H27   S    
O1    V2    S    
O18   V4    S    
C50   C52   A    
O2    V1    S    
C41   H23   S    
H2    C30   S    
H3    C23   S    
O4    C2    A    
C55   H25   S    
N6    N8    A    
O15   C63   A    
N5    N7    A    
C18   C26   A    
C19   C27   A    
N9    H31   S    
C7    C27   A    
C58   C60   A    
C18   C32   A    
O11   C63   A    
C52   N10   S    
O16   V4    S    
N3    C45   A    
C16   C20   A    
C46   C60   S    
C5    C29   A    
C11   H13   S    
C22   C24   A    
O3    C1    A    
C6    C30   A    
C38   C40   A    
C51   C53   A    
O11   V4    S    
C25   H15   S    
C54   C56   A    
C45   C59   S    
C10   C12   A    
N10   H33   S    
O17   V3    S    
C8    C61   S    
C1    O8    A    
C19   C21   A    
C3    C32   S    
O8    V2    S    
C7    C62   S    
C49   C59   A    
C12   C14   A    
C36   C38   A    
C26   H16   S    
C35   C37   A    
C12   H14   S    
O5    V1    S    
C15   C17   A    
H1    C29   S    
O7    V1    S    
C49   H29   S    
C20   C28   A    
C62   O17   A    
C8    C28   A    
C61   O18   A    
N1    C47   A    
C33   C35   A    
C1    C54   S    
C11   C13   A    
O9    V2    S    
O10   V1    S    
N4    C46   A    
C57   C59   A    
C13   H11   S    
O20   V3    S    
C37   C47   S    
C41   C43   A    
C14   H12   S    
C9    C31   A    
