data_mof_unit_33981.cif
_audit_creation_date              2012-12-10T18:12:32-0500
_audit_creation_method            fapswitch 2.2
_symmetry_space_group_name_H-M    P1
_symmetry_Int_Tables_number       1
_space_group_crystal_system       triclinic
_cell_length_a                    12.659046
_cell_length_b                    13.063731
_cell_length_c                    15.653762
_cell_angle_alpha                 91.334255
_cell_angle_beta                  101.889826
_cell_angle_gamma                 82.021925
_cell_volume                      2508.63555431

loop_
_atom_site_label
_atom_site_type_symbol
_atom_type_description
_atom_site_fract_x
_atom_site_fract_y
_atom_site_fract_z
_atom_type_partial_charge
C1    C     C_R   0.438723 0.691368 0.487309 0.909400
C2    C     C_R   0.599800 0.198971 0.509550 -0.036672
C3    C     C_R   0.298646 0.840725 0.497992 -0.223479
C4    C     C_R   0.500717 0.499822 0.661685 0.894449
C5    C     C_R   0.269825 0.947291 0.505933 0.292696
C6    C     C_R   0.346227 0.013113 0.499245 -0.292522
C7    C     C_R   0.450483 0.973016 0.484324 0.008768
C8    C     C_R   0.466893 0.870082 0.456399 0.056001
C9    C     C_R   0.536009 0.033547 0.489881 0.031620
C10   C     C_R   0.623512 0.998469 0.447480 0.115723
C11   C     C_R   0.628605 0.902811 0.406494 -0.314278
C12   C     C_3   0.504348 0.491204 0.917879 0.209180
C13   C     C_R   0.549569 0.839225 0.408419 0.229400
C14   C     C_R   0.537562 0.128745 0.534490 0.115120
C15   C     C_R   0.686799 0.164032 0.469116 -0.264924
C16   C     C_R   0.561133 0.308765 0.510593 0.846824
C17   C     C_R   0.398783 0.801720 0.476430 -0.167264
C18   C     C_R   0.121333 0.303245 0.442950 -0.315078
C19   C     C_R   0.790809 0.644476 0.588039 0.015203
C20   C     C_R   0.891575 0.679929 0.605454 -0.253046
C21   C     C_R   0.979430 0.622843 0.577906 -0.184618
C22   C     C_R   0.966922 0.528837 0.533662 -0.014190
C23   C     C_3   0.432377 0.427198 0.014201 -0.159678
C24   C     C_R   0.862425 0.495096 0.516403 0.209930
C25   C     C_R   0.053042 0.467812 0.502934 -0.014441
C26   C     C_R   0.041685 0.364213 0.478469 0.168761
C27   C     C_R   0.944917 0.326708 0.479910 -0.318926
C28   C     C_R   0.499719 0.498479 0.338403 0.919688
C29   C     C_R   0.851767 0.399369 0.471169 0.148760
C30   C     C_R   0.148194 0.505457 0.492472 -0.037357
C31   C     C_R   0.210685 0.346199 0.430268 0.015265
C32   C     C_3   0.472643 0.585976 0.026424 -0.168749
C33   C     C_3   0.574147 0.552142 0.986820 -0.162159
C34   C     C_3   0.502179 0.488164 0.083076 0.213204
C35   C     C_1   0.503056 0.497040 0.751169 -0.182074
C36   C     C_1   0.499842 0.492729 0.249298 -0.191324
C37   C     C_3   0.402855 0.525068 0.955777 -0.162055
C38   C     C_3   0.486837 0.151666 0.614740 -0.433779
C39   C     C_3   0.569377 0.182036 0.693905 -0.859594
C40   C     C_3   0.139979 0.953977 0.601562 -0.806436
C41   C     C_3   0.460307 0.771229 0.272996 -0.818886
C42   C     C_3   0.781837 0.393471 0.380065 -0.331501
C43   C     C_3   0.784540 0.486473 0.322796 -0.821622
C44   C     C_3   0.533946 0.393301 0.974446 -0.164086
C45   C     C_3   0.603746 0.454286 0.045285 -0.169082
C46   C     C_1   0.504295 0.494138 0.826838 -0.082968
C47   C     C_1   0.500652 0.489170 0.173886 -0.103653
C48   C     C_R   0.701572 0.062440 0.441726 -0.191581
H1    H     H_    0.632051 0.603219 0.973418 0.133265
H2    H     H_    0.056949 0.651752 0.594218 0.134382
H3    H     H_    0.901567 0.751580 0.640401 0.150347
H4    H     H_    0.685712 0.425286 0.084206 0.130209
H5    H     H_    0.559025 0.314700 0.950807 0.131583
H6    H     H_    0.374494 0.376159 0.027701 0.133567
H7    H     H_    0.320834 0.554105 0.916968 0.134408
H8    H     H_    0.740017 0.215994 0.454813 0.151935
H9    H     H_    0.691537 0.879221 0.369591 0.145108
H10   H     H_    0.768330 0.036845 0.409247 0.144003
H11   H     H_    0.642021 0.121918 0.707405 0.262748
H12   H     H_    0.243621 0.788267 0.508986 0.157919
H13   H     H_    0.595401 0.257556 0.683184 0.251534
H14   H     H_    0.531478 0.189305 0.752138 0.245432
H15   H     H_    0.416671 0.214217 0.600326 0.228222
H16   H     H_    0.457374 0.082227 0.635794 0.222097
H17   H     H_    0.145904 0.067360 0.512916 0.216830
H18   H     H_    0.057810 0.991915 0.607805 0.241804
H19   H     H_    0.200645 0.974976 0.658981 0.240246
H20   H     H_    0.138773 0.869195 0.600815 0.237235
H21   H     H_    0.618265 0.721411 0.337872 0.229554
H22   H     H_    0.462090 0.702394 0.230459 0.238247
H23   H     H_    0.323171 0.095419 0.504958 0.136421
H24   H     H_    0.474357 0.837903 0.235929 0.238659
H25   H     H_    0.378412 0.786882 0.289596 0.250694
H26   H     H_    0.756571 0.560667 0.352259 0.265579
H27   H     H_    0.869169 0.488502 0.314150 0.241588
H28   H     H_    0.732073 0.479198 0.257430 0.240393
H29   H     H_    0.812840 0.325368 0.343578 0.168740
H30   H     H_    0.700793 0.374617 0.382072 0.216439
H31   H     H_    0.274278 0.299038 0.404873 0.138692
H32   H     H_    0.936680 0.248306 0.457579 0.142028
H33   H     H_    0.112872 0.224485 0.422513 0.134267
H34   H     H_    0.165758 0.581593 0.513563 0.116243
H35   H     H_    0.722774 0.689311 0.609521 0.144004
H36   H     H_    0.447570 0.664643 0.049957 0.131744
N1    N     N_R   0.222180 0.444680 0.455580 -0.105454
N2    N     N_R   0.776980 0.554790 0.543960 -0.130338
N3    N     N_2   0.165328 0.988497 0.521822 -0.307760
N4    N     N_2   0.544114 0.752677 0.351410 -0.281657
O1    O     O_R   0.366730 0.627160 0.478790 -0.623729
O2    O     O_R   0.544830 0.662520 0.507160 -0.612289
O3    O     O_R   0.410960 0.482330 0.609040 -0.605650
O4    O     O_R   0.589060 0.517690 0.637410 -0.612734
O5    O     O_R   0.455170 0.337480 0.492840 -0.626525
O6    O     O_R   0.633270 0.372840 0.521210 -0.625131
O7    O     O_R   0.410940 0.482310 0.362590 -0.606817
O8    O     O_R   0.589040 0.517670 0.390960 -0.611668
Zn1   Zn    Zn3+2 0.381080 0.476390 0.481050 0.935605
Zn2   Zn    Zn3+2 0.618920 0.523610 0.518950 0.934010

loop_
_geom_bond_atom_site_label_1
_geom_bond_atom_site_label_2
_ccdc_geom_bond_type
C1    O2    A    
C31   N1    A    
C29   C42   S    
C27   C29   A    
C33   C45   S    
C19   C20   A    
C18   C26   A    
C19   N2    A    
O4    Zn2   S    
C7    C8    A    
C26   C27   A    
C8    C13   A    
C28   O7    A    
C40   N3    S    
C20   H3    S    
C38   C39   S    
O6    Zn2   S    
C33   H1    S    
C25   C30   A    
C18   H33   S    
C36   C47   T    
C12   C37   S    
C41   N4    S    
C24   C29   A    
C44   H5    S    
C22   C25   A    
O8    Zn2   S    
C2    C16   S    
C9    C10   A    
C4    O3    A    
C3    H12   S    
C43   H26   S    
C4    C35   S    
C40   H18   S    
C21   C22   A    
C15   C48   A    
C19   H35   S    
C21   H2    S    
H17   N3    S    
C38   H16   S    
C43   H27   S    
C6    H23   S    
C32   H36   S    
C12   C46   S    
C27   H32   S    
C45   H4    S    
C25   C26   A    
C23   C37   S    
C40   H19   S    
C23   C44   S    
O1    Zn1   S    
C5    N3    S    
C30   H34   S    
C9    C14   A    
C14   C38   S    
C23   C34   S    
C39   H11   S    
C16   O5    A    
C34   C45   S    
C32   C37   S    
O3    Zn1   S    
C30   N1    A    
C31   H31   S    
C2    C15   A    
H21   N4    S    
C41   H24   S    
C42   H30   S    
C10   C48   A    
C22   C24   A    
C42   C43   S    
O5    Zn1   S    
C39   H13   S    
C44   C45   S    
C23   H6    S    
C38   H15   S    
C2    C14   A    
C43   H28   S    
C7    C9    A    
C39   H14   S    
C1    O1    A    
C16   O6    A    
C3    C5    A    
O7    Zn1   S    
C48   H10   S    
C6    C7    A    
C34   C47   S    
C1    C17   S    
C8    C17   A    
C28   O8    A    
C32   C33   S    
C12   C44   S    
C15   H8    S    
C11   C13   A    
C5    C6    A    
C13   N4    S    
C3    C17   A    
N2    Zn2   S    
N1    Zn1   S    
C10   C11   A    
C41   H25   S    
C37   H7    S    
C20   C21   A    
C28   C36   S    
C42   H29   S    
C40   H20   S    
C18   C31   A    
C12   C33   S    
C11   H9    S    
C35   C46   T    
C24   N2    A    
O2    Zn2   S    
C32   C34   S    
C41   H22   S    
C4    O4    A    
