data_mof_unit_52075.cif
_audit_creation_date              2012-12-10T19:00:43-0500
_audit_creation_method            fapswitch 2.2
_symmetry_space_group_name_H-M    P1
_symmetry_Int_Tables_number       1
_space_group_crystal_system       triclinic
_cell_length_a                    15.085597
_cell_length_b                    10.836274
_cell_length_c                    9.545428
_cell_angle_alpha                 90.451537
_cell_angle_beta                  90.0655
_cell_angle_gamma                 90.280362
_cell_volume                      1560.33875888

loop_
_atom_site_label
_atom_site_type_symbol
_atom_type_description
_atom_site_fract_x
_atom_site_fract_y
_atom_site_fract_z
_atom_type_partial_charge
C1    C     C_R   0.497919 0.262399 0.499434 0.802966
C2    C     C_R   0.907281 0.502227 0.627579 0.120667
C3    C     C_R   0.953790 0.485593 0.244122 0.585439
C4    C     C_R   0.046236 0.486282 0.244496 -0.286721
C5    C     C_R   0.092909 0.492394 0.371383 0.019394
C6    C     C_R   0.046516 0.497588 0.499475 0.060970
C7    C     C_R   0.093000 0.503364 0.627771 0.123488
C8    C     C_R   0.046394 0.508504 0.754597 -0.199229
C9    C     C_R   0.954012 0.507983 0.754398 -0.181313
C10   C     C_R   0.185283 0.493301 0.372385 -0.206327
C11   C     C_R   0.231714 0.499109 0.499757 -0.069173
C12   C     C_R   0.328604 0.499756 0.499930 0.808765
C13   C     C_R   0.185353 0.504017 0.627014 -0.245020
C14   C     C_R   0.481639 0.065134 0.623526 0.124562
C15   C     C_R   0.488378 0.129468 0.498065 -0.098724
C16   C     C_R   0.482599 0.063391 0.371057 -0.212251
C17   C     C_R   0.483154 0.934671 0.371752 -0.212341
C18   C     C_R   0.489529 0.871065 0.499447 -0.098547
C19   C     C_R   0.482237 0.938076 0.624410 0.132389
C20   C     C_3   0.537635 0.935318 0.754120 -0.487015
C21   C     C_3   0.536488 0.075188 0.753229 -0.445929
C22   C     C_R   0.575399 0.528012 0.074203 0.267923
C23   C     C_R   0.498478 0.737816 0.500247 0.803626
C24   C     C_R   0.428415 0.459468 0.073815 -0.087744
C25   C     C_R   0.428372 0.459589 0.925123 -0.085709
C26   C     C_R   0.575624 0.527261 0.926829 0.264879
C27   C     C_3   0.627264 0.644683 0.922592 -0.505937
C28   C     C_3   0.626533 0.645786 0.081506 -0.487026
C29   C     C_R   0.671406 0.499264 0.500013 0.814800
C30   C     C_R   0.814964 0.501824 0.626931 -0.229735
C31   C     C_R   0.768327 0.497607 0.499860 -0.099595
C32   C     C_R   0.814490 0.491589 0.372493 -0.191088
C33   C     C_R   0.906977 0.491312 0.371079 -0.010077
C34   C     C_R   0.953557 0.497072 0.499330 -0.011664
Cu1   Cu    Cu3+1 0.500000 0.499980 0.640670 0.943929
Cu2   Cu    Cu3+1 0.500000 0.500020 0.359330 0.943501
H1    H     H_    0.779619 0.504798 0.725547 0.154481
H2    H     H_    0.483088 0.885818 0.272329 0.162798
H3    H     H_    0.500806 0.896040 0.844306 0.197412
H4    H     H_    0.604724 0.896612 0.735015 0.199921
H5    H     H_    0.498879 0.115908 0.842237 0.198411
H6    H     H_    0.602757 0.117210 0.734133 0.204426
H7    H     H_    0.369988 0.427908 0.128507 0.138499
H8    H     H_    0.369895 0.428160 0.869691 0.140137
H9    H     H_    0.694558 0.632148 0.877982 0.199901
H10   H     H_    0.588621 0.720491 0.876436 0.210711
H11   H     H_    0.693422 0.633371 0.127921 0.209417
H12   H     H_    0.778393 0.486832 0.274439 0.197372
H13   H     H_    0.587529 0.723070 0.127040 0.208408
H14   H     H_    0.081311 0.482011 0.145562 0.158125
H15   H     H_    0.220868 0.489267 0.273853 0.145971
H16   H     H_    0.220975 0.508576 0.725654 0.146640
H17   H     H_    0.081354 0.513066 0.853766 0.148766
H18   H     H_    0.919001 0.512457 0.853188 0.214145
H19   H     H_    0.482366 0.110422 0.271353 0.166866
N1    N     N_R   0.500570 0.500930 0.147930 -0.188141
N2    N     N_R   0.500570 0.500890 0.852020 -0.187087
O1    O     O_R   0.500000 0.319640 0.618810 -0.578993
O2    O     O_R   0.500010 0.319680 0.381230 -0.583450
O3    O     O_R   0.370250 0.499950 0.618800 -0.593334
O4    O     O_R   0.370260 0.499990 0.381220 -0.594245
O5    O     O_R   0.499990 0.680320 0.618770 -0.576626
O6    O     O_R   0.500000 0.680360 0.381190 -0.584930
O7    O     O_R   0.629740 0.500010 0.618780 -0.584747
O8    O     O_R   0.629750 0.500050 0.381200 -0.587004
F1    F     F_    0.910179 0.479283 0.119840 -0.709983

loop_
_geom_bond_atom_site_label_1
_geom_bond_atom_site_label_2
_ccdc_geom_bond_type
C8    H17   S    
C11   C12   S    
C28   H11   S    
C6    C7    A    
C1    C15   S    
C24   N1    A    
Cu2   O6    S    
C11   C13   A    
C28   H13   S    
C19   C20   S    
C2    C30   A    
C30   C31   A    
Cu1   N2    S    
Cu2   O2    S    
C32   C33   A    
C27   H9    S    
C23   O6    A    
C17   C18   A    
C16   H19   S    
C5    C10   A    
C29   C31   S    
C22   C28   S    
C1    O1    A    
C24   C25   A    
C12   O4    A    
C32   H12   S    
C2    C34   A    
C26   C27   S    
Cu1   O7    S    
C25   N2    A    
Cu1   O1    S    
C29   O8    A    
C10   H15   S    
C14   C21   S    
Cu2   N1    S    
C9    H18   S    
C33   C34   A    
Cu1   O5    S    
C17   H2    S    
C1    O2    A    
Cu2   O4    S    
C5    C6    A    
C20   H4    S    
C26   N2    A    
C21   H5    S    
C29   O7    A    
C3    F1    S    
C7    C8    A    
C10   C11   A    
C3    C33   A    
C18   C23   S    
C13   H16   S    
C6    C34   A    
C7    C13   A    
C27   H10   S    
C20   C21   S    
C25   H8    S    
C30   H1    S    
C18   C19   A    
C22   C26   A    
C27   C28   S    
C24   H7    S    
C20   H3    S    
Cu2   O8    S    
Cu1   O3    S    
C22   N1    A    
C21   H6    S    
C23   O5    A    
C14   C15   A    
C2    C9    A    
C4    C5    A    
C14   C19   A    
C31   C32   A    
C3    C4    A    
C15   C16   A    
C16   C17   A    
C4    H14   S    
C8    C9    A    
Cu1   Cu2   S    
C12   O3    A    
