data_mof_unit_38323.cif
_audit_creation_date              2012-12-10T16:38:28-0500
_audit_creation_method            fapswitch 2.2
_symmetry_space_group_name_H-M    P1
_symmetry_Int_Tables_number       1
_space_group_crystal_system       triclinic
_cell_length_a                    10.825854
_cell_length_b                    10.881094
_cell_length_c                    17.85382
_cell_angle_alpha                 98.362231
_cell_angle_beta                  72.904338
_cell_angle_gamma                 98.42385
_cell_volume                      1976.82685658

loop_
_atom_site_label
_atom_site_type_symbol
_atom_type_description
_atom_site_fract_x
_atom_site_fract_y
_atom_site_fract_z
_atom_type_partial_charge
C1    C     C_R   0.157110 0.478955 0.518520 0.526011
C2    C     C_R   0.583867 0.378866 0.920612 -0.147736
C3    C     C_R   0.649780 0.322873 0.959780 -0.122058
C4    C     C_R   0.843313 0.520743 0.482246 0.496831
C5    C     C_R   0.630224 0.350663 0.040859 -0.005675
C6    C     C_R   0.535038 0.430808 0.084425 -0.018462
C7    C     C_R   0.705379 0.299476 0.078907 0.280293
C8    C     C_R   0.683284 0.324169 0.160756 0.279619
C9    C     C_R   0.526092 0.464968 0.164712 -0.171579
C10   C     C_2   0.982254 0.527983 0.474135 0.232914
C11   C     C_2   0.021156 0.474180 0.524882 -0.079139
C12   C     C_R   0.295746 0.646042 0.843103 -0.128618
C13   C     C_2   0.536228 0.965785 0.476756 -0.085759
C14   C     C_2   0.450316 0.037497 0.527630 0.270509
C15   C     C_R   0.469255 0.168768 0.517070 0.484181
C16   C     C_R   0.529560 0.833016 0.482983 0.522561
C17   C     C_R   0.565000 0.435540 0.288177 0.526472
C18   C     C_R   0.435894 0.563018 0.712480 0.496185
C19   C     C_R   0.400402 0.580415 0.799209 0.018581
C20   C     C_R   0.593522 0.408155 0.203107 -0.021450
C21   C     C_R   0.257726 0.652624 0.925078 -0.140761
C22   C     C_3   0.918823 0.292386 0.012898 0.009217
C23   C     C_R   0.467651 0.523489 0.838299 -0.119508
C24   C     C_3   0.020737 0.206805 0.964672 -0.255551
C25   C     C_3   0.155389 0.279537 0.939831 -0.481161
C26   C     C_3   0.091075 0.711161 0.430440 0.010412
C27   C     C_3   0.214378 0.764306 0.371977 -0.245519
C28   C     C_3   0.239491 0.905798 0.389441 -0.470621
C29   C     C_3   0.257090 0.066371 0.627624 -0.112035
C30   C     C_3   0.835345 0.335820 0.229571 -0.099718
C31   C     C_3   0.200656 0.418488 0.176255 -0.122010
C32   C     C_R   0.427839 0.524381 0.920913 0.012495
C33   C     C_R   0.322523 0.592093 0.964182 -0.005051
C34   C     C_R   0.490743 0.461350 0.961461 -0.006999
C35   C     C_R   0.456351 0.477837 0.045474 0.045523
C36   C     C_R   0.341805 0.536371 0.086573 0.260286
C37   C     C_R   0.279847 0.595555 0.045838 -0.110722
H1    H     H_    0.194949 0.641889 0.078755 0.127400
H2    H     H_    0.949971 0.339532 0.065031 0.133561
H3    H     H_    0.914326 0.364587 0.975660 0.114710
H4    H     H_    0.024462 0.132589 0.000438 0.185235
H5    H     H_    0.992908 0.161489 0.911138 0.164089
H6    H     H_    0.154278 0.354481 0.903962 0.157741
H7    H     H_    0.226756 0.215330 0.903885 0.155434
H8    H     H_    0.186957 0.321877 0.992603 0.151630
H9    H     H_    0.103104 0.735841 0.491030 0.138412
H10   H     H_    0.006649 0.754600 0.426427 0.153582
H11   H     H_    0.298859 0.720680 0.375610 0.174386
H12   H     H_    0.952629 0.430946 0.574149 0.072090
H13   H     H_    0.204698 0.741512 0.311063 0.204114
H14   H     H_    0.158510 0.951812 0.383210 0.151655
H15   H     H_    0.331267 0.941080 0.347322 0.166734
H16   H     H_    0.248854 0.930518 0.450222 0.170426
H17   H     H_    0.210142 0.087182 0.583869 0.109095
H18   H     H_    0.294461 0.153924 0.658278 0.122814
H19   H     H_    0.181180 0.016184 0.672771 0.134576
H20   H     H_    0.795595 0.355051 0.294378 0.147972
H21   H     H_    0.869260 0.425873 0.203090 0.092144
H22   H     H_    0.921742 0.285230 0.218868 0.122655
H23   H     H_    0.612349 0.005860 0.429063 0.061013
H24   H     H_    0.256876 0.336223 0.155930 0.128779
H25   H     H_    0.124306 0.412046 0.145134 0.090561
H26   H     H_    0.150994 0.415780 0.240009 0.174634
H27   H     H_    0.469354 0.537775 0.199057 0.191655
H28   H     H_    0.719042 0.259384 0.925419 0.152279
H29   H     H_    0.176074 0.703404 0.957935 0.109649
H30   H     H_    0.242113 0.690660 0.814125 0.139014
H31   H     H_    0.552078 0.480320 0.802659 0.128467
H32   H     H_    0.605196 0.351646 0.858080 0.109717
O1    O     O_3   0.500000 0.500000 0.500000 -0.444593
O2    O     O_R   0.470800 0.371790 0.332500 -0.515654
O3    O     O_R   0.380610 0.619380 0.674980 -0.541242
O4    O     O_R   0.632640 0.524780 0.317540 -0.557002
O5    O     O_R   0.515950 0.484050 0.674980 -0.549963
O6    O     O_3   0.797014 0.220226 0.036714 -0.542662
O7    O     O_3   0.072473 0.580524 0.411112 -0.565937
O8    O     O_3   0.356993 0.988814 0.592061 -0.546695
O9    O     O_3   0.742461 0.256998 0.198228 -0.540574
O10   O     O_3   0.282986 0.531487 0.166163 -0.588990
O11   O     O_R   0.535460 0.243030 0.556410 -0.542796
O12   O     O_R   0.437420 0.784080 0.535340 -0.474160
O13   O     O_R   0.223560 0.397520 0.472140 -0.523046
O14   O     O_R   0.803560 0.575360 0.436110 -0.534328
O15   O     O_R   0.209690 0.568800 0.556400 -0.550875
O16   O     O_R   0.763190 0.458310 0.535350 -0.568248
O17   O     O_R   0.414000 0.207090 0.472140 -0.564696
O18   O     O_R   0.613120 0.765800 0.436110 -0.552281
Zn1   Zn    Zn3+2 0.577310 0.422690 0.565550 0.916480
Zn2   Zn    Zn3+2 0.403760 0.371330 0.445150 0.943783
Zn3   Zn    Zn3+2 0.634990 0.589920 0.423760 0.929559
Zn4   Zn    Zn3+2 0.383940 0.616050 0.565540 0.955742

loop_
_geom_bond_atom_site_label_1
_geom_bond_atom_site_label_2
_ccdc_geom_bond_type
C27   H11   S    
C17   O4    A    
C21   H29   S    
C9    H27   S    
C24   H5    S    
C31   H24   S    
C35   C36   A    
C1    C11   S    
O1    Zn1   S    
C25   H6    S    
C6    C9    A    
C7    C8    A    
C13   H23   S    
C3    H28   S    
C1    O15   A    
C26   C27   S    
C8    C20   A    
O13   Zn2   S    
C36   C37   A    
O4    Zn3   S    
C18   C19   S    
C5    C6    A    
C28   H14   S    
C21   C33   A    
C29   H17   S    
C30   H20   S    
C17   C20   S    
C6    C35   A    
C34   C35   A    
C14   O8    S    
C10   O7    S    
O1    Zn4   S    
C16   O18   A    
C26   O7    S    
O15   Zn4   S    
C2    H32   S    
C27   H13   S    
C2    C34   A    
C18   O5    A    
C13   C14   D    
C8    O9    S    
C24   H4    S    
C31   H25   S    
O1    Zn3   S    
C22   O6    S    
C25   H7    S    
C18   O3    A    
C12   H30   S    
C31   H26   S    
C24   C25   S    
C5    C7    A    
O3    Zn4   S    
C7    O6    S    
C4    O16   A    
C29   H18   S    
C1    O13   A    
C12   C21   A    
C36   O10   S    
C33   C37   A    
O12   Zn4   S    
C23   H31   S    
C19   C23   A    
C37   H1    S    
C11   H12   S    
C9    C20   A    
C15   O11   A    
O2    Zn2   S    
C22   H3    S    
C30   H22   S    
C26   H10   S    
C15   O17   A    
C17   O2    A    
C22   C24   S    
O18   Zn3   S    
O1    Zn2   S    
C4    C10   S    
C25   H8    S    
O16   Zn1   S    
O14   Zn3   S    
C3    C5    A    
O17   Zn2   S    
C28   H16   S    
C31   O10   S    
C29   H19   S    
C32   C33   A    
C2    C3    A    
O11   Zn1   S    
C23   C32   A    
C28   H15   S    
C4    O14   A    
C22   H2    S    
C30   H21   S    
C12   C19   A    
C16   O12   A    
C10   C11   D    
C26   H9    S    
C30   O9    S    
C29   O8    S    
C13   C16   S    
C27   C28   S    
C14   C15   S    
O5    Zn1   S    
C32   C34   A    
