data_mof_unit_9880.cif
_audit_creation_date              2013-03-05T16:47:36-0500
_audit_creation_method            fapswitch 2.2
_symmetry_space_group_name_H-M    P1
_symmetry_Int_Tables_number       1
_space_group_crystal_system       triclinic
_cell_length_a                    18.165599
_cell_length_b                    18.197638
_cell_length_c                    18.333983
_cell_angle_alpha                 119.834696
_cell_angle_beta                  90.02476
_cell_angle_gamma                 119.887336
_cell_volume                      4302.57668007

loop_
_atom_site_label
_atom_site_type_symbol
_atom_site_description
_atom_site_fract_x
_atom_site_fract_y
_atom_site_fract_z
_atom_type_partial_charge
Zn1   Zn    Zn3+2 0.207400 0.586780 0.791530 0.989393
Zn2   Zn    Zn3+2 0.792600 0.413220 0.208470 0.989392
Zn3   Zn    Zn3+2 0.208510 0.413230 0.792630 0.987033
Zn4   Zn    Zn3+2 0.791490 0.586770 0.207370 0.987030
Zn5   Zn    Zn3+2 0.383150 0.586740 0.791530 1.010685
Zn6   Zn    Zn3+2 0.616850 0.413260 0.208470 1.010683
Zn7   Zn    Zn3+2 0.207400 0.413250 0.618010 1.100141
Zn8   Zn    Zn3+2 0.792600 0.586750 0.381990 1.100141
O1    O     O_3   0.251620 0.500000 0.748430 -0.513764
O2    O     O_3   0.748380 0.500000 0.251570 -0.513763
O3    O     O_R   0.134680 0.268390 0.572240 -0.587449
O4    O     O_R   0.865320 0.731610 0.427760 -0.587448
O5    O     O_R   0.306670 0.731630 0.863510 -0.631833
O6    O     O_R   0.693330 0.268370 0.136490 -0.631832
O7    O     O_R   0.135450 0.439270 0.865360 -0.646473
O8    O     O_R   0.864550 0.560730 0.134640 -0.646474
O9    O     O_R   0.429670 0.560710 0.692610 -0.650944
O10   O     O_R   0.570330 0.439290 0.307390 -0.650944
O11   O     O_R   0.308540 0.439240 0.865360 -0.656048
O12   O     O_R   0.691460 0.560760 0.134640 -0.656047
O13   O     O_R   0.133580 0.439310 0.571150 -0.610874
O14   O     O_R   0.866420 0.560690 0.428850 -0.610873
O15   O     O_R   0.430770 0.560690 0.864590 -0.646620
O16   O     O_R   0.569230 0.439310 0.135410 -0.646620
O17   O     O_R   0.133580 0.560760 0.692610 -0.652672
O18   O     O_R   0.866420 0.439240 0.307390 -0.652673
O19   O     O_R   0.134680 0.560740 0.864590 -0.648933
O20   O     O_R   0.865320 0.439260 0.135410 -0.648932
O21   O     O_R   0.306670 0.439270 0.571150 -0.585257
O22   O     O_R   0.693330 0.560730 0.428850 -0.585257
O23   O     O_R   0.135450 0.268370 0.694460 -0.660247
O24   O     O_R   0.864550 0.731630 0.305540 -0.660247
O25   O     O_R   0.429670 0.731610 0.863510 -0.635983
O26   O     O_R   0.570330 0.268390 0.136490 -0.635986
C1    C     C_R   0.113156 0.220082 0.609687 0.879370
C2    C     C_R   0.886844 0.779918 0.390313 0.879365
C3    C     C_R   0.392881 0.781201 0.888355 0.815537
C4    C     C_R   0.607119 0.218799 0.111645 0.815538
C5    C     C_R   0.110061 0.499882 0.888905 0.815361
C6    C     C_R   0.889939 0.500119 0.111096 0.815358
C7    C     C_R   0.392152 0.500151 0.608089 0.950423
C8    C     C_R   0.607848 0.499849 0.391911 0.950422
C9    C     C_R   0.393863 0.499477 0.888147 0.837404
C10   C     C_R   0.606137 0.500522 0.111852 0.837404
C11   C     C_R   0.109106 0.500410 0.607816 0.803679
C12   C     C_R   0.890894 0.499590 0.392184 0.803677
C13   C     C_3   0.073974 0.515991 0.476862 -0.157952
C14   C     C_3   0.926026 0.484009 0.523138 -0.157951
C15   C     C_3   0.045475 0.591369 0.510260 -0.156016
C16   C     C_3   0.954525 0.408631 0.489740 -0.156016
H1    H     H_    0.135493 0.529112 0.458561 0.181220
H2    H     H_    0.864506 0.470888 0.541439 0.181220
C17   C     C_3   0.948557 0.499132 0.448859 0.027154
C18   C     C_3   0.051443 0.500868 0.551141 0.027153
C19   C     C_3   0.976216 0.423700 0.414645 -0.134504
C20   C     C_3   0.023784 0.576299 0.585355 -0.134502
C21   C     C_3   0.448995 0.966499 0.923019 -0.145995
C22   C     C_3   0.551005 0.033501 0.076981 -0.146002
C23   C     C_3   0.553211 0.037750 0.959590 -0.131907
C24   C     C_3   0.446789 0.962250 0.040411 -0.131901
H3    H     H_    0.597440 0.069692 0.926655 0.190166
H4    H     H_    0.402560 0.930308 0.073345 0.190163
H5    H     H_    0.406596 0.938188 0.859182 0.185727
H6    H     H_    0.593404 0.061812 0.140818 0.185724
C25   C     C_3   0.549535 0.102380 0.052411 -0.039876
C26   C     C_3   0.450465 0.897620 0.947589 -0.039870
C27   C     C_3   0.445989 0.032494 0.016520 -0.057442
C28   C     C_3   0.554011 0.967506 0.983480 -0.057449
H7    H     H_    0.401829 0.059991 0.030431 0.203468
H8    H     H_    0.598172 0.940010 0.969570 0.203466
C29   C     C_3   0.446062 0.406086 0.481044 0.238165
C30   C     C_3   0.553938 0.593914 0.518956 0.238166
C31   C     C_3   0.548735 0.470738 0.514757 0.250498
C32   C     C_3   0.451265 0.529261 0.485243 0.250498
C33   C     C_3   0.550960 0.498877 0.448095 -0.237708
C34   C     C_3   0.449040 0.501123 0.551905 -0.237707
C35   C     C_3   0.446460 0.432491 0.412684 -0.336987
C36   C     C_3   0.553539 0.567509 0.587316 -0.336988
H9    H     H_    0.402531 0.376738 0.342012 0.203020
H10   H     H_    0.597469 0.623261 0.657988 0.203021
C37   C     C_R   0.143909 0.168859 0.827009 -0.179089
C38   C     C_R   0.856093 0.831134 0.172987 -0.179086
H11   H     H_    0.204390 0.183998 0.859487 0.196590
H12   H     H_    0.795611 0.815990 0.140506 0.196584
C39   C     C_R   0.119450 0.123704 0.735762 -0.152959
C40   C     C_R   0.880549 0.876288 0.264234 -0.152956
C41   C     C_R   0.041778 0.103016 0.690975 0.080042
C42   C     C_R   0.958223 0.896983 0.309024 0.080047
C43   C     C_R   0.987376 0.128145 0.739078 0.324783
C44   C     C_R   0.012631 0.871862 0.260924 0.324776
C45   C     C_R   0.012734 0.172942 0.831149 -0.271392
C46   C     C_R   0.987275 0.827067 0.168853 -0.271394
H13   H     H_    0.971841 0.192671 0.868517 0.203725
H14   H     H_    0.028172 0.807343 0.131487 0.203730
C47   C     C_R   0.090767 0.193686 0.875636 0.328215
C48   C     C_R   0.909241 0.806316 0.124364 0.328217
C49   C     C_R   0.957394 0.945694 0.538123 0.280481
C50   C     C_R   0.042606 0.054306 0.461877 0.280481
C51   C     C_R   0.940591 0.892502 0.445325 -0.197336
C52   C     C_R   0.059409 0.107498 0.554674 -0.197333
C53   C     C_R   0.981049 0.947666 0.406924 -0.070231
C54   C     C_R   0.018951 0.052334 0.593075 -0.070229
C55   C     C_R   0.651122 0.629906 0.815592 -0.060658
C56   C     C_R   0.348882 0.370082 0.184401 -0.060657
C57   C     C_R   0.606852 0.575389 0.852081 -0.107928
C58   C     C_R   0.393149 0.424601 0.147914 -0.107927
C59   C     C_R   0.594143 0.624208 0.933959 0.011104
C60   C     C_R   0.405857 0.375785 0.066034 0.011099
C61   C     C_R   0.627388 0.730441 0.980376 0.335683
C62   C     C_R   0.372613 0.269552 0.019616 0.335683
C63   C     C_R   0.671428 0.783533 0.941788 -0.119895
C64   C     C_R   0.328576 0.216458 0.058202 -0.119891
C65   C     C_R   0.682862 0.733560 0.860059 -0.106583
C66   C     C_R   0.317143 0.266429 0.139933 -0.106572
C67   C     C_R   0.593549 0.559985 0.023556 -0.184116
C68   C     C_R   0.406450 0.440011 0.976441 -0.184119
C69   C     C_R   0.550408 0.499930 0.055978 -0.027101
C70   C     C_R   0.449592 0.500067 0.944019 -0.027101
C71   C     C_R   0.455742 0.439088 0.032338 0.054573
C72   C     C_R   0.544258 0.560907 0.967658 0.054575
C73   C     C_R   0.111277 0.772999 0.931930 0.404374
C74   C     C_R   0.888733 0.227004 0.068071 0.404350
C75   C     C_R   0.096858 0.718731 0.970480 -0.169772
C76   C     C_R   0.903149 0.281272 0.029523 -0.169769
C77   C     C_R   0.024794 0.614073 0.924958 0.089972
C78   C     C_R   0.975210 0.385932 0.075046 0.089987
C79   C     C_R   0.965930 0.563640 0.841173 -0.073027
C80   C     C_R   0.034073 0.436367 0.158832 -0.073010
C81   C     C_R   0.979277 0.617217 0.802874 -0.143095
C82   C     C_R   0.020729 0.382790 0.197131 -0.143091
C83   C     C_R   0.051578 0.721131 0.847694 -0.129332
C84   C     C_R   0.948432 0.278874 0.152309 -0.129348
C85   C     C_R   0.961421 0.554514 0.017803 -0.203468
C86   C     C_R   0.038581 0.445488 0.982198 -0.203462
C87   C     C_R   0.946826 0.499371 0.054958 -0.063804
C88   C     C_R   0.053175 0.500631 0.945043 -0.063806
C89   C     C_R   0.986101 0.444264 0.036979 0.006566
C90   C     C_R   0.013901 0.555739 0.963024 0.006572
H15   H     H_    0.082032 0.666425 0.517873 0.167254
H16   H     H_    0.917968 0.333575 0.482127 0.167254
N1    N     N_R   0.115784 0.239413 0.969708 0.222131
O27   O     O_R   0.186646 0.256094 0.010389 -0.405584
O28   O     O_R   0.067257 0.263317 0.015468 -0.406435
N2    N     N_R   0.884228 0.760594 0.030292 0.222139
O29   O     O_R   0.813348 0.743874 0.989602 -0.405601
O30   O     O_R   0.932779 0.736737 0.984544 -0.406413
H17   H     H_    0.161277 0.104554 0.699522 0.185508
H18   H     H_    0.838719 0.895433 0.300471 0.185504
N3    N     N_R   0.907249 0.109313 0.696505 0.229172
O31   O     O_R   0.898448 0.106492 0.624556 -0.382678
O32   O     O_R   0.845150 0.102743 0.733516 -0.320778
N4    N     N_R   0.092760 0.890700 0.303500 0.229172
O33   O     O_R   0.101560 0.893518 0.375448 -0.382678
O34   O     O_R   0.154862 0.897277 0.266492 -0.320765
N5    N     N_R   0.909020 0.892552 0.577253 0.223986
O35   O     O_R   0.950323 0.884898 0.628348 -0.357094
O36   O     O_R   0.823849 0.854015 0.563347 -0.269796
N6    N     N_R   0.090982 0.107448 0.422747 0.223988
O37   O     O_R   0.049679 0.115095 0.371645 -0.357095
O38   O     O_R   0.176155 0.145993 0.436661 -0.269796
H19   H     H_    0.716816 0.775528 0.831344 0.186458
H20   H     H_    0.283191 0.224459 0.168647 0.186459
H21   H     H_    0.660963 0.591772 0.752765 0.184384
H22   H     H_    0.339041 0.408215 0.247229 0.184376
H23   H     H_    0.581933 0.494587 0.816259 0.170982
H24   H     H_    0.418067 0.505403 0.183738 0.170980
N7    N     N_R   0.617282 0.785339 0.065162 0.188075
O39   O     O_R   0.555345 0.736483 0.090655 -0.390669
O40   O     O_R   0.667102 0.886094 0.115602 -0.365383
N8    N     N_R   0.382718 0.214657 0.934828 0.188071
O41   O     O_R   0.444661 0.263515 0.909340 -0.390669
O42   O     O_R   0.332891 0.113902 0.884382 -0.365378
H25   H     H_    0.696559 0.863944 0.974698 0.215640
H26   H     H_    0.303446 0.136047 0.025290 0.215636
H27   H     H_    0.666189 0.606073 0.040867 0.180315
H28   H     H_    0.333811 0.393922 0.959129 0.180311
H29   H     H_    0.060663 0.761014 0.816610 0.176423
H30   H     H_    0.939351 0.238991 0.183393 0.176426
N9    N     N_R   0.186173 0.879707 0.977675 0.197374
O43   O     O_R   0.203582 0.927503 0.939131 -0.402274
O44   O     O_R   0.237944 0.929936 0.058068 -0.394796
N10   N     N_R   0.813841 0.120293 0.022326 0.197380
O45   O     O_R   0.762057 0.070071 0.941940 -0.394804
O46   O     O_R   0.796449 0.072488 0.060859 -0.402251
H31   H     H_    0.142387 0.756775 0.034903 0.179077
H32   H     H_    0.857620 0.243226 0.965099 0.179082
H33   H     H_    0.910466 0.482727 0.805294 0.144379
H34   H     H_    0.089534 0.517281 0.194712 0.144375
H35   H     H_    0.933751 0.577973 0.738079 0.154057
H36   H     H_    0.066255 0.422036 0.261927 0.154057
H37   H     H_    0.931145 0.596344 0.030611 0.188958
H38   H     H_    0.068856 0.403659 0.969391 0.188971
H39   H     H_    0.955486 0.360415 0.343988 0.156400
H40   H     H_    0.044514 0.639585 0.656012 0.156399
N11   N     N_R   0.599853 0.435782 0.530746 0.235171
O47   O     O_R   0.591297 0.414633 0.589595 -0.352447
O48   O     O_R   0.652625 0.423403 0.485404 -0.395398
N12   N     N_R   0.400147 0.564217 0.469253 0.235173
O49   O     O_R   0.408702 0.585364 0.410404 -0.352442
O50   O     O_R   0.347376 0.576597 0.514597 -0.395398
N13   N     N_R   0.387642 0.303045 0.461537 0.258907
O51   O     O_R   0.335267 0.223842 0.380524 -0.284058
O52   O     O_R   0.388973 0.289564 0.524709 -0.316567
N14   N     N_R   0.612358 0.696954 0.538463 0.258905
O53   O     O_R   0.664733 0.776157 0.619476 -0.284060
O54   O     O_R   0.611027 0.710436 0.475291 -0.316570

loop_
_geom_bond_atom_site_label_1
_geom_bond_atom_site_label_2
_geom_bond_distance
_ccdc_geom_bond_type
C26   C28   1.539711 S    
C78   C89   1.476823 S    
Zn4   O8    1.939993 S    
Zn7   O21   1.941479 S    
O17   C11   1.278513 A    
N5    O36   1.300393 A    
C31   C33   1.536117 S    
N13   O51   1.300299 A    
C75   C77   1.403666 A    
C64   H26   1.081295 S    
C14   C20   1.547636 S    
C21   C26   1.539450 S    
C86   C89   1.385628 A    
C56   C58   1.394346 A    
C42   C53   1.488390 S    
C83   H29   1.082153 S    
N7    O40   1.301718 A    
Zn7   O3    1.930252 S    
C57   C59   1.404909 A    
C8    C33   1.459505 S    
C16   C18   1.535373 S    
C32   C34   1.536115 S    
O24   C2    1.279714 A    
C76   C78   1.403668 A    
C55   C65   1.393073 A    
C34   C36   1.554842 S    
N3    O32   1.301637 A    
C29   C34   1.533895 S    
C37   C47   1.401955 A    
C36   H10   1.108701 S    
C66   H20   1.082467 S    
N2    O30   1.299888 A    
Zn5   O9    1.942455 S    
N8    O41   1.300707 A    
O20   C6    1.273989 A    
C22   C24   1.549941 S    
C46   C48   1.405847 A    
O15   C9    1.269461 A    
C12   C17   1.481013 S    
C24   H4    1.110057 S    
C86   H38   1.084674 S    
N10   O45   1.301549 A    
C30   C36   1.548385 S    
C82   H36   1.082408 S    
C61   N7    1.444283 S    
C61   C63   1.408640 A    
C37   H11   1.082634 S    
C44   C46   1.407863 A    
C15   H15   1.110093 S    
C63   C65   1.395738 A    
C50   N6    1.437372 S    
C24   C27   1.549715 S    
C57   H23   1.083459 S    
C25   C27   1.539710 S    
C32   C35   1.547318 S    
C81   H35   1.082407 S    
C79   H33   1.083095 S    
C31   C36   1.547321 S    
Zn3   O11   1.953641 S    
N12   O49   1.300018 A    
C43   C45   1.407865 A    
O5    C3    1.287035 A    
C49   C54   1.386515 A    
C30   N14   1.455804 S    
O21   C7    1.278825 A    
C39   C41   1.403135 A    
C24   C26   1.539698 S    
C85   C90   1.385628 A    
O26   C4    1.288718 A    
N9    O44   1.301539 A    
N6    O38   1.300392 A    
N13   O52   1.300309 A    
C60   C71   1.482608 S    
C73   C83   1.407165 A    
C30   C33   1.533895 S    
C74   C84   1.407172 A    
C49   C51   1.411096 A    
O11   C9    1.276326 A    
C21   H5    1.110063 S    
O13   C11   1.278677 A    
C5    C88   1.458895 S    
C17   C19   1.536547 S    
C22   H6    1.110065 S    
C14   C17   1.535890 S    
Zn6   O10   1.942452 S    
C6    C87   1.458891 S    
C18   C20   1.536549 S    
C43   N3    1.442593 S    
C23   H3    1.110058 S    
O9    C7    1.277352 A    
C38   C48   1.401951 A    
C68   H28   1.084978 S    
C40   C42   1.403136 A    
C32   N12   1.458382 S    
Zn1   O1    1.945930 S    
C30   C32   1.527565 S    
O19   C5    1.273989 A    
N7    O39   1.300705 A    
C29   C31   1.527565 S    
C69   C71   1.412564 A    
Zn2   O20   1.942434 S    
C86   C88   1.398726 A    
N11   O47   1.300018 A    
C67   C69   1.398258 A    
Zn7   O13   1.949205 S    
C45   C47   1.405848 A    
C45   H13   1.082409 S    
O25   C3    1.288719 A    
Zn6   O26   1.929470 S    
Zn5   O25   1.929468 S    
C27   H7    1.110044 S    
N1    O28   1.299932 A    
C75   H31   1.083194 S    
C82   C84   1.397817 A    
C79   C81   1.395768 A    
Zn5   O1    1.955382 S    
Zn3   O1    1.950544 S    
C23   C28   1.549714 S    
C48   N2    1.438087 S    
C41   C54   1.488388 S    
C22   C25   1.539446 S    
Zn8   O14   1.949205 S    
Zn5   O15   1.951081 S    
C4    C25   1.504347 S    
C74   N10   1.439045 S    
Zn8   O4    1.930251 S    
Zn6   O16   1.951081 S    
C3    C26   1.504346 S    
C46   H14   1.082408 S    
C35   H9    1.108701 S    
C67   H27   1.084977 S    
C55   C57   1.394345 A    
N4    O33   1.300957 A    
C77   C79   1.401120 A    
C14   C16   1.548158 S    
C33   C35   1.554842 S    
O7    C5    1.284139 A    
Zn4   O24   1.933994 S    
O8    C6    1.284139 A    
C13   C18   1.535889 S    
C56   C66   1.393073 A    
C64   C66   1.395737 A    
C70   C72   1.412564 A    
C44   N4    1.442593 S    
O14   C12   1.278678 A    
C42   C44   1.418948 A    
C11   C18   1.481012 S    
O12   C10   1.276326 A    
C38   H12   1.082637 S    
C41   C43   1.418946 A    
N6    O37   1.301253 A    
O16   C10   1.269461 A    
C87   C89   1.416912 A    
C20   H40   1.108685 S    
O4    C2    1.286570 A    
Zn4   O2    1.950541 S    
O6    C4    1.287035 A    
Zn2   O2    1.945933 S    
C62   N8    1.444280 S    
C59   C72   1.482611 S    
C29   C35   1.548385 S    
C7    C34   1.459505 S    
Zn3   O7    1.939995 S    
C85   H37   1.084675 S    
C88   C90   1.416914 A    
C13   C19   1.547636 S    
C52   C54   1.418426 A    
N4    O34   1.301637 A    
C22   C28   1.549488 S    
C29   N13   1.455805 S    
C78   C80   1.401122 A    
N10   O46   1.301335 A    
C19   H39   1.108685 S    
C63   H25   1.081294 S    
C80   H34   1.083097 S    
C39   H17   1.083581 S    
N14   O54   1.300309 A    
N2    O29   1.299948 A    
C40   H18   1.083580 S    
Zn2   O18   1.955053 S    
C56   H22   1.081120 S    
C13   H1    1.110221 S    
Zn1   O17   1.955055 S    
C31   N11   1.458380 S    
C47   N1    1.438074 S    
C80   C82   1.395767 A    
C77   C90   1.476823 S    
C13   C15   1.548158 S    
C50   C53   1.386518 A    
C55   H21   1.081123 S    
C16   C19   1.547410 S    
C68   C71   1.372447 A    
Zn8   O22   1.941480 S    
O10   C8    1.277354 A    
Zn1   O19   1.942432 S    
C15   C20   1.547408 S    
C38   C40   1.392481 A    
N3    O31   1.300954 A    
C23   C25   1.539698 S    
Zn3   O23   1.933994 S    
C76   H32   1.083195 S    
C21   C27   1.549487 S    
C59   C61   1.423121 A    
C60   C62   1.423118 A    
C58   C60   1.404907 A    
C10   C69   1.432343 S    
C58   H24   1.083457 S    
C15   C17   1.535372 S    
O23   C1    1.279717 A    
O3    C1    1.286569 A    
C73   N9    1.439036 S    
C68   C70   1.398259 A    
C2    C51   1.455185 S    
C16   H16   1.110093 S    
C49   N5    1.437372 S    
Zn2   O6    1.934206 S    
C50   C52   1.411099 A    
C62   C64   1.408640 A    
C73   C75   1.407204 A    
C21   C23   1.549941 S    
Zn6   O2    1.955381 S    
O18   C12   1.278514 A    
C9    C70   1.432341 S    
C65   H19   1.082469 S    
N9    O43   1.301344 A    
Zn4   O12   1.953643 S    
Zn7   O1    1.957944 S    
C14   H2    1.110221 S    
Zn1   O5    1.934206 S    
N14   O53   1.300299 A    
Zn8   O2    1.957944 S    
C67   C72   1.372446 A    
N5    O35   1.301253 A    
C85   C87   1.398728 A    
C28   H8    1.110044 S    
O22   C8    1.278825 A    
N12   O50   1.300143 A    
N8    O42   1.301718 A    
N11   O48   1.300143 A    
N1    O27   1.299982 A    
C74   C76   1.407198 A    
C51   C53   1.418429 A    
C37   C39   1.392478 A    
C1    C52   1.455187 S    
C84   H30   1.082150 S    
C81   C83   1.397813 A    
