data_mof_unit_47934.cif
_audit_creation_date              2012-12-11T17:01:13-0500
_audit_creation_method            fapswitch 2.2
_symmetry_space_group_name_H-M    P1
_symmetry_Int_Tables_number       1
_space_group_crystal_system       triclinic
_cell_length_a                    19.422648
_cell_length_b                    7.131798
_cell_length_c                    17.612676
_cell_angle_alpha                 90.000232
_cell_angle_beta                  108.790763
_cell_angle_gamma                 90.000139
_cell_volume                      2309.6477403

loop_
_atom_site_label
_atom_site_type_symbol
_atom_type_description
_atom_site_fract_x
_atom_site_fract_y
_atom_site_fract_z
_atom_type_partial_charge
O1    O     O_R   0.413720 0.494330 0.415730 -0.543326
O2    O     O_R   0.586280 0.994330 0.584270 -0.543331
O3    O     O_R   0.560210 0.819300 0.430070 -0.527242
O4    O     O_R   0.439790 0.319300 0.569930 -0.527215
C1    C     C_R   0.581073 0.655233 0.413848 0.795665
C2    C     C_R   0.418928 0.155232 0.586154 0.795620
O5    O     O_R   0.412670 0.823730 0.406310 -0.538088
O6    O     O_R   0.587330 0.323730 0.593690 -0.538088
O7    O     O_R   0.437690 0.998790 0.560340 -0.511210
O8    O     O_R   0.562310 0.498790 0.439660 -0.511244
C3    C     C_R   0.385277 0.655462 0.383652 0.761068
C4    C     C_R   0.614723 0.155463 0.616348 0.761014
O9    O     O_3   0.508380 0.662350 0.550560 -0.366282
O10   O     O_3   0.491620 0.162350 0.449440 -0.366331
V1    V     V_3+5 0.498450 0.935370 0.490620 1.572720
V2    V     V_3+5 0.501550 0.435370 0.509380 1.572749
C5    C     C_R   0.702489 0.983425 0.731790 0.060795
C6    C     C_R   0.297510 0.483425 0.268210 0.060831
C7    C     C_R   0.683232 0.146899 0.685239 -0.127975
C8    C     C_R   0.316767 0.646897 0.314762 -0.127968
C9    C     C_R   0.735991 0.290134 0.698102 -0.180300
C10   C     C_R   0.264008 0.790130 0.301902 -0.180324
H1    H     H_    0.727000 0.406362 0.656507 0.183452
H2    H     H_    0.272999 0.906355 0.343499 0.183392
C11   C     C_R   0.804192 0.272590 0.758546 0.369398
C12   C     C_R   0.195807 0.772589 0.241456 0.369407
C13   C     C_R   0.818469 0.120951 0.812300 -0.154811
C14   C     C_R   0.181531 0.620952 0.187700 -0.154806
C15   C     C_R   0.770801 0.968917 0.791656 -0.051436
C16   C     C_R   0.229198 0.468918 0.208343 -0.051416
C17   C     C_3   0.786609 0.791817 0.754664 0.110441
C18   C     C_3   0.213389 0.291817 0.245334 0.110427
C19   C     C_3   0.709608 0.795049 0.698477 -0.408453
C20   C     C_3   0.290390 0.295048 0.301522 -0.408485
H3    H     H_    0.798074 0.673222 0.797696 0.131767
H4    H     H_    0.201923 0.173222 0.202301 0.131782
H5    H     H_    0.673869 0.690110 0.713872 0.154554
H6    H     H_    0.326128 0.190108 0.286126 0.154574
H7    H     H_    0.705169 0.796647 0.633952 0.204398
H8    H     H_    0.294829 0.296645 0.366047 0.204379
C21   C     C_R   0.317073 0.001667 0.624337 0.326578
C22   C     C_R   0.682974 0.501780 0.375723 0.326538
C23   C     C_R   0.369756 0.147034 0.636395 -0.190074
C24   C     C_R   0.630247 0.647038 0.363612 -0.190003
C25   C     C_R   0.374131 0.286382 0.695776 0.081432
C26   C     C_R   0.625833 0.786286 0.304188 0.081310
C27   C     C_R   0.322611 0.288380 0.737239 0.058997
C28   C     C_R   0.677356 0.788308 0.262730 0.059032
C29   C     C_R   0.272960 0.138105 0.727391 -0.031622
C30   C     C_R   0.727039 0.638101 0.272613 -0.031617
C31   C     C_R   0.271588 0.991828 0.672769 0.022745
C32   C     C_R   0.728452 0.491913 0.327284 0.022745
C33   C     C_R   0.319673 0.436805 0.789189 -0.121244
C34   C     C_R   0.680271 0.936696 0.210757 -0.121190
C35   C     C_R   0.270334 0.434559 0.831796 -0.201355
C36   C     C_R   0.729619 0.934475 0.168159 -0.201312
C37   C     C_R   0.223206 0.282884 0.824922 0.098630
C38   C     C_R   0.776769 0.782841 0.175056 0.098627
C39   C     C_R   0.224497 0.133586 0.772860 0.094151
C40   C     C_R   0.775500 0.633579 0.227141 0.094129
C41   C     C_R   0.177459 0.979440 0.766544 0.086734
C42   C     C_R   0.822561 0.479480 0.233485 0.086722
C43   C     C_R   0.177934 0.832835 0.714059 -0.188144
C44   C     C_R   0.822125 0.332954 0.286016 -0.188113
C45   C     C_R   0.223735 0.839513 0.667256 -0.086696
C46   C     C_R   0.776340 0.339671 0.332837 -0.086685
C47   C     C_R   0.175105 0.277852 0.869670 -0.201954
C48   C     C_R   0.824876 0.777821 0.130313 -0.201960
C49   C     C_R   0.129247 0.122695 0.864829 -0.072126
C50   C     C_R   0.870749 0.622692 0.135170 -0.072134
C51   C     C_R   0.130855 0.973846 0.813041 -0.184183
C52   C     C_R   0.869160 0.473873 0.186979 -0.184172
H9    H     H_    0.354225 0.558566 0.796682 0.167174
H10   H     H_    0.645697 0.058417 0.203244 0.167159
H11   H     H_    0.269486 0.551584 0.870761 0.132001
H12   H     H_    0.730455 0.051481 0.129183 0.131989
H13   H     H_    0.174662 0.392932 0.909750 0.122395
H14   H     H_    0.825309 0.892884 0.090222 0.122387
H15   H     H_    0.095268 0.854160 0.808253 0.152521
H16   H     H_    0.904760 0.354216 0.191783 0.152530
H17   H     H_    0.142495 0.712739 0.708822 0.155480
H18   H     H_    0.857590 0.212909 0.291283 0.155491
H19   H     H_    0.221757 0.722189 0.627734 0.198237
H20   H     H_    0.778359 0.222442 0.372408 0.198245
O11   O     O_R   0.937800 0.775460 0.060470 -0.534736
O12   O     O_R   0.062200 0.275460 0.939530 -0.534742
O13   O     O_R   0.087350 0.441340 0.093710 -0.540581
O14   O     O_R   0.912650 0.941340 0.906290 -0.540581
C53   C     C_R   0.113720 0.610131 0.117653 0.748789
C54   C     C_R   0.886280 0.110130 0.882346 0.748782
O15   O     O_R   0.939820 0.446010 0.069950 -0.549437
O16   O     O_R   0.060180 0.946010 0.930050 -0.549442
O17   O     O_R   0.913690 0.271230 0.915700 -0.523087
O18   O     O_R   0.086310 0.771230 0.084300 -0.523085
C55   C     C_R   0.919192 0.614423 0.085220 0.721224
C56   C     C_R   0.080806 0.114423 0.914779 0.721234
O19   O     O_3   0.991670 0.603050 0.949510 -0.362071
O20   O     O_3   0.008330 0.103050 0.050490 -0.362067
V3    V     V_3+5 0.001550 0.329940 0.009370 1.513300
V4    V     V_3+5 0.998450 0.829940 0.990630 1.513301
Cl1   Cl    Cl    0.878248 0.402374 0.750832 -0.593833
Cl2   Cl    Cl    0.121751 0.902370 0.249170 -0.593866
I1    I     I_    0.862119 0.843145 0.688242 -0.198181
I2    I     I_    0.137878 0.343146 0.311755 -0.198265
Cl3   Cl    Cl    0.303926 0.837281 0.545032 -0.637745
Cl4   Cl    Cl    0.696180 0.337593 0.455104 -0.637807
I3    I     I_    0.464087 0.480512 0.731968 -0.398214
I4    I     I_    0.535818 0.980187 0.267938 -0.398384

loop_
_geom_bond_atom_site_label_1
_geom_bond_atom_site_label_2
_ccdc_geom_bond_type
C43   C45   A    
C36   H12   S    
C13   C15   A    
C5    C15   A    
C47   H13   S    
C49   C56   S    
O2    C4    A    
C2    O7    A    
C51   H15   S    
C32   C46   A    
C27   C29   A    
O5    C3    A    
C19   H7    S    
C5    C19   S    
C43   H17   S    
C20   H8    S    
C18   H4    S    
C7    C9    A    
C37   C39   A    
C38   C40   A    
O16   C56   A    
C13   C54   S    
C40   C42   A    
C31   C45   A    
C25   C27   A    
C53   O18   A    
C49   C51   A    
C42   C44   A    
C18   C20   S    
C34   H10   S    
C29   C31   A    
C26   I4    S    
C30   C32   A    
C18   I2    S    
C14   C53   S    
C6    C16   A    
O17   V3    S    
C6    C8    A    
C27   C33   A    
C35   H11   S    
C48   C50   A    
C41   C51   A    
C28   C30   A    
O6    V2    S    
C21   C23   A    
C22   C24   A    
C37   C47   A    
O19   V3    S    
C24   C26   A    
C21   Cl3   S    
O13   V3    S    
C33   C35   A    
C48   H14   S    
C34   C36   A    
C3    C8    S    
C39   C41   A    
O4    C2    A    
O5    V1    S    
O15   C55   A    
C19   H5    S    
C47   C49   A    
C17   I1    S    
O4    V2    S    
C28   C34   A    
O12   V3    S    
C23   C25   A    
O18   V4    S    
O6    C4    A    
C17   C19   S    
C42   C52   A    
O1    V2    S    
O2    V1    S    
C6    C20   S    
C44   H18   S    
O14   V4    S    
O12   C56   A    
C38   C48   A    
C1    C24   S    
C8    C10   A    
O20   V4    S    
C2    C23   S    
C35   C37   A    
C17   H3    S    
O19   V4    S    
O3    V1    S    
O16   V4    S    
C54   O17   A    
C9    C11   A    
C20   H6    S    
C41   C43   A    
C33   H9    S    
O14   C54   A    
O3    C1    A    
C11   C13   A    
C12   C14   A    
C29   C39   A    
C30   C40   A    
C9    H1    S    
C50   C55   S    
O7    V1    S    
C1    O8    A    
C15   C17   S    
O11   V4    S    
O8    V2    S    
C12   Cl2   S    
C16   C18   S    
O11   C55   A    
C11   Cl1   S    
C4    C7    S    
C14   C16   A    
C5    C7    A    
C36   C38   A    
C10   H2    S    
C45   H19   S    
C46   H20   S    
C22   Cl4   S    
C26   C28   A    
C52   H16   S    
O20   V3    S    
C10   C12   A    
O9    V2    S    
C22   C32   A    
O13   C53   A    
O10   V1    S    
C50   C52   A    
O1    C3    A    
O15   V3    S    
C21   C31   A    
C25   I3    S    
C44   C46   A    
