data_mof_unit_59254.cif
_audit_creation_date              2012-12-11T14:23:04-0500
_audit_creation_method            fapswitch 2.2
_symmetry_space_group_name_H-M    P1
_symmetry_Int_Tables_number       1
_space_group_crystal_system       triclinic
_cell_length_a                    10.871597
_cell_length_b                    11.01664
_cell_length_c                    18.79784
_cell_angle_alpha                 90.173227
_cell_angle_beta                  89.894267
_cell_angle_gamma                 60.352079
_cell_volume                      1956.61673769

loop_
_atom_site_label
_atom_site_type_symbol
_atom_type_description
_atom_site_fract_x
_atom_site_fract_y
_atom_site_fract_z
_atom_type_partial_charge
C1    C     C_R   0.234442 0.645621 0.609326 0.529816
C2    C     C_3   0.733184 0.505284 0.804426 -0.235557
C3    C     C_3   0.687354 0.661152 0.816757 0.054190
C4    C     C_3   0.647000 0.618655 0.683932 0.040054
C5    C     C_3   0.744217 0.684273 0.687906 -0.225130
C6    C     C_3   0.715517 0.479860 0.725674 -0.234407
C7    C     C_R   0.704973 0.118613 0.815625 -0.000061
C8    C     C_R   0.809154 0.135541 0.778173 0.018934
C9    C     C_R   0.806228 0.136458 0.702442 0.020487
C10   C     C_R   0.598509 0.109614 0.703609 -0.159322
C11   C     C_R   0.606730 0.097669 0.776164 -0.151716
C12   C     C_R   0.627955 0.588787 0.608952 0.560910
C13   C     C_R   0.915515 0.151871 0.812570 -0.120341
C14   C     C_R   0.024362 0.152551 0.773537 -0.158962
C15   C     C_R   0.028708 0.138618 0.699878 -0.152624
C16   C     C_R   0.920731 0.130995 0.664470 -0.100518
C17   C     C_R   0.687933 0.143583 0.666928 -0.006245
C18   C     C_R   0.176303 0.673346 0.833205 -0.012131
C19   C     C_R   0.206935 0.547027 0.799326 0.018199
C20   C     C_R   0.198374 0.543025 0.723993 0.018225
C21   C     C_R   0.160429 0.779950 0.719238 -0.168191
C22   C     C_R   0.159484 0.786068 0.792244 -0.159128
C23   C     C_R   0.633019 0.221088 0.600317 0.545106
C24   C     C_R   0.245767 0.424781 0.838958 -0.081831
C25   C     C_R   0.262757 0.304662 0.805952 -0.126982
C26   C     C_R   0.241377 0.304110 0.733240 -0.132634
C27   C     C_R   0.206104 0.422427 0.692713 -0.082575
C28   C     C_R   0.183921 0.659146 0.683519 -0.015412
C29   C     C_R   0.652882 0.678090 0.169731 -0.034812
C30   C     C_R   0.713473 0.543794 0.198531 0.017541
C31   C     C_R   0.748567 0.527501 0.270969 0.003929
C32   C     C_R   0.611597 0.779593 0.289562 0.019324
C33   C     C_R   0.607124 0.794476 0.215417 -0.157296
C34   C     C_R   0.218074 0.653665 0.402175 0.537750
C35   C     C_R   0.764851 0.424908 0.153943 -0.075933
C36   C     C_R   0.879522 0.299886 0.175093 -0.112020
C37   C     C_R   0.930402 0.287300 0.243721 -0.153631
C38   C     C_R   0.865284 0.397853 0.291697 -0.099416
C39   C     C_R   0.673978 0.644704 0.317852 -0.017108
C40   C     C_R   0.642532 0.177506 0.170941 0.001982
C41   C     C_R   0.502048 0.257524 0.195259 0.025661
C42   C     C_R   0.478151 0.281142 0.268904 0.054880
C43   C     C_R   0.733205 0.169830 0.288145 -0.121623
C44   C     C_R   0.755482 0.127366 0.218658 -0.141689
C45   C     C_R   0.645451 0.620132 0.391772 0.598303
C46   C     C_R   0.385093 0.299688 0.149195 -0.097031
C47   C     C_R   0.256366 0.322926 0.176009 -0.115158
C48   C     C_R   0.237779 0.324519 0.248958 -0.120589
C49   C     C_R   0.341050 0.318852 0.294605 -0.045881
C50   C     C_R   0.595933 0.251073 0.313688 0.032528
C51   C     C_R   0.139519 0.675822 0.185410 0.004758
C52   C     C_R   0.210173 0.741182 0.215389 0.017592
C53   C     C_R   0.186565 0.776181 0.287249 0.038817
C54   C     C_R   0.083608 0.626174 0.302940 -0.165527
C55   C     C_R   0.067199 0.628424 0.229580 -0.141216
C56   C     C_R   0.579332 0.292335 0.387792 0.554594
C57   C     C_R   0.281367 0.793855 0.173416 -0.088005
C58   C     C_R   0.294410 0.906149 0.197677 -0.115226
C59   C     C_R   0.250006 0.957307 0.265970 -0.132314
C60   C     C_R   0.195958 0.894088 0.310505 -0.086824
C61   C     C_R   0.151794 0.692698 0.332120 0.006881
C62   C     C_R   0.707339 0.091499 0.892709 0.536260
C63   C     C_R   0.718665 0.684347 0.890504 0.536433
C64   C     C_R   0.118900 0.706421 0.905763 0.529594
C65   C     C_R   0.673593 0.110622 0.102314 0.534871
C66   C     C_R   0.694406 0.691472 0.097465 0.530500
C67   C     C_3   0.528164 0.750057 0.798086 -0.240601
C68   C     C_R   0.092275 0.709523 0.112834 0.532513
C69   C     C_3   0.503690 0.719130 0.720759 -0.235674
C70   C     C_3   0.774250 0.701613 0.766047 -0.228640
Cr1   Cr    Cr6+3 0.392940 0.397950 0.502230 0.986293
Cr2   Cr    Cr6+3 0.398400 0.708500 0.501260 1.018949
Cr3   Cr    Cr6+3 0.708640 0.393530 0.496460 0.990199
Cr4   Cr    Cr6+3 0.937880 0.938320 0.007620 0.992088
Cr5   Cr    Cr6+3 0.625560 0.937220 0.994510 0.991800
Cr6   Cr    Cr6+3 0.938080 0.625010 0.001190 0.994356
H1    H     H_    0.492693 0.863250 0.803601 0.121888
H2    H     H_    0.821151 0.408373 0.702599 0.165390
H3    H     H_    0.846433 0.617298 0.659987 0.140840
H4    H     H_    0.514710 0.101667 0.676730 0.136369
H5    H     H_    0.916240 0.166438 0.869204 0.138710
H6    H     H_    0.533784 0.070793 0.801079 0.141085
H7    H     H_    0.107244 0.160424 0.800986 0.111291
H8    H     H_    0.116126 0.131984 0.669513 0.103184
H9    H     H_    0.930710 0.115614 0.607466 0.137269
H10   H     H_    0.152997 0.867746 0.690515 0.157850
H11   H     H_    0.463390 0.725938 0.835234 0.117092
H12   H     H_    0.266695 0.419992 0.895425 0.121893
H13   H     H_    0.141411 0.882253 0.816780 0.159934
H14   H     H_    0.292188 0.211819 0.837056 0.099017
H15   H     H_    0.181608 0.417818 0.637571 0.141500
H16   H     H_    0.727372 0.432793 0.099855 0.112861
H17   H     H_    0.574642 0.896637 0.193230 0.172474
H18   H     H_    0.928663 0.212640 0.138397 0.124347
H19   H     H_    0.018593 0.190638 0.260634 0.105663
H20   H     H_    0.437403 0.668534 0.721204 0.132808
H21   H     H_    0.917923 0.382041 0.342155 0.141586
H22   H     H_    0.824488 0.133243 0.322573 0.139421
H23   H     H_    0.394634 0.304938 0.092156 0.126066
H24   H     H_    0.863149 0.054420 0.202379 0.150138
H25   H     H_    0.170515 0.341789 0.140462 0.125495
H26   H     H_    0.138067 0.343387 0.270527 0.101066
H27   H     H_    0.311182 0.334409 0.349572 0.169516
H28   H     H_    0.044982 0.572191 0.336383 0.120377
H29   H     H_    0.314481 0.757451 0.119424 0.119427
H30   H     H_    0.001695 0.589131 0.207296 0.152070
H31   H     H_    0.445675 0.819280 0.691308 0.134840
H32   H     H_    0.335077 0.956052 0.162737 0.129162
H33   H     H_    0.255014 0.047790 0.284225 0.158342
H34   H     H_    0.154832 0.943632 0.361462 0.137887
H35   H     H_    0.748267 0.811245 0.775760 0.129199
H36   H     H_    0.846013 0.437341 0.819203 0.153067
H37   H     H_    0.668603 0.475012 0.838231 0.112310
H38   H     H_    0.649222 0.429086 0.721257 0.120565
O1    O     O_R   0.507340 0.255690 0.581430 -0.516727
O2    O     O_R   0.524510 0.695820 0.424050 -0.459499
O3    O     O_R   0.736370 0.504260 0.414810 -0.545364
O4    O     O_R   0.691220 0.277270 0.422180 -0.510929
O5    O     O_3   0.499990 0.499990 0.499980 -0.282205
O6    O     O_R   0.089570 0.825450 0.930590 -0.530055
O7    O     O_R   0.818700 0.054260 0.929860 -0.512887
O8    O     O_R   0.606310 0.077010 0.915520 -0.535940
O9    O     O_R   0.646730 0.806540 0.917560 -0.512441
O10   O     O_R   0.837290 0.593240 0.915240 -0.526859
O11   O     O_R   0.065320 0.635310 0.931580 -0.505674
O12   O     O_R   0.280360 0.527380 0.578910 -0.511426
O13   O     O_R   0.068470 0.828620 0.091850 -0.524920
O14   O     O_R   0.799150 0.057200 0.079350 -0.513321
O15   O     O_R   0.585220 0.080180 0.076770 -0.527424
O16   O     O_R   0.627170 0.809480 0.067050 -0.510238
O17   O     O_R   0.816200 0.596410 0.076500 -0.519810
O18   O     O_R   0.045770 0.638240 0.081070 -0.511598
O19   O     O_3   0.833840 0.833520 0.001110 -0.236615
O20   O     O_R   0.260600 0.739610 0.584580 -0.535374
O21   O     O_R   0.532370 0.695050 0.573830 -0.496047
O22   O     O_R   0.744850 0.503430 0.576380 -0.524197
O23   O     O_R   0.699080 0.276500 0.571950 -0.523339
O24   O     O_R   0.498860 0.256520 0.419860 -0.527422
O25   O     O_R   0.272490 0.528150 0.429140 -0.533759
O26   O     O_R   0.252110 0.740440 0.423010 -0.528558
H39   H     H_    0.889476 0.634388 0.776524 0.144538
H40   H     H_    0.255695 0.210211 0.707815 0.092023
C71   C     C_2   0.570278 0.902861 0.336150 0.575931
O27   O     O_2   0.490871 0.019675 0.313835 -0.553260
O28   O     O_R   0.626190 0.886507 0.404678 -0.691378
H41   H     H_    0.590359 0.978604 0.430764 0.354399
H42   H     H_    0.692379 0.787872 0.661268 0.134041

loop_
_geom_bond_atom_site_label_1
_geom_bond_atom_site_label_2
_ccdc_geom_bond_type
C57   H29   S    
C46   H23   S    
C8    C13   A    
C47   H25   S    
C29   C33   A    
Cr5   O8    S    
C44   H24   S    
C41   C42   A    
C54   C55   A    
C35   C36   A    
C67   H1    S    
C43   H22   S    
C69   H20   S    
C63   O10   A    
C69   H31   S    
C7    C8    A    
C7    C11   A    
C2    H36   S    
C26   C27   A    
C17   C23   S    
C30   C35   A    
Cr5   O9    S    
C54   H28   S    
C36   C37   A    
C9    C16   A    
C30   C31   A    
Cr6   O17   S    
Cr3   O5    S    
C6    H2    S    
C10   C17   A    
C71   O27   D    
Cr4   O19   S    
C13   H5    S    
C34   O25   A    
C37   H19   S    
C18   C19   A    
C32   C39   A    
C68   O18   A    
C6    H38   S    
C32   C71   S    
C59   H33   S    
C21   H10   S    
C53   C61   A    
Cr4   O14   S    
C19   C20   A    
C8    C9    A    
C12   O21   A    
C1    C28   S    
C41   C46   A    
Cr1   O12   S    
C27   H15   S    
C5    H3    S    
C58   H32   S    
Cr5   O16   S    
C39   C45   S    
C35   H16   S    
C59   C60   A    
C13   C14   A    
Cr6   O11   S    
C2    C6    S    
C14   H7    S    
C38   H21   S    
C4    C69   S    
C53   C60   A    
O28   H41   S    
Cr1   O24   S    
C11   H6    S    
Cr3   O3    S    
C55   H30   S    
C51   C52   A    
Cr6   O10   S    
C65   O14   A    
C3    C70   S    
C1    O12   A    
C4    C6    S    
C52   C57   A    
C10   H4    S    
Cr2   O21   S    
Cr1   O25   S    
C20   C28   A    
C58   C59   A    
Cr5   O15   S    
C34   C61   S    
C50   C56   S    
C67   C69   S    
C37   C38   A    
C43   C44   A    
C7    C62   S    
C29   C30   A    
C65   O15   A    
C56   O24   A    
Cr2   O20   S    
Cr4   O13   S    
Cr3   O22   S    
Cr2   O26   S    
C48   H26   S    
C25   H14   S    
Cr1   O1    S    
C24   C25   A    
C24   H12   S    
C68   O13   A    
C42   C50   A    
C9    C17   A    
C48   C49   A    
C54   C61   A    
C21   C28   A    
C40   C65   S    
C16   H9    S    
C4    C12   S    
C1    O20   A    
C62   O8    A    
C52   C53   A    
C66   O17   A    
C45   O3    A    
C71   O28   S    
C46   C47   A    
C40   C41   A    
C70   H39   S    
Cr3   O4    S    
C18   C22   A    
C56   O4    A    
C23   O23   A    
C3    C67   S    
C4    C5    S    
C47   C48   A    
C5    C70   S    
C33   H17   S    
C49   H27   S    
C63   O9    A    
Cr6   O19   S    
Cr5   O19   S    
C43   C50   A    
C15   H8    S    
C20   C27   A    
C3    C63   S    
Cr4   O6    S    
Cr2   O2    S    
C67   H11   S    
C70   H35   S    
C64   O6    A    
C31   C38   A    
Cr1   O5    S    
C32   C33   A    
C19   C24   A    
C25   C26   A    
C26   H40   S    
Cr6   O18   S    
C45   O2    A    
C18   C64   S    
C57   C58   A    
Cr3   O23   S    
C5    H42   S    
Cr2   O5    S    
C34   O26   A    
C2    H37   S    
C22   H13   S    
C31   C39   A    
C2    C3    S    
C51   C55   A    
C51   C68   S    
C60   H34   S    
C10   C11   A    
C42   C49   A    
C23   O1    A    
C29   C66   S    
C36   H18   S    
C40   C44   A    
Cr4   O7    S    
C64   O11   A    
C12   O22   A    
C14   C15   A    
C21   C22   A    
C62   O7    A    
C15   C16   A    
C66   O16   A    
