data_mof_unit_9490.cif
_audit_creation_date              2012-12-10T17:31:20-0500
_audit_creation_method            fapswitch 2.2
_symmetry_space_group_name_H-M    P1
_symmetry_Int_Tables_number       1
_space_group_crystal_system       triclinic
_cell_length_a                    18.794966
_cell_length_b                    18.398084
_cell_length_c                    12.350295
_cell_angle_alpha                 89.999889
_cell_angle_beta                  129.055766
_cell_angle_gamma                 90.000203
_cell_volume                      3316.28183402

loop_
_atom_site_label
_atom_site_type_symbol
_atom_type_description
_atom_site_fract_x
_atom_site_fract_y
_atom_site_fract_z
_atom_type_partial_charge
C1    C     C_R   0.609896 0.895558 0.649141 0.816899
C2    C     C_R   0.609896 0.104441 0.649141 0.816896
C3    C     C_R   0.109895 0.395558 0.649140 0.816899
C4    C     C_R   0.109897 0.604441 0.649142 0.816899
C5    C     C_R   0.235835 0.779916 0.032312 0.058454
C6    C     C_R   0.235835 0.220084 0.032313 0.058456
C7    C     C_R   0.735838 0.279913 0.032317 0.058455
C8    C     C_R   0.735835 0.720085 0.032313 0.058455
C9    C     C_R   0.660744 0.267445 0.031230 0.105669
C10   C     C_R   0.660749 0.732563 0.031243 0.105670
C11   C     C_R   0.160746 0.767441 0.031235 0.105672
C12   C     C_R   0.160748 0.232561 0.031241 0.105671
C13   C     C_R   0.584080 0.230400 0.918638 -0.192673
C14   C     C_R   0.584087 0.769610 0.918655 -0.192677
C15   C     C_R   0.084083 0.730395 0.918646 -0.192676
C16   C     C_R   0.084085 0.269609 0.918654 -0.192678
C17   C     C_R   0.583691 0.201995 0.814176 -0.175067
C18   C     C_R   0.583692 0.798009 0.814184 -0.175067
C19   C     C_R   0.083691 0.701992 0.814180 -0.175069
C20   C     C_R   0.083691 0.298009 0.814184 -0.175067
C21   C     C_R   0.312172 0.817313 0.145200 -0.237175
C22   C     C_R   0.312172 0.182687 0.145200 -0.237175
C23   C     C_R   0.812177 0.317307 0.145210 -0.237176
C24   C     C_R   0.812171 0.682685 0.145198 -0.237174
C25   C     C_R   0.238119 0.835926 0.246657 -0.187595
C26   C     C_R   0.238123 0.164076 0.246663 -0.187593
C27   C     C_R   0.738113 0.335934 0.246647 -0.187592
C28   C     C_R   0.738125 0.664079 0.246666 -0.187594
C29   C     C_R   0.667344 0.169981 0.724999 -0.166853
C30   C     C_R   0.667340 0.830017 0.724995 -0.166854
C31   C     C_R   0.167343 0.669982 0.724998 -0.166853
C32   C     C_R   0.167339 0.330016 0.724994 -0.166855
C33   C     C_R   0.687351 1.000000 0.288719 -0.101375
C34   C     C_R   0.187351 0.499997 0.288719 -0.101375
C35   C     C_R   0.342626 0.000000 0.627770 0.075522
C36   C     C_R   0.842626 0.500001 0.627770 0.075523
C37   C     C_R   0.307909 0.000000 0.699613 -0.231035
C38   C     C_R   0.807909 0.500001 0.699613 -0.231032
C39   C     C_R   0.384348 0.099585 0.343363 0.812589
C40   C     C_R   0.384347 0.900415 0.343362 0.812590
C41   C     C_R   0.884347 0.599585 0.343363 0.812590
C42   C     C_R   0.884347 0.400415 0.343363 0.812588
C43   C     C_R   0.367217 0.000000 0.845089 -0.205890
C44   C     C_R   0.867217 0.500001 0.845089 -0.205886
C45   C     C_R   0.462916 1.000000 0.921659 0.004483
C46   C     C_R   0.962916 0.500000 0.921659 0.004482
C47   C     C_R   0.495304 1.000000 0.842931 0.277245
C48   C     C_R   0.995304 0.500000 0.842931 0.277243
C49   C     C_R   0.527440 1.000000 0.072659 -0.034170
C50   C     C_R   0.027441 0.500000 0.072659 -0.034170
C51   C     C_R   0.622840 1.000000 0.141263 0.114746
C52   C     C_R   0.122840 0.499998 0.141263 0.114747
C53   C     C_R   0.652277 1.000000 0.061735 -0.246416
C54   C     C_R   0.152277 0.499998 0.061734 -0.246415
C55   C     C_R   0.590438 1.000000 0.917356 -0.169659
C56   C     C_R   0.090438 0.499999 0.917356 -0.169660
C57   C     C_R   0.501781 1.000000 0.159529 0.033474
C58   C     C_R   0.001781 0.500001 0.159529 0.033475
C59   C     C_R   0.656779 0.000000 0.366182 0.116953
C60   C     C_R   0.156779 0.499998 0.366182 0.116955
C61   C     C_R   0.663403 0.294397 0.141012 0.168858
C62   C     C_R   0.663416 0.705619 0.141035 0.168861
C63   C     C_R   0.163410 0.794387 0.141024 0.168858
C64   C     C_R   0.163414 0.205616 0.141032 0.168860
C65   C     C_R   0.311559 0.848774 0.246832 -0.096619
C66   C     C_R   0.311560 0.151227 0.246834 -0.096620
C67   C     C_R   0.811559 0.348774 0.246833 -0.096618
C68   C     C_R   0.811560 0.651227 0.246834 -0.096621
C69   C     C_R   0.732974 0.194605 0.710833 0.176393
C70   C     C_R   0.732966 0.805389 0.710822 0.176401
C71   C     C_R   0.232972 0.694607 0.710831 0.176397
C72   C     C_R   0.232963 0.305386 0.710819 0.176402
C73   C     C_R   0.295837 0.747942 0.799446 -0.133188
C74   C     C_R   0.295826 0.252050 0.799432 -0.133186
C75   C     C_R   0.795845 0.247935 0.799458 -0.133188
C76   C     C_R   0.795830 0.752053 0.799436 -0.133190
C77   C     C_R   0.298051 0.775883 0.905343 -0.196633
C78   C     C_R   0.298044 0.224111 0.905333 -0.196628
C79   C     C_R   0.798063 0.275873 0.905359 -0.196629
C80   C     C_R   0.798047 0.724114 0.905336 -0.196632
C81   C     C_R   0.733193 0.254110 0.921492 0.098779
C82   C     C_R   0.733186 0.745884 0.921482 0.098784
C83   C     C_R   0.233187 0.754115 0.921483 0.098782
C84   C     C_R   0.233184 0.245883 0.921481 0.098784
C85   C     C_R   0.661187 0.207343 0.820249 0.051057
C86   C     C_R   0.661183 0.792655 0.820246 0.051056
C87   C     C_R   0.161184 0.707344 0.820247 0.051057
C88   C     C_R   0.161182 0.292655 0.820246 0.051057
Cu1   Cu    Cu3+1 0.526340 0.000000 0.421010 0.986879
Cu2   Cu    Cu3+1 0.026340 0.500000 0.421010 0.986880
Cu3   Cu    Cu3+1 0.473640 0.000000 0.578990 0.922656
Cu4   Cu    Cu3+1 0.973640 0.500000 0.578990 0.922656
H1    H     H_    0.237736 0.859380 0.326726 0.178688
H2    H     H_    0.237741 0.140624 0.326734 0.178690
H3    H     H_    0.737726 0.359393 0.326709 0.178686
H4    H     H_    0.737744 0.640629 0.326739 0.178690
H5    H     H_    0.724514 0.999999 0.110935 0.169254
H6    H     H_    0.224514 0.499998 0.110935 0.169254
H7    H     H_    0.430914 1.000000 0.115845 0.120196
H8    H     H_    0.930914 0.500002 0.115845 0.120198
H9    H     H_    0.295811 0.000000 0.514983 0.134144
H10   H     H_    0.795811 0.500001 0.514983 0.134144
H11   H     H_    0.336336 0.000000 0.894769 0.141127
H12   H     H_    0.836336 0.500002 0.894769 0.141128
H13   H     H_    0.234543 0.000000 0.642154 0.166133
H14   H     H_    0.734543 0.500002 0.642154 0.166133
H15   H     H_    0.621014 1.000000 0.868376 0.211756
H16   H     H_    0.121014 0.499999 0.868376 0.211756
H17   H     H_    0.523230 0.223343 0.909056 0.172118
H18   H     H_    0.523242 0.776674 0.909083 0.172116
H19   H     H_    0.023236 0.723333 0.909071 0.172117
H20   H     H_    0.023240 0.276672 0.909082 0.172113
H21   H     H_    0.373639 0.822936 0.156577 0.176890
H22   H     H_    0.373639 0.177064 0.156575 0.176889
H23   H     H_    0.873649 0.322922 0.156599 0.176890
H24   H     H_    0.873636 0.677058 0.156569 0.176888
H25   H     H_    0.348562 0.817536 0.968175 0.153245
H26   H     H_    0.348553 0.182458 0.968162 0.153241
H27   H     H_    0.848580 0.317520 0.968200 0.153254
H28   H     H_    0.848558 0.682462 0.968167 0.153243
H29   H     H_    0.344920 0.767649 0.787621 0.164709
H30   H     H_    0.344905 0.232340 0.787601 0.164708
H31   H     H_    0.844931 0.267640 0.787636 0.164709
H32   H     H_    0.844911 0.732345 0.787607 0.164708
H33   H     H_    0.519670 0.179048 0.725550 0.183954
H34   H     H_    0.519671 0.820957 0.725562 0.183959
H35   H     H_    0.019671 0.679043 0.725558 0.183958
H36   H     H_    0.019671 0.320958 0.725563 0.183959
H37   H     H_    0.705435 0.000000 0.478928 0.163311
H38   H     H_    0.205435 0.499997 0.478928 0.163312
N1    N     N_R   0.566260 0.000000 0.302220 -0.181559
N2    N     N_R   0.066260 0.500000 0.302220 -0.181559
N3    N     N_R   0.434410 0.000000 0.697680 -0.212267
N4    N     N_R   0.934410 0.500000 0.697680 -0.212268
O1    O     O_R   0.608610 0.924520 0.551740 -0.541122
O2    O     O_R   0.608610 0.075480 0.551740 -0.541124
O3    O     O_R   0.108610 0.424520 0.551740 -0.541124
O4    O     O_R   0.108610 0.575480 0.551740 -0.541122
O5    O     O_R   0.564110 0.924510 0.685150 -0.610691
O6    O     O_R   0.564110 0.075490 0.685150 -0.610688
O7    O     O_R   0.064110 0.424510 0.685150 -0.610691
O8    O     O_R   0.064110 0.575490 0.685150 -0.610691
O9    O     O_R   0.435880 0.075470 0.314850 -0.580869
O10   O     O_R   0.435880 0.924530 0.314850 -0.580866
O11   O     O_R   0.935880 0.575470 0.314850 -0.580869
O12   O     O_R   0.935880 0.424530 0.314850 -0.580865
O13   O     O_R   0.391380 0.075460 0.448260 -0.595525
O14   O     O_R   0.391380 0.924540 0.448260 -0.595524
O15   O     O_R   0.891380 0.575460 0.448260 -0.595526
O16   O     O_R   0.891380 0.424540 0.448260 -0.595523
C89   C     C_1   0.785174 0.999999 0.363889 0.271624
N5    N     N_1   0.863476 0.999999 0.424205 -0.241327
C90   C     C_1   0.285174 0.499995 0.363889 0.271626
N6    N     N_1   0.363476 0.499993 0.424205 -0.241325
I1    I     I_    0.557418 0.276865 0.154763 -0.396798
I2    I     I_    0.557444 0.723169 0.154810 -0.396801
I3    I     I_    0.057434 0.776844 0.154790 -0.396804
I4    I     I_    0.057441 0.223162 0.154806 -0.396816
I5    I     I_    0.744248 0.162336 0.556872 -0.350412
I6    I     I_    0.744247 0.837664 0.556871 -0.350404
I7    I     I_    0.244258 0.662329 0.556887 -0.350408
I8    I     I_    0.244241 0.337659 0.556864 -0.350404

loop_
_geom_bond_atom_site_label_1
_geom_bond_atom_site_label_2
_ccdc_geom_bond_type
C26   H2    S    
C14   H18   S    
C83   C87   A    
C80   H28   S    
C25   H1    S    
Cu1   O1    S    
C14   C18   A    
C27   H3    S    
C3    O7    A    
C48   C56   A    
C35   N3    A    
C69   I5    S    
Cu3   O13   S    
C44   H12   S    
C28   C68   A    
C32   C72   A    
C15   C19   A    
C59   N1    A    
C18   C86   A    
C2    C29   S    
C9    C61   A    
C48   N4    A    
C78   H26   S    
C23   H23   S    
C5    C11   A    
Cu2   O11   S    
C77   H25   S    
C6    C12   A    
C12   C64   A    
C9    C13   A    
C41   O15   A    
C77   C83   A    
C6    C22   A    
C49   C57   A    
C41   O11   A    
C36   H10   S    
C25   C63   A    
C23   C67   A    
C29   C69   A    
C26   C64   A    
C56   H16   S    
C13   H17   S    
C27   C61   A    
C6    C84   A    
C30   C70   A    
C11   C15   A    
C22   C66   A    
C12   C16   A    
C44   C46   A    
C49   C51   A    
C79   H27   S    
C50   C52   A    
C89   N5    T    
C3    O3    A    
C30   C86   A    
Cu4   O8    S    
C29   C85   A    
C1    O5    A    
Cu2   N2    S    
C53   C55   A    
C57   H7    S    
C33   C59   A    
Cu1   O2    S    
C47   N3    A    
C34   C60   A    
C60   N2    A    
C10   C62   A    
C17   C85   A    
C61   I1    S    
C21   C65   A    
Cu3   O14   S    
Cu2   O4    S    
C52   C54   A    
C41   C68   S    
C46   C48   A    
C45   C47   A    
C54   C56   A    
C31   C87   A    
C40   O14   A    
C76   H32   S    
C15   H19   S    
C58   H8    S    
C72   C74   A    
C10   C14   A    
C60   H38   S    
C71   C73   A    
C53   H5    S    
C37   H13   S    
Cu1   O9    S    
C4    O4    A    
C2    O2    A    
C55   H15   S    
C51   C53   A    
C26   C66   A    
C38   H14   S    
C38   C44   A    
Cu2   Cu4   S    
Cu3   N3    S    
C45   C49   A    
C16   C20   A    
C4    O8    A    
C50   C58   A    
C25   C65   A    
Cu4   O7    S    
C43   C45   A    
Cu3   O5    S    
C21   H21   S    
C7    C81   A    
C39   O9    A    
C24   H24   S    
C73   H29   S    
C40   C65   S    
C40   O10   A    
Cu4   O16   S    
C42   C67   S    
C39   C66   S    
C75   H31   S    
C37   C43   A    
Cu1   Cu3   S    
C63   I3    S    
C64   I4    S    
C42   O12   A    
Cu2   O3    S    
C16   H20   S    
C47   C55   A    
C34   C90   S    
C35   C37   A    
C7    C9    A    
C59   H37   S    
C73   C77   A    
C71   I7    S    
C33   C89   S    
C74   H30   S    
C34   C52   A    
C57   N1    A    
Cu4   N4    S    
C76   C80   A    
C35   H9    S    
C36   N4    A    
C5    C83   A    
C20   H36   S    
C33   C51   A    
Cu1   O10   S    
C46   C50   A    
C22   H22   S    
C79   C81   A    
Cu1   N1    S    
C13   C17   A    
C28   H4    S    
C2    O6    A    
C36   C38   A    
C19   C87   A    
Cu2   O12   S    
C82   C86   A    
C18   H34   S    
C70   C76   A    
C17   H33   S    
C84   C88   A    
C7    C23   A    
C20   C88   A    
C19   H35   S    
C1    C30   S    
C8    C24   A    
C80   C82   A    
C62   I2    S    
C69   C75   A    
C70   I6    S    
C3    C32   S    
C42   O16   A    
C43   H11   S    
C4    C31   S    
C27   C67   A    
C24   C68   A    
C58   N2    A    
Cu3   O6    S    
C78   C84   A    
C8    C82   A    
C5    C21   A    
C8    C10   A    
C74   C78   A    
C39   O13   A    
Cu4   O15   S    
C72   I8    S    
C54   H6    S    
C90   N6    T    
C1    O1    A    
C11   C63   A    
C75   C79   A    
C81   C85   A    
C28   C62   A    
C31   C71   A    
C32   C88   A    
