data_mof_unit_67498.cif
_audit_creation_date              2012-12-10T16:46:06-0500
_audit_creation_method            fapswitch 2.2
_symmetry_space_group_name_H-M    P1
_symmetry_Int_Tables_number       1
_space_group_crystal_system       triclinic
_cell_length_a                    10.73775
_cell_length_b                    8.758216
_cell_length_c                    7.477262
_cell_angle_alpha                 102.844528
_cell_angle_beta                  94.520484
_cell_angle_gamma                 93.017999
_cell_volume                      681.675923569

loop_
_atom_site_label
_atom_site_type_symbol
_atom_type_description
_atom_site_fract_x
_atom_site_fract_y
_atom_site_fract_z
_atom_type_partial_charge
C1    C     C_R   0.493398 0.200591 0.454327 0.800703
C2    C     C_3   0.876274 0.487840 0.493752 -0.125125
C3    C     C_3   0.937062 0.656420 0.586787 0.199428
C4    C     C_3   0.915863 0.433018 0.292477 -0.196308
C5    C     C_2   0.474206 0.034354 0.432468 -0.204118
C6    C     C_2   0.521839 0.965487 0.565825 -0.348852
C7    C     C_R   0.259865 0.494351 0.500990 0.828018
C8    C     C_R   0.504547 0.799394 0.545441 0.876202
C9    C     C_R   0.738995 0.492312 0.497055 0.880864
C10   C     C_3   0.067640 0.354135 0.584920 -0.233750
C11   C     C_3   0.926628 0.372545 0.609084 -0.482023
C12   C     C_3   0.081859 0.652071 0.615496 0.198050
C13   C     C_3   0.059214 0.467489 0.301132 -0.376256
C14   C     C_3   0.121381 0.492465 0.503223 -0.120922
Cu1   Cu    Cu3+1 0.514070 0.517380 0.684380 1.087981
Cu2   Cu    Cu3+1 0.485930 0.482620 0.315620 1.112248
H1    H     H_    0.871511 0.503354 0.201482 0.209251
H2    H     H_    0.399398 0.381260 0.948985 0.198904
H3    H     H_    0.075159 0.242792 0.481257 0.225300
H4    H     H_    0.874001 0.255532 0.565456 0.245520
H5    H     H_    0.911653 0.418296 0.756621 0.216511
H6    H     H_    0.107647 0.660534 0.764081 0.156977
H7    H     H_    0.903168 0.695249 0.725589 0.144245
H8    H     H_    0.078504 0.575223 0.249092 0.267622
H9    H     H_    0.102583 0.372560 0.207759 0.239379
N1    N     N_2   0.464720 0.456420 0.038520 -0.134355
N2    N     N_2   0.535280 0.543580 0.961480 0.101688
O1    O     O_R   0.509140 0.286130 0.619770 -0.612118
O2    O     O_R   0.485380 0.256770 0.308360 -0.551920
O3    O     O_R   0.329570 0.514650 0.655700 -0.603604
O4    O     O_R   0.305810 0.485300 0.344290 -0.580380
O5    O     O_R   0.514620 0.743230 0.691640 -0.559528
O6    O     O_R   0.490860 0.713870 0.380230 -0.516231
O7    O     O_R   0.694190 0.514700 0.655710 -0.579448
O8    O     O_R   0.670430 0.485350 0.344300 -0.503822
C15   C     C_2   0.136178 0.333280 0.761721 0.887476
O9    O     O_2   0.145889 0.439169 0.900453 -0.642534
O10   O     O_R   0.186541 0.190104 0.766136 -0.688774
H10   H     H_    0.225038 0.186459 0.893207 0.330986
Cl1   Cl    Cl    0.167057 0.819759 0.570640 -0.506634
Cl2   Cl    Cl    0.886580 0.798601 0.460247 -0.461328
C16   C     C_2   0.385580 0.953447 0.272232 0.932404
O11   O     O_2   0.273386 0.968795 0.277471 -0.528648
O12   O     O_R   0.430982 0.871387 0.111304 -0.683286
H11   H     H_    0.361518 0.824869 0.011033 0.342667
C17   C     C_2   0.602510 0.050965 0.732720 0.964469
O13   O     O_2   0.714659 0.074938 0.724455 -0.514187
O14   O     O_R   0.550996 0.103799 0.899196 -0.686316
H12   H     H_    0.457006 0.079708 0.888428 0.308787
Cl3   Cl    Cl    0.653942 0.671598 0.089364 -0.378867
C18   C     C_2   0.874138 0.260070 0.205144 0.898074
O15   O     O_2   0.948959 0.167295 0.139941 -0.527794
O16   O     O_R   0.749053 0.205973 0.200917 -0.700224
H13   H     H_    0.734505 0.088502 0.149635 0.393600

loop_
_geom_bond_atom_site_label_1
_geom_bond_atom_site_label_2
_ccdc_geom_bond_type
C12   Cl1   S    
C1    O1    A    
C2    C4    S    
C5    C16   S    
Cu2   O6    S    
Cu1   O7    S    
C3    H7    S    
H2    N1    S    
N2    Cl3   S    
C10   H3    S    
C15   O10   S    
C2    C3    S    
Cu1   O1    S    
Cu1   O5    S    
C7    O3    A    
O16   H13   S    
Cu2   O4    S    
C13   H9    S    
N1    N2    D    
C9    O7    A    
C16   O12   S    
C1    C5    S    
C4    H1    S    
C1    O2    A    
C15   O9    D    
C12   C14   S    
C8    O6    A    
Cu2   O8    S    
Cu2   N1    S    
C5    C6    D    
C17   O14   S    
C11   H4    S    
C7    O4    A    
C10   C11   S    
C2    C11   S    
C4    C18   S    
C18   O15   D    
C8    O5    A    
C12   H6    S    
O10   H10   S    
O12   H11   S    
Cu1   O3    S    
C16   O11   D    
C4    C13   S    
C9    O8    A    
C17   O13   D    
O14   H12   S    
C6    C8    S    
C3    C12   S    
C6    C17   S    
C18   O16   S    
Cu2   O2    S    
C13   C14   S    
C2    C9    S    
Cu1   N2    S    
C11   H5    S    
C7    C14   S    
C3    Cl2   S    
Cu1   Cu2   S    
C13   H8    S    
C10   C14   S    
C10   C15   S    
