data_mof_unit_14107.cif
_audit_creation_date              2013-03-05T15:46:12-0500
_audit_creation_method            fapswitch 2.2
_symmetry_space_group_name_H-M    P1
_symmetry_Int_Tables_number       1
_space_group_crystal_system       triclinic
_cell_length_a                    10.559748
_cell_length_b                    10.678845
_cell_length_c                    17.120956
_cell_angle_alpha                 80.185524
_cell_angle_beta                  89.821012
_cell_angle_gamma                 119.223557
_cell_volume                      1651.8791136

loop_
_atom_site_label
_atom_site_type_symbol
_atom_site_description
_atom_site_fract_x
_atom_site_fract_y
_atom_site_fract_z
_atom_type_partial_charge
O1    O     O_R   0.521780 0.757110 0.108900 -0.488750
O2    O     O_R   0.275160 0.783810 0.101120 -0.493141
C1    C     C_R   0.277814 0.888072 0.132813 0.539051
O3    O     O_R   0.237900 0.972600 0.090980 -0.510026
O4    O     O_R   0.511190 0.220540 0.061620 -0.475954
C2    C     C_R   0.634065 0.272510 0.089404 0.614525
O5    O     O_R   0.736920 0.257720 0.063840 -0.520393
O6    O     O_R   0.710450 0.984050 0.081720 -0.516136
C3    C     C_R   0.640480 0.858170 0.125352 0.567639
O7    O     O_R   0.524090 0.765520 0.933110 -0.457979
O8    O     O_R   0.277300 0.791600 0.938160 -0.472244
C4    C     C_R   0.227264 0.866087 0.897828 0.611707
O9    O     O_R   0.240210 0.981010 0.915190 -0.479453
O10   O     O_R   0.513330 0.228330 0.898660 -0.418005
C5    C     C_R   0.637581 0.284948 0.860962 0.628403
O11   O     O_R   0.739230 0.266130 0.888050 -0.511586
O12   O     O_R   0.712580 0.991850 0.918770 -0.524359
C6    C     C_R   0.648123 0.866533 0.899796 0.587917
Cr1   Cr    Cr6+3 0.402240 0.783890 0.019450 1.071516
Cr2   Cr    Cr6+3 0.382360 0.097900 0.991800 1.102101
Cr3   Cr    Cr6+3 0.715380 0.118170 0.988700 1.029100
O13   O     O_3   0.499990 0.999980 0.999980 -0.315493
C7    C     C_R   0.568993 0.370667 0.193985 0.242319
C8    C     C_R   0.573034 0.387529 0.273021 -0.178046
H1    H     H_    0.533017 0.455564 0.290764 0.150700
C9    C     C_R   0.641386 0.329732 0.326415 0.001857
C10   C     C_R   0.699280 0.247338 0.302609 0.245582
C11   C     C_R   0.695350 0.231299 0.223839 -0.184180
H2    H     H_    0.735171 0.163565 0.205475 0.137068
C12   C     C_R   0.638840 0.299882 0.169004 0.006528
C13   C     C_1   0.668772 0.848304 0.205422 -0.043812
C14   C     C_1   0.680455 0.839222 0.274800 -0.042095
C15   C     C_1   0.226420 0.853333 0.215456 -0.045026
C16   C     C_1   0.178028 0.834289 0.282944 -0.041178
C17   C     C_1   0.644668 0.324174 0.778149 0.029046
C18   C     C_1   0.651860 0.345777 0.707585 -0.006941
C19   C     C_R   0.630306 0.711788 0.804887 0.179593
C20   C     C_R   0.613631 0.699514 0.726054 -0.175509
H3    H     H_    0.563900 0.591051 0.712096 0.167724
C21   C     C_R   0.668820 0.824556 0.665225 -0.021701
C22   C     C_R   0.747098 0.965280 0.683315 0.178326
C23   C     C_R   0.759585 0.977355 0.762958 -0.180297
H4    H     H_    0.808807 0.085422 0.777362 0.165049
C24   C     C_R   0.693761 0.851693 0.823644 -0.026713
C25   C     C_R   0.243589 0.971015 0.756106 0.203456
C26   C     C_R   0.236012 0.955490 0.677717 -0.117664
H5    H     H_    0.274646 0.052180 0.631061 0.156610
C27   C     C_R   0.164088 0.816763 0.659856 -0.053869
C28   C     C_R   0.119097 0.691783 0.719590 -0.144417
H6    H     H_    0.059154 0.583774 0.705508 0.157467
C29   C     C_R   0.138886 0.705332 0.798984 0.215108
C30   C     C_R   0.195178 0.845195 0.817383 0.049926
O14   O     O_R   0.083770 0.911170 0.376030 -0.519970
O15   O     O_R   0.808770 0.880340 0.383890 -0.493762
C31   C     C_R   0.686569 0.810139 0.357221 0.583753
O16   O     O_R   0.584340 0.689460 0.394160 -0.514540
O17   O     O_R   0.614320 0.443940 0.423590 -0.526869
C32   C     C_R   0.682847 0.386901 0.398521 0.594304
O18   O     O_R   0.805020 0.410040 0.421340 -0.452751
O19   O     O_R   0.049240 0.685450 0.403290 -0.500283
C33   C     C_R   0.107848 0.812431 0.359796 0.549078
O20   O     O_R   0.077520 0.903010 0.551800 -0.515871
O21   O     O_R   0.802980 0.872780 0.546830 -0.455449
C34   C     C_R   0.677474 0.800473 0.585400 0.601195
O22   O     O_R   0.578090 0.681300 0.569920 -0.525982
O23   O     O_R   0.608530 0.436370 0.586530 -0.512401
C35   C     C_R   0.678718 0.382305 0.624500 0.568619
O24   O     O_R   0.798770 0.401880 0.597100 -0.446440
O25   O     O_R   0.043450 0.677890 0.566230 -0.503787
C36   C     C_R   0.101647 0.802317 0.585100 0.551116
Cr4   Cr    Cr6+3 0.936650 0.882420 0.465510 1.053084
Cr5   Cr    Cr6+3 0.605770 0.565620 0.493360 1.031605
Cr6   Cr    Cr6+3 0.921340 0.550490 0.496380 1.096017
O26   O     O_3   0.821250 0.666180 0.485090 -0.282070
O27   O     O_3   0.513506 0.437099 0.138725 -0.512194
C37   C     C_3   0.363028 0.377756 0.159761 -0.061392
H7    H     H_    0.344023 0.419671 0.211111 0.101025
H8    H     H_    0.303943 0.255758 0.172668 0.113836
H9    H     H_    0.316091 0.413315 0.108577 0.154711
O28   O     O_3   0.088314 0.583419 0.860222 -0.539852
C38   C     C_3   0.143658 0.492137 0.845438 -0.064371
H10   H     H_    0.135550 0.420605 0.902643 0.153745
H11   H     H_    0.260835 0.555663 0.821399 0.148742
H12   H     H_    0.077085 0.419637 0.804770 0.115016
O29   O     O_3   0.753094 0.178768 0.357923 -0.519636
C39   C     C_3   0.900472 0.226485 0.334320 -0.050833
H13   H     H_    0.965661 0.347503 0.313779 0.112298
H14   H     H_    0.909061 0.169925 0.287519 0.097586
H15   H     H_    0.949368 0.197207 0.386606 0.169268
N1    N     N_R   0.576567 0.581801 0.865667 0.081333
O30   O     O_R   0.458409 0.463016 0.858355 -0.390026
O31   O     O_R   0.646378 0.581108 0.928119 -0.297808
N2    N     N_R   0.810167 0.095707 0.622272 0.083426
O32   O     O_R   0.744727 0.102482 0.558700 -0.303405
O33   O     O_R   0.927788 0.212281 0.632871 -0.372392
O34   O     O_3   0.307465 0.110768 0.772234 -0.550531
C40   C     C_3   0.208282 0.163609 0.760576 -0.071923
H16   H     H_    0.101562 0.087595 0.796635 0.126361
H17   H     H_    0.191870 0.183987 0.696540 0.135800
H18   H     H_    0.254323 0.269672 0.780377 0.169270

loop_
_geom_bond_atom_site_label_1
_geom_bond_atom_site_label_2
_geom_bond_distance
_ccdc_geom_bond_type
C31   O16   1.259197 A    
N2    O32   1.301565 A    
Cr6   O26   1.968658 S    
C17   C18   1.185685 T    
C37   H9    1.109427 S    
C40   H18   1.108330 S    
C38   H10   1.109347 S    
O17   C32   1.263499 A    
C18   C35   1.398692 S    
O4    Cr2   1.949115 S    
O29   C39   1.412968 S    
O8    Cr1   1.939818 S    
C9    C10   1.399985 A    
O11   Cr3   2.051818 S    
C19   N1    1.437514 S    
C37   H8    1.114759 S    
C11   H2    1.082845 S    
C8    C9    1.408672 A    
C20   H3    1.084289 S    
C39   H14   1.110445 S    
C1    C15   1.433120 S    
C5    O11   1.260786 A    
C40   H16   1.114291 S    
O19   Cr6   1.934994 S    
O20   C36   1.267124 A    
O12   C6    1.272742 A    
C22   C23   1.392043 A    
C10   O29   1.388968 S    
C29   O28   1.389842 S    
C40   H17   1.111785 S    
C26   H5    1.084490 S    
O14   C33   1.270804 A    
O23   Cr5   1.933757 S    
O15   Cr4   1.941614 S    
O6    C3    1.263080 A    
O16   Cr5   2.052703 S    
C7    C8    1.393275 A    
O25   Cr6   1.948113 S    
O18   Cr6   2.068042 S    
C14   C31   1.400947 S    
O23   C35   1.264188 A    
N2    O33   1.301532 A    
Cr3   O13   1.978531 S    
C23   C24   1.404569 A    
C5    C17   1.399142 S    
C38   H11   1.114744 S    
C15   C16   1.205127 T    
C26   C27   1.386454 A    
O1    Cr1   2.058125 S    
C29   C30   1.406412 A    
C7    C12   1.396764 A    
O10   Cr2   1.934869 S    
Cr1   O13   1.977719 S    
O1    C3    1.264961 A    
C37   H7    1.110988 S    
Cr5   O26   1.977620 S    
C7    O27   1.386444 S    
C39   H13   1.114704 S    
C25   C30   1.418702 A    
C28   C29   1.397008 A    
C32   O18   1.266052 A    
O5    Cr3   2.062029 S    
C16   C33   1.433604 S    
O12   Cr3   1.940586 S    
C35   O24   1.254981 A    
O19   C33   1.268759 A    
O27   C37   1.411245 S    
C19   C20   1.381714 A    
C6    C24   1.448563 S    
N1    O31   1.301659 A    
C13   C14   1.186945 T    
O7    Cr1   2.052482 S    
O34   C40   1.412510 S    
O6    Cr3   1.933762 S    
C8    H1    1.083016 S    
C9    C32   1.444918 S    
O21   Cr4   1.933493 S    
C21   C22   1.408852 A    
C2    C12   1.437764 S    
Cr2   O13   1.968602 S    
C23   H4    1.083920 S    
C1    O3    1.287790 A    
O14   Cr4   2.052756 S    
C38   H12   1.110767 S    
O15   C31   1.269424 A    
C27   C28   1.401924 A    
O9    Cr2   2.067037 S    
O2    Cr1   1.934604 S    
C27   C36   1.438739 S    
O28   C38   1.412539 S    
C39   H15   1.109419 S    
Cr4   O26   1.978788 S    
O8    C4    1.270481 A    
C2    O5    1.258669 A    
O22   Cr5   2.057139 S    
C4    C30   1.447530 S    
C21   C34   1.443710 S    
C22   N2    1.438535 S    
C34   O22   1.266421 A    
C19   C24   1.404151 A    
C11   C12   1.403455 A    
O2    C1    1.307842 A    
O24   Cr6   2.053004 S    
C20   C21   1.403413 A    
N1    O30   1.300475 A    
O4    C2    1.268303 A    
O7    C6    1.269019 A    
O20   Cr4   2.061280 S    
O17   Cr5   1.940757 S    
O25   C36   1.264053 A    
C3    C13   1.401331 S    
O21   C34   1.268941 A    
O3    Cr2   2.053529 S    
C25   C26   1.377928 A    
C4    O9    1.254585 A    
C28   H6    1.082603 S    
C10   C11   1.386367 A    
O10   C5    1.261233 A    
C25   O34   1.384632 S    
