data_mof_unit_27399.cif
_audit_creation_date              2012-12-10T18:43:03-0500
_audit_creation_method            fapswitch 2.2
_symmetry_space_group_name_H-M    P1
_symmetry_Int_Tables_number       1
_space_group_crystal_system       triclinic
_cell_length_a                    18.136595
_cell_length_b                    18.165252
_cell_length_c                    18.189626
_cell_angle_alpha                 120.24357
_cell_angle_beta                  90.008115
_cell_angle_gamma                 60.223279
_cell_volume                      4236.39332174

loop_
_atom_site_label
_atom_site_type_symbol
_atom_type_description
_atom_site_fract_x
_atom_site_fract_y
_atom_site_fract_z
_atom_type_partial_charge
C1    C     C_R   0.891150 0.217447 0.608478 0.568185
C2    C     C_3   0.552719 0.896100 0.947959 0.061053
C3    C     C_3   0.413743 0.032915 0.016149 0.196138
C4    C     C_3   0.586257 0.967085 0.983851 0.196138
C5    C     C_3   0.042258 0.405864 0.483211 0.075522
C6    C     C_3   0.957742 0.594135 0.516788 0.075523
C7    C     C_3   0.077349 0.474776 0.517042 0.074626
C8    C     C_3   0.922650 0.525223 0.482958 0.074624
C9    C     C_3   0.052224 0.498998 0.447142 0.071145
C10   C     C_3   0.947776 0.501001 0.552858 0.071149
C11   C     C_3   0.016647 0.429985 0.413711 0.087261
C12   C     C_R   0.108850 0.782553 0.391521 0.568186
C13   C     C_3   0.983353 0.570014 0.586289 0.087267
C14   C     C_3   0.983256 0.032539 0.446697 0.052862
C15   C     C_3   0.016744 0.967461 0.553303 0.052861
C16   C     C_R   0.608919 0.782634 0.891279 0.570434
C17   C     C_R   0.391081 0.217366 0.108721 0.570427
C18   C     C_3   0.957694 0.964107 0.448079 0.219156
C19   C     C_3   0.042306 0.035892 0.551921 0.219157
C20   C     C_3   0.052223 0.895980 0.448952 0.066349
C21   C     C_3   0.947777 0.104020 0.551048 0.066350
C22   C     C_3   0.077207 0.965387 0.448072 0.059510
C23   C     C_3   0.517507 0.405287 0.447220 0.060644
C24   C     C_3   0.922793 0.034613 0.551928 0.059509
C25   C     C_3   0.922234 0.526581 0.042905 0.022023
C26   C     C_3   0.077767 0.473419 0.957095 0.022021
C27   C     C_3   0.958053 0.594688 0.077388 0.207487
C28   C     C_3   0.041948 0.405311 0.922611 0.207503
C29   C     C_3   0.052028 0.499094 0.051873 0.059698
C30   C     C_3   0.947972 0.500905 0.948126 0.059712
C31   C     C_3   0.015620 0.430995 0.017021 0.195267
C32   C     C_3   0.984381 0.569005 0.982978 0.195266
C33   C     C_3   0.551111 0.405721 0.922245 0.029561
C34   C     C_3   0.482493 0.594712 0.552780 0.060643
C35   C     C_3   0.448889 0.594279 0.077755 0.029560
C36   C     C_3   0.447536 0.474968 0.957725 0.208369
C37   C     C_3   0.552464 0.525032 0.042275 0.208370
C38   C     C_3   0.448722 0.499428 0.052072 0.060965
C39   C     C_3   0.551278 0.500572 0.947928 0.060965
C40   C     C_R   0.608544 0.500127 0.891224 0.578979
C41   C     C_R   0.391456 0.499873 0.108776 0.578978
C42   C     C_3   0.552900 0.429946 0.015997 0.198203
C43   C     C_3   0.447100 0.570053 0.984003 0.198203
C44   C     C_R   0.891211 0.500299 0.608893 0.538298
C45   C     C_3   0.483436 0.964763 0.922325 0.027550
C46   C     C_R   0.108789 0.499701 0.391107 0.538292
C47   C     C_R   0.891316 0.500220 0.891298 0.577916
C48   C     C_R   0.108684 0.499780 0.108701 0.577900
C49   C     C_R   0.608899 0.499943 0.608519 0.561078
C50   C     C_R   0.391101 0.500057 0.391481 0.561078
C51   C     C_3   0.586091 0.431310 0.446812 0.054456
C52   C     C_3   0.413908 0.568690 0.553188 0.054453
C53   C     C_3   0.516200 0.526768 0.448937 0.220449
C54   C     C_3   0.483800 0.473232 0.551063 0.220446
C55   C     C_3   0.447154 0.500629 0.448832 0.067572
C56   C     C_3   0.516565 0.035236 0.077675 0.027548
C57   C     C_3   0.552846 0.499371 0.551169 0.067573
C58   C     C_3   0.517340 0.034792 0.957628 0.209161
C59   C     C_3   0.482661 0.965208 0.042372 0.209165
C60   C     C_3   0.447281 0.103900 0.052041 0.061047
H1    H     H_    0.578664 0.568074 0.411482 0.339169
H2    H     H_    0.166115 0.884345 0.324631 0.242410
H3    H     H_    0.842007 0.007799 0.595639 0.270184
H4    H     H_    0.833886 0.115655 0.675369 0.242411
H5    H     H_    0.856944 0.737443 0.154592 0.358098
H6    H     H_    0.143056 0.262556 0.845407 0.358101
H7    H     H_    0.840396 0.565863 0.151010 0.268971
H8    H     H_    0.832047 0.493763 0.051714 0.258215
H9    H     H_    0.159579 0.434205 0.849016 0.268971
H10   H     H_    0.167979 0.506213 0.948314 0.258217
H11   H     H_    0.001444 0.327009 0.001977 0.341649
H12   H     H_    0.421331 0.431933 0.588523 0.339168
H13   H     H_    0.998562 0.672985 0.998018 0.341651
H14   H     H_    0.406341 0.438823 0.856130 0.359896
H15   H     H_    0.593659 0.561178 0.143870 0.359895
H16   H     H_    0.593562 0.254840 0.840526 0.276648
H17   H     H_    0.673784 0.273981 0.832359 0.237036
H18   H     H_    0.406436 0.745160 0.159473 0.276647
H19   H     H_    0.326216 0.726018 0.167641 0.237035
H20   H     H_    0.670467 0.327259 0.002349 0.336904
H21   H     H_    0.329533 0.672741 0.997652 0.336903
H22   H     H_    0.680013 0.323710 0.321660 0.250898
H23   H     H_    0.854898 0.987518 0.409245 0.341122
H24   H     H_    0.708228 0.396852 0.399448 0.244338
H25   H     H_    0.319987 0.676280 0.678339 0.250900
H26   H     H_    0.291770 0.603146 0.600544 0.244336
H27   H     H_    0.588257 0.253762 0.402222 0.266576
H28   H     H_    0.560342 0.274101 0.323085 0.243690
H29   H     H_    0.411742 0.746239 0.597780 0.266576
H30   H     H_    0.439659 0.725898 0.676915 0.243695
H31   H     H_    0.582928 0.009887 0.855868 0.352227
H32   H     H_    0.417072 0.990113 0.144132 0.352227
H33   H     H_    0.414231 0.990386 0.840654 0.272881
H34   H     H_    0.145102 0.012482 0.590755 0.341122
H35   H     H_    0.441450 0.883216 0.832632 0.240523
H36   H     H_    0.585786 0.009615 0.159336 0.272880
H37   H     H_    0.558529 0.116807 0.167379 0.240520
H38   H     H_    0.324414 0.004127 0.002772 0.341946
H39   H     H_    0.675586 0.995873 0.997235 0.341946
H40   H     H_    0.158061 0.438300 0.587497 0.252649
H41   H     H_    0.166439 0.509430 0.559393 0.246484
H42   H     H_    0.841937 0.561696 0.412502 0.252650
H43   H     H_    0.833562 0.490566 0.440608 0.246485
H44   H     H_    0.151963 0.256641 0.417727 0.249967
H45   H     H_    0.998027 0.000693 0.321440 0.248224
H46   H     H_    0.097324 0.310917 0.524290 0.245764
H47   H     H_    0.848027 0.743350 0.582254 0.249974
H48   H     H_    0.902694 0.689078 0.475703 0.245759
H49   H     H_    0.001497 0.319630 0.319515 0.247923
H50   H     H_    0.103067 0.295009 0.291014 0.261722
H51   H     H_    0.998498 0.680374 0.680484 0.247926
H52   H     H_    0.896932 0.704989 0.708986 0.261728
H53   H     H_    0.896688 0.106162 0.398440 0.252477
H54   H     H_    0.001973 0.999307 0.678560 0.248224
H55   H     H_    0.103313 0.893838 0.601560 0.252477
H56   H     H_    0.157993 0.992201 0.404360 0.270184
N1    N     N_3   0.965817 0.067258 0.387944 -0.579253
N2    N     N_3   0.320144 0.644258 0.611818 -0.589857
N3    N     N_3   0.535805 0.302179 0.390082 -0.600469
N4    N     N_3   0.464194 0.697821 0.609918 -0.600469
N5    N     N_3   0.466243 0.925837 0.836987 -0.597888
N6    N     N_3   0.533758 0.074163 0.163013 -0.597887
N7    N     N_3   0.162186 0.446329 0.534949 -0.613698
N8    N     N_3   0.837814 0.553667 0.465051 -0.613701
N9    N     N_3   0.087935 0.303001 0.464698 -0.594189
N10   N     N_3   0.912063 0.696998 0.535301 -0.594193
N11   N     N_3   0.033992 0.353756 0.319751 -0.568574
N12   N     N_3   0.034184 0.932742 0.612056 -0.579253
N13   N     N_3   0.966007 0.646244 0.680249 -0.568573
N14   N     N_3   0.162017 0.927299 0.391888 -0.597607
N15   N     N_3   0.837983 0.072701 0.608111 -0.597608
N16   N     N_3   0.836800 0.556607 0.089869 -0.578227
N17   N     N_3   0.163200 0.443394 0.910129 -0.578226
N18   N     N_3   0.606471 0.303129 0.836847 -0.588643
N19   N     N_3   0.393529 0.696872 0.163153 -0.588643
N20   N     N_3   0.679856 0.355741 0.388182 -0.589856
O1    O     O_3   0.750010 0.499980 0.749990 -0.494033
O2    O     O_R   0.305750 0.265450 0.132730 -0.494586
O3    O     O_R   0.867280 0.265410 0.571220 -0.525281
O4    O     O_R   0.132720 0.734590 0.428780 -0.525282
O5    O     O_R   0.571230 0.734580 0.867270 -0.531347
O6    O     O_R   0.428770 0.265420 0.132730 -0.531353
O7    O     O_R   0.694200 0.438470 0.867270 -0.541539
O8    O     O_R   0.305800 0.561530 0.132730 -0.541544
O9    O     O_R   0.867340 0.561470 0.694210 -0.523997
O10   O     O_R   0.132660 0.438530 0.305790 -0.523994
O11   O     O_R   0.867310 0.438430 0.867270 -0.523220
O12   O     O_3   0.249990 0.500020 0.250010 -0.494030
O13   O     O_R   0.132690 0.561570 0.132730 -0.523236
O14   O     O_R   0.694200 0.438520 0.571220 -0.536376
O15   O     O_R   0.305800 0.561480 0.428780 -0.536379
O16   O     O_R   0.867340 0.561440 0.867270 -0.488805
O17   O     O_R   0.132660 0.438560 0.132730 -0.488799
O18   O     O_R   0.571190 0.561530 0.694210 -0.522617
O19   O     O_R   0.428810 0.438470 0.305790 -0.522617
O20   O     O_3   0.532287 0.554853 0.395133 -0.662425
O21   O     O_3   0.467713 0.445146 0.604867 -0.662424
O22   O     O_3   0.914218 0.925284 0.393381 -0.648551
O23   O     O_R   0.571190 0.561490 0.867270 -0.481948
O24   O     O_3   0.085783 0.074716 0.606618 -0.648550
O25   O     O_3   0.915011 0.693354 0.158908 -0.645537
O26   O     O_3   0.084989 0.306646 0.841091 -0.645526
O27   O     O_3   0.032277 0.358933 0.035117 -0.642099
O28   O     O_3   0.967724 0.641066 0.964882 -0.642102
O29   O     O_3   0.392176 0.448726 0.914355 -0.662439
O30   O     O_3   0.607824 0.551274 0.085645 -0.662430
O31   O     O_3   0.607855 0.356790 0.033027 -0.645163
O32   O     O_3   0.392145 0.643210 0.966973 -0.645163
O33   O     O_3   0.534544 0.072581 0.914148 -0.655409
O34   O     O_R   0.428810 0.438510 0.132730 -0.481947
O35   O     O_3   0.465456 0.927419 0.085853 -0.655406
O36   O     O_3   0.323335 0.067967 0.033377 -0.648324
O37   O     O_3   0.676665 0.932033 0.966624 -0.648324
O38   O     O_R   0.867310 0.438490 0.571220 -0.531221
O39   O     O_R   0.132690 0.561510 0.428780 -0.531225
O40   O     O_R   0.867280 0.265380 0.694210 -0.521531
O41   O     O_R   0.132720 0.734620 0.305790 -0.521529
O42   O     O_R   0.694250 0.734550 0.867270 -0.494588
Zn1   Zn    Zn3+2 0.618190 0.587870 0.793920 1.011810
Zn2   Zn    Zn3+2 0.381810 0.412130 0.206080 1.011806
Zn3   Zn    Zn3+2 0.793940 0.412090 0.793920 0.994899
Zn4   Zn    Zn3+2 0.206060 0.587910 0.206080 0.994888
Zn5   Zn    Zn3+2 0.793970 0.587840 0.793920 1.025382
Zn6   Zn    Zn3+2 0.206030 0.412160 0.206080 1.025381
Zn7   Zn    Zn3+2 0.793940 0.412130 0.618200 0.974257
Zn8   Zn    Zn3+2 0.206060 0.587870 0.381800 0.974253

loop_
_geom_bond_atom_site_label_1
_geom_bond_atom_site_label_2
_ccdc_geom_bond_type
C25   C31   S    
O15   Zn8   S    
C48   O17   A    
C1    O40   A    
C1    C21   S    
C26   C29   S    
C27   C29   S    
C14   C18   S    
C40   O23   A    
C2    C4    S    
H7    N16   S    
O14   Zn7   S    
C28   O26   S    
O18   Zn1   S    
C43   O32   S    
O19   Zn2   S    
C26   C32   S    
H46   N9    S    
H41   N7    S    
O17   Zn6   S    
H11   O27   S    
C49   O14   A    
C18   C24   S    
C19   O24   S    
O7    Zn3   S    
C14   C21   S    
C35   C38   S    
C35   C37   S    
C44   O38   A    
C38   C42   S    
H13   O28   S    
O38   Zn7   S    
C23   N3    S    
H42   N8    S    
C3    O36   S    
O1    Zn3   S    
H32   O35   S    
O12   Zn8   S    
O41   Zn4   S    
C25   C30   S    
C33   C36   S    
C49   C57   S    
H6    O26   S    
C37   C42   S    
H8    N16   S    
H2    N14   S    
C15   C19   S    
H5    O25   S    
C50   O15   A    
H49   N11   S    
O6    Zn2   S    
H44   N9    S    
C16   O42   A    
O1    Zn1   S    
H10   N17   S    
H9    N17   S    
C12   O4    A    
C17   O2    A    
C51   C57   S    
H3    N15   S    
H52   N13   S    
O2    Zn6   S    
H18   N19   S    
H20   O31   S    
O42   Zn5   S    
C1    O3    A    
C52   C55   S    
H50   N11   S    
H38   O36   S    
C3    C60   S    
H35   N5    S    
C12   O41   A    
C9    C46   S    
O12   Zn2   S    
C48   O13   A    
C22   N14   S    
H45   N1    S    
O40   Zn3   S    
C7    N7    S    
C6    C9    S    
C59   O35   S    
H43   N8    S    
C33   N18   S    
C52   C54   S    
O1    Zn7   S    
C53   C55   S    
C2    C45   S    
C34   N4    S    
C15   C20   S    
C37   C39   S    
C31   O27   S    
C45   C58   S    
H31   O33   S    
C29   C48   S    
C10   C44   S    
O39   Zn8   S    
C30   C47   S    
C19   C22   S    
C6    N10   S    
C38   C41   S    
H29   N4    S    
C35   N19   S    
C39   C40   S    
C5    C7    S    
H16   N18   S    
C2    C59   S    
C8    N8    S    
C39   C43   S    
C45   N5    S    
C3    C45   S    
H55   N12   S    
C56   C60   S    
O34   Zn2   S    
C17   O6    A    
C51   C53   S    
C56   N6    S    
C11   N11   S    
H27   N3    S    
H37   N6    S    
C18   O22   S    
C34   C57   S    
H54   N12   S    
C51   N20   S    
C49   O18   A    
C23   C51   S    
H39   O37   S    
H4    N15   S    
C50   O19   A    
O12   Zn6   S    
C14   N1    S    
C12   C20   S    
C44   O9    A    
H26   N2    S    
C33   C39   S    
C58   O33   S    
H28   N3    S    
C23   C55   S    
C9    C11   S    
C41   O8    A    
H53   N1    S    
C34   C53   S    
C8    C10   S    
C15   C24   S    
C20   C22   S    
C15   N12   S    
O13   Zn4   S    
C21   C24   S    
H17   N18   S    
C33   C42   S    
C5    N9    S    
H1    O20   S    
C35   C43   S    
C42   O31   S    
C23   C54   S    
H51   N13   S    
O16   Zn5   S    
C7    C9    S    
C3    C59   S    
H33   N5    S    
H34   O24   S    
C19   C21   S    
C27   C32   S    
O5    Zn1   S    
C34   C52   S    
C28   C31   S    
H47   N10   S    
O23   Zn1   S    
C10   C13   S    
C6    C8    S    
O8    Zn4   S    
C5    C11   S    
C37   O30   S    
O1    Zn5   S    
O10   Zn6   S    
C2    C16   S    
C25   C27   S    
C54   O21   S    
H19   N19   S    
C41   O34   A    
O9    Zn5   S    
C26   C28   S    
C50   C55   S    
C56   C59   S    
H36   N6    S    
C4    O37   S    
H40   N7    S    
O4    Zn8   S    
C14   C22   S    
C28   C30   S    
C16   O5    A    
C5    C10   S    
C29   C31   S    
C26   N17   S    
C27   O25   S    
C6    C13   S    
C30   C32   S    
C24   N15   S    
O11   Zn3   S    
C46   O10   A    
H23   O22   S    
C8    C11   S    
C32   O28   S    
C36   C38   S    
C36   O29   S    
H21   O32   S    
H15   O30   S    
C18   C20   S    
H22   N20   S    
H25   N2    S    
H12   O21   S    
C17   C60   S    
C7    C13   S    
H56   N14   S    
C47   O16   A    
C53   O20   S    
O12   Zn4   S    
C47   O11   A    
C40   O7    A    
C4    C58   S    
C13   N13   S    
C46   O39   A    
C36   C43   S    
H48   N10   S    
O3    Zn7   S    
C25   N16   S    
C58   C60   S    
H14   O29   S    
C4    C56   S    
H30   N4    S    
H24   N20   S    
C54   C57   S    
C52   N2    S    
