data_mof_unit_6990.cif
_audit_creation_date              2012-12-10T16:43:24-0500
_audit_creation_method            fapswitch 2.2
_symmetry_space_group_name_H-M    P1
_symmetry_Int_Tables_number       1
_space_group_crystal_system       triclinic
_cell_length_a                    10.742166
_cell_length_b                    8.681469
_cell_length_c                    7.470052
_cell_angle_alpha                 103.041394
_cell_angle_beta                  94.46585
_cell_angle_gamma                 92.615092
_cell_volume                      675.177898368

loop_
_atom_site_label
_atom_site_type_symbol
_atom_type_description
_atom_site_fract_x
_atom_site_fract_y
_atom_site_fract_z
_atom_type_partial_charge
C1    C     C_R   0.496136 0.199746 0.453205 0.879365
C2    C     C_R   0.077267 0.644210 0.619270 0.088667
C3    C     C_R   0.129680 0.514358 0.506466 -0.083531
C4    C     C_R   0.053944 0.393641 0.386454 -0.175592
C5    C     C_R   0.925614 0.395593 0.382167 -0.202217
C6    C     C_R   0.871405 0.518291 0.497931 -0.083522
C7    C     C_2   0.494230 0.031694 0.427064 -0.369772
C8    C     C_2   0.505445 0.968266 0.573009 -0.345930
C9    C     C_R   0.262940 0.504368 0.502515 0.779540
C10   C     C_R   0.503791 0.800250 0.546808 0.826861
C11   C     C_R   0.737375 0.506324 0.499082 0.761562
C12   C     C_R   0.152037 0.774168 0.731006 -0.160839
C13   C     C_R   0.097244 0.901757 0.837875 -0.115359
C14   C     C_R   0.967660 0.903740 0.833473 -0.139032
C15   C     C_R   0.892098 0.778137 0.722157 -0.177837
C16   C     C_R   0.945631 0.646249 0.614731 0.096316
Cu1   Cu    Cu3+1 0.513920 0.517380 0.684380 1.023313
Cu2   Cu    Cu3+1 0.486080 0.482620 0.315620 1.031904
H1    H     H_    0.094626 0.295797 0.297812 0.154535
H2    H     H_    0.598531 0.621849 0.051236 0.168952
H3    H     H_    0.252897 0.780339 0.734974 0.149673
H4    H     H_    0.155588 0.000416 0.922736 0.159729
H5    H     H_    0.925467 0.003954 0.914888 0.137320
H6    H     H_    0.791953 0.787326 0.718657 0.140700
H7    H     H_    0.868252 0.298563 0.291857 0.147859
H8    H     H_    0.483678 0.959849 0.286552 0.179319
H9    H     H_    0.515942 0.040081 0.713529 0.200186
N1    N     N_2   0.465100 0.456430 0.038520 0.189773
N2    N     N_2   0.534900 0.543570 0.961480 -0.146552
O1    O     O_R   0.509050 0.286130 0.619770 -0.519695
O2    O     O_R   0.485540 0.256780 0.308360 -0.573535
O3    O     O_R   0.331410 0.514680 0.655740 -0.525706
O4    O     O_R   0.307900 0.485330 0.344330 -0.557620
O5    O     O_R   0.514460 0.743220 0.691640 -0.610732
O6    O     O_R   0.490950 0.713870 0.380230 -0.601333
O7    O     O_R   0.692100 0.514670 0.655670 -0.591716
O8    O     O_R   0.668590 0.485320 0.344260 -0.608303
F1    F     F_    0.381314 0.354415 0.925033 -0.526751

loop_
_geom_bond_atom_site_label_1
_geom_bond_atom_site_label_2
_ccdc_geom_bond_type
C14   H5    S    
C10   O6    A    
C3    C9    S    
Cu1   O7    S    
C2    C16   A    
Cu2   O6    S    
N1    F1    S    
C2    C12   A    
Cu1   Cu2   S    
Cu2   N1    S    
C7    C8    D    
C10   O5    A    
C13   C14   A    
C9    O4    A    
Cu1   O1    S    
N1    N2    D    
C7    H8    S    
C5    H7    S    
C15   H6    S    
Cu2   O8    S    
C13   H4    S    
C2    C3    A    
H2    N2    S    
C5    C6    A    
Cu2   O4    S    
Cu1   O5    S    
C6    C16   A    
C3    C4    A    
C1    O2    A    
Cu1   N2    S    
C12   C13   A    
C8    C10   S    
C6    C11   S    
C11   O8    A    
Cu1   O3    S    
C14   C15   A    
C1    O1    A    
Cu2   O2    S    
C9    O3    A    
C8    H9    S    
C1    C7    S    
C4    H1    S    
C12   H3    S    
C15   C16   A    
C4    C5    A    
C11   O7    A    
