data_mof_unit_16445.cif
_audit_creation_date              2012-12-10T17:41:52-0500
_audit_creation_method            fapswitch 2.2
_symmetry_space_group_name_H-M    P1
_symmetry_Int_Tables_number       1
_space_group_crystal_system       triclinic
_cell_length_a                    13.779196
_cell_length_b                    13.843109
_cell_length_c                    15.025728
_cell_angle_alpha                 89.623945
_cell_angle_beta                  91.038539
_cell_angle_gamma                 83.834165
_cell_volume                      2848.95879984

loop_
_atom_site_label
_atom_site_type_symbol
_atom_type_description
_atom_site_fract_x
_atom_site_fract_y
_atom_site_fract_z
_atom_type_partial_charge
C1    C     C_R   0.499560 0.497239 0.328905 0.849221
C2    C     C_R   0.500699 0.500713 0.671027 0.832837
C3    C     C_R   0.506276 0.495028 0.953090 -0.041880
C4    C     C_R   0.505552 0.493569 0.046682 -0.043696
C5    C     C_R   0.465833 0.421194 0.904805 0.033811
C6    C     C_R   0.548797 0.565682 0.094882 0.035300
C7    C     C_R   0.595417 0.637617 0.956711 -0.294274
C8    C     C_R   0.429116 0.343055 0.043105 -0.287157
C9    C     C_R   0.594490 0.637280 0.049672 0.495858
C10   C     C_R   0.427682 0.344900 0.950126 0.494281
C11   C     C_R   0.784355 0.579131 0.468927 -0.011398
C12   C     C_R   0.215499 0.421008 0.530977 -0.039608
C13   C     C_R   0.803604 0.420996 0.533424 0.615184
C14   C     C_R   0.196947 0.579477 0.467314 0.604313
C15   C     C_R   0.906936 0.416150 0.526516 -0.206552
C16   C     C_R   0.093268 0.584184 0.472833 -0.228478
C17   C     C_R   0.948446 0.499821 0.499373 -0.093931
C18   C     C_R   0.051647 0.500531 0.500017 -0.082822
C19   C     C_R   0.886667 0.582566 0.471115 -0.121906
C20   C     C_R   0.113291 0.417743 0.528499 -0.113675
C21   C     C_R   0.969843 0.330260 0.546328 0.387346
C22   C     C_R   0.030250 0.669822 0.451846 0.378970
C23   C     C_R   0.516480 0.316857 0.500079 0.835524
C24   C     C_R   0.483499 0.683125 0.498461 0.811137
C25   C     C_R   0.071874 0.332892 0.552676 0.384333
C26   C     C_R   0.928132 0.667146 0.446044 0.400770
C27   C     C_1   0.472353 0.786630 0.497622 -0.152281
C28   C     C_1   0.527433 0.213360 0.499761 -0.142754
C29   C     C_2   0.457614 0.979199 0.496877 0.397334
C30   C     C_2   0.541751 0.020779 0.498690 0.404164
C31   C     C_1   0.535111 0.126174 0.499338 -0.047009
C32   C     C_1   0.464358 0.873810 0.497167 -0.053029
C33   C     C_R   0.465543 0.424289 0.812013 -0.315028
C34   C     C_R   0.546372 0.564395 0.187542 -0.291977
C35   C     C_R   0.502620 0.500484 0.767452 -0.175169
C36   C     C_R   0.499062 0.494888 0.232295 -0.161219
C37   C     C_R   0.539861 0.576245 0.814276 0.437483
C38   C     C_R   0.455341 0.422696 0.185435 0.404356
C39   C     C_R   0.547355 0.570395 0.907811 -0.044083
C40   C     C_R   0.462516 0.419421 0.091999 -0.038664
Cu1   Cu    Cu3+1 0.597420 0.500010 0.499990 0.979001
Cu2   Cu    Cu3+1 0.402580 0.499990 0.500010 0.954784
H1    H     H_    0.436419 0.367545 0.773606 0.198654
H2    H     H_    0.579642 0.618788 0.225727 0.196436
H3    H     H_    0.633807 0.691189 0.923148 0.187000
H4    H     H_    0.404305 0.280889 0.076269 0.186634
H5    H     H_    0.736822 0.640825 0.443880 0.197023
H6    H     H_    0.262934 0.359126 0.555775 0.199141
N1    N     N_R   0.743820 0.499960 0.499930 -0.242737
N2    N     N_R   0.256180 0.500040 0.500070 -0.238879
O1    O     O_R   0.582280 0.500030 0.370250 -0.586387
O2    O     O_R   0.417720 0.499970 0.629750 -0.593881
O3    O     O_R   0.417740 0.500020 0.370270 -0.580468
O4    O     O_R   0.582260 0.499980 0.629730 -0.574535
O5    O     O_R   0.593900 0.362160 0.500010 -0.539700
O6    O     O_R   0.406100 0.637840 0.499990 -0.538351
O7    O     O_R   0.429360 0.362150 0.500030 -0.597430
O8    O     O_R   0.570640 0.637850 0.499970 -0.572234
O9    O     O_3   0.630617 0.961005 0.500230 -0.589121
C41   C     C_3   0.712672 0.013805 0.498434 -0.275670
H7    H     H_    0.716392 0.059629 0.558696 0.171503
H8    H     H_    0.712507 0.058570 0.436653 0.157593
H9    H     H_    0.779582 0.961490 0.498507 0.210708
O10   O     O_3   0.368730 0.038916 0.495908 -0.591838
C42   C     C_3   0.286801 0.986302 0.488113 -0.283486
H10   H     H_    0.281693 0.938000 0.546872 0.163188
H11   H     H_    0.288400 0.944110 0.425290 0.161011
H12   H     H_    0.219911 0.038658 0.485844 0.208600
O11   O     O_3   0.569064 0.654356 0.767008 -0.613133
C43   C     C_3   0.501582 0.738483 0.777660 0.025492
H13   H     H_    0.533857 0.800130 0.746130 0.189369
H14   H     H_    0.490797 0.758110 0.848640 0.132033
C44   C     C_3   0.401934 0.729223 0.732704 -0.361761
H15   H     H_    0.412727 0.702801 0.664045 0.235451
H16   H     H_    0.362869 0.676020 0.769876 0.207945
C45   C     C_3   0.338403 0.826544 0.729630 -0.907207
H17   H     H_    0.324441 0.853546 0.798158 0.256926
H18   H     H_    0.267410 0.817458 0.696277 0.248970
H19   H     H_    0.374872 0.880982 0.691554 0.261286
O12   O     O_3   0.413117 0.351788 0.232279 -0.614380
C46   C     C_3   0.310046 0.369784 0.225562 0.041296
H20   H     H_    0.282731 0.337287 0.163927 0.134412
H21   H     H_    0.284070 0.448623 0.223877 0.120792
C47   C     C_3   0.265363 0.322592 0.304999 -0.278095
H22   H     H_    0.285765 0.242716 0.303671 0.228481
H23   H     H_    0.294949 0.350872 0.367578 0.254049
C48   C     C_3   0.154291 0.343398 0.303692 -0.945321
H24   H     H_    0.132428 0.422617 0.310255 0.246560
H25   H     H_    0.124070 0.304941 0.360186 0.267842
H26   H     H_    0.123054 0.317376 0.240713 0.253421
O13   O     O_3   0.644002 0.703159 0.096373 -0.583958
C49   C     C_3   0.586115 0.793552 0.096067 -0.351328
H27   H     H_    0.514170 0.787591 0.126949 0.158014
H28   H     H_    0.575790 0.824425 0.027566 0.162932
H29   H     H_    0.624217 0.845227 0.136457 0.198706
O14   O     O_3   0.394442 0.268593 0.903739 -0.575305
C50   C     C_3   0.291571 0.282655 0.899650 -0.364184
H30   H     H_    0.264837 0.352779 0.866195 0.157995
H31   H     H_    0.259919 0.279012 0.967054 0.159047
H32   H     H_    0.264988 0.223522 0.859529 0.191242
O15   O     O_3   0.763473 0.345990 0.575707 -0.572891
C51   C     C_3   0.750069 0.367466 0.667252 0.119697
H33   H     H_    0.676704 0.347785 0.684803 0.168912
H34   H     H_    0.752401 0.445765 0.683987 0.135291
C52   C     C_3   0.824850 0.305914 0.726204 -0.361515
H35   H     H_    0.826227 0.228110 0.707938 0.259402
H36   H     H_    0.898403 0.329541 0.716524 0.215104
C53   C     C_3   0.799862 0.317101 0.824461 -0.929334
H37   H     H_    0.798613 0.394326 0.844537 0.263928
H38   H     H_    0.855833 0.272666 0.865695 0.258951
H39   H     H_    0.727415 0.291955 0.837142 0.267354
O16   O     O_3   0.239019 0.655130 0.428451 -0.563176
C54   C     C_3   0.232692 0.646857 0.334835 0.107866
H40   H     H_    0.156508 0.666636 0.310308 0.145575
H41   H     H_    0.256096 0.571757 0.313372 0.123878
C55   C     C_3   0.298511 0.715330 0.291911 -0.298125
H42   H     H_    0.273954 0.791391 0.310917 0.220909
H43   H     H_    0.374892 0.697204 0.316425 0.210092
C56   C     C_3   0.295933 0.707296 0.190651 -0.957855
H44   H     H_    0.322171 0.632200 0.170139 0.254789
H45   H     H_    0.343993 0.758021 0.161413 0.254405
H46   H     H_    0.220439 0.726583 0.164345 0.259174
O17   O     O_3   0.932819 0.242599 0.560382 -0.557151
C57   C     C_3   0.926502 0.195724 0.477797 -0.237095
H47   H     H_    0.999695 0.179973 0.447711 0.162693
H48   H     H_    0.875635 0.239261 0.430770 0.154414
H49   H     H_    0.897061 0.125241 0.488936 0.166779
O18   O     O_3   0.067162 0.757103 0.435304 -0.558982
C58   C     C_3   0.075103 0.805873 0.516765 -0.231121
H50   H     H_    0.127224 0.763635 0.563624 0.153150
H51   H     H_    0.002606 0.821988 0.548077 0.166943
H52   H     H_    0.103863 0.876276 0.503518 0.165022
O19   O     O_3   0.131525 0.248892 0.574342 -0.566923
C59   C     C_3   0.138741 0.240686 0.667858 -0.305359
H53   H     H_    0.066978 0.230397 0.697176 0.178266
H54   H     H_    0.168729 0.304836 0.697923 0.135810
H55   H     H_    0.189905 0.175645 0.685349 0.196498
O20   O     O_3   0.868525 0.750799 0.423210 -0.572414
C60   C     C_3   0.860876 0.757003 0.329604 -0.280621
H56   H     H_    0.811176 0.822782 0.311176 0.195149
H57   H     H_    0.828900 0.693125 0.301175 0.153406
H58   H     H_    0.932884 0.764560 0.299459 0.179323

loop_
_geom_bond_atom_site_label_1
_geom_bond_atom_site_label_2
_ccdc_geom_bond_type
C2    C35   S    
C48   H24   S    
O15   C51   S    
C37   O11   S    
Cu1   Cu2   S    
C11   H5    S    
C24   C27   S    
C12   H6    S    
O18   C58   S    
C9    O13   S    
C6    C9    A    
C50   H30   S    
O17   C57   S    
C55   H42   S    
C14   O16   S    
C52   H36   S    
C11   C19   A    
C41   H9    S    
C7    H3    S    
C35   C37   A    
C47   H23   S    
Cu1   O8    S    
C58   H50   S    
C29   C32   S    
Cu2   O3    S    
C30   C31   S    
C60   H58   S    
C20   C25   A    
C53   H37   S    
C51   C52   S    
C41   H8    S    
C44   H15   S    
C19   C26   A    
C1    O3    A    
Cu1   O5    S    
Cu2   O6    S    
C4    C40   A    
C53   H38   S    
C42   H11   S    
C5    C33   A    
C47   C48   S    
C43   H13   S    
C25   O19   S    
C18   C20   A    
C58   H52   S    
C29   O10   S    
C3    C39   A    
O9    C41   S    
C30   O9    S    
C44   H16   S    
O11   C43   S    
C59   H55   S    
Cu2   O7    S    
Cu1   N1    S    
O16   C54   S    
C50   H31   S    
C46   H20   S    
C56   H45   S    
C52   C53   S    
C33   H1    S    
C34   H2    S    
C45   H17   S    
C4    C6    A    
C2    O4    A    
O13   C49   S    
C17   C19   A    
C59   H54   S    
C3    C5    A    
C49   H29   S    
C6    C34   A    
C41   H7    S    
C21   O17   S    
C29   C30   D    
C11   N1    A    
C22   O18   S    
C10   O14   S    
C56   H44   S    
C42   H12   S    
O14   C50   S    
C12   C20   A    
C43   C44   S    
C49   H28   S    
C17   C18   A    
C16   C18   A    
C23   C28   S    
C47   H22   S    
C51   H34   S    
C1    O1    A    
C2    O2    A    
Cu2   N2    S    
C57   H49   S    
C13   N1    A    
C24   O8    A    
C13   C15   A    
O19   C59   S    
C44   C45   S    
C14   C16   A    
C13   O15   S    
C3    C4    A    
C46   C47   S    
C57   H48   S    
C54   H40   S    
C56   H46   S    
C23   O7    A    
C21   C25   A    
C16   C22   A    
C50   H32   S    
C27   C32   T    
C28   C31   T    
C45   H18   S    
O12   C46   S    
C26   O20   S    
C46   H21   S    
C12   N2    A    
C60   H56   S    
C55   C56   S    
C23   O5    A    
C59   H53   S    
C24   O6    A    
C52   H35   S    
C53   H39   S    
O10   C42   S    
C54   C55   S    
C36   C38   A    
C5    C10   A    
C37   C39   A    
C38   C40   A    
C60   H57   S    
C14   N2    A    
C38   O12   S    
C49   H27   S    
C33   C35   A    
C55   H43   S    
C34   C36   A    
C51   H33   S    
C8    H4    S    
Cu1   O4    S    
O20   C60   S    
C7    C9    A    
C15   C21   A    
C45   H19   S    
C8    C10   A    
C42   H10   S    
C22   C26   A    
C48   H26   S    
C48   H25   S    
C7    C39   A    
C43   H14   S    
C8    C40   A    
C54   H41   S    
C15   C17   A    
Cu1   O1    S    
C1    C36   S    
Cu2   O2    S    
C57   H47   S    
C58   H51   S    
