data_mof_unit_58073.cif
_audit_creation_date              2012-12-11T15:30:36-0500
_audit_creation_method            fapswitch 2.2
_symmetry_space_group_name_H-M    P1
_symmetry_Int_Tables_number       1
_space_group_crystal_system       triclinic
_cell_length_a                    6.950375
_cell_length_b                    20.48057
_cell_length_c                    24.413755
_cell_angle_alpha                 89.703324
_cell_angle_beta                  90.639517
_cell_angle_gamma                 89.67226
_cell_volume                      3474.91937493

loop_
_atom_site_label
_atom_site_type_symbol
_atom_type_description
_atom_site_fract_x
_atom_site_fract_y
_atom_site_fract_z
_atom_type_partial_charge
O1    O     O_R   0.507310 0.423620 0.460450 -0.538081
O2    O     O_R   0.170760 0.556060 0.437190 -0.540227
O3    O     O_R   0.004040 0.576380 0.539550 -0.535201
C1    C     C_R   0.338781 0.576219 0.421272 0.731520
O4    O     O_R   0.177350 0.422870 0.454070 -0.540316
O5    O     O_R   0.010680 0.442240 0.556560 -0.536477
C2    C     C_R   0.345872 0.398976 0.443355 0.685445
O6    O     O_R   0.500670 0.557760 0.443440 -0.527453
O7    O     O_3   0.340380 0.506510 0.533610 -0.367193
V1    V     V_3+5 0.064130 0.498790 0.493770 1.439857
O8    O     O_R   0.681170 0.443940 0.562810 -0.539886
C3    C     C_R   0.850870 0.423911 0.578700 0.718521
O9    O     O_R   0.674570 0.577130 0.545930 -0.532180
C4    C     C_R   0.843518 0.601003 0.556597 0.735642
V2    V     V_3+5 0.564560 0.501210 0.506230 1.455501
O10   O     O_3   0.838170 0.493490 0.466390 -0.369624
C5    C     C_R   0.970802 0.838591 0.910889 -0.038817
C6    C     C_R   0.853907 0.662120 0.588081 -0.109275
C7    C     C_R   0.971023 0.720712 0.908084 -0.155671
C8    C     C_R   0.982167 0.778420 0.937763 -0.170703
C9    C     C_R   0.948551 0.840796 0.853560 -0.208892
C10   C     C_R   0.937627 0.782425 0.822071 0.088461
C11   C     C_R   0.948823 0.722127 0.850851 0.133475
C12   C     C_R   0.916655 0.781578 0.763377 0.060131
C13   C     C_R   0.905778 0.720625 0.734772 0.084060
C14   C     C_R   0.917228 0.662387 0.765947 -0.179264
C15   C     C_R   0.938306 0.663351 0.822537 -0.195553
C16   C     C_R   0.907076 0.839632 0.732366 -0.208948
C17   C     C_R   0.890702 0.838858 0.675716 -0.094681
C18   C     C_R   0.881902 0.780188 0.646463 0.000740
C19   C     C_R   0.885770 0.719881 0.675966 0.046844
C20   C     C_R   0.869010 0.780458 0.588200 0.411133
C21   C     C_R   0.854167 0.721411 0.560073 -0.229015
C22   C     C_R   0.870083 0.661134 0.645320 -0.212755
H1    H     H_    0.947009 0.617225 0.844462 0.135871
H2    H     H_    0.869588 0.613608 0.664341 0.103471
H3    H     H_    0.843484 0.721193 0.515789 0.175246
H4    H     H_    0.884107 0.885716 0.655313 0.205174
H5    H     H_    0.979834 0.674630 0.930031 0.117091
H6    H     H_    0.999086 0.776159 0.981908 0.103376
H7    H     H_    0.940220 0.888657 0.835178 0.092178
H8    H     H_    0.912144 0.614596 0.747953 0.128361
H9    H     H_    0.913011 0.887289 0.750648 0.126914
C23   C     C_3   0.749328 0.251900 0.798364 -0.238349
C24   C     C_3   0.115003 0.254759 0.788994 0.392191
C25   C     C_3   0.091611 0.303824 0.740044 -0.365449
H10   H     H_    0.737789 0.352963 0.768248 0.193382
H11   H     H_    0.747386 0.276860 0.838568 0.237950
H12   H     H_    0.241931 0.223075 0.780665 0.037709
H13   H     H_    0.099618 0.355283 0.754243 0.201579
H14   H     H_    0.212770 0.296802 0.711186 0.109403
C26   C     C_1   0.863558 0.378692 0.624596 -0.183273
C27   C     C_3   0.933953 0.209520 0.792673 0.101092
C28   C     C_3   0.732712 0.302812 0.751000 -0.291289
C29   C     C_3   0.897622 0.293558 0.709355 0.175374
C30   C     C_3   0.892251 0.222123 0.688658 -0.323415
C31   C     C_3   0.916093 0.173045 0.737177 -0.429347
C32   C     C_1   0.877358 0.340518 0.662761 -0.059447
C33   C     C_1   0.949882 0.161040 0.838331 0.010478
C34   C     C_1   0.961352 0.121911 0.875858 -0.127395
H15   H     H_    0.790302 0.139653 0.737825 0.173818
H16   H     H_    0.046139 0.142204 0.730673 0.157942
H17   H     H_    0.753280 0.212990 0.667021 0.162080
H18   H     H_    0.620465 0.219880 0.797394 0.147338
H19   H     H_    0.590898 0.297514 0.729926 0.143876
H20   H     H_    0.009191 0.213964 0.658639 0.158044
C35   C     C_3   0.574725 0.693067 0.259340 -0.305457
C36   C     C_3   0.218255 0.707388 0.252685 -0.433549
C37   C     C_3   0.245391 0.755443 0.203762 -0.331936
H21   H     H_    0.616474 0.718004 0.172793 0.138067
H22   H     H_    0.558741 0.643670 0.241103 0.131118
H23   H     H_    0.083682 0.720073 0.274573 0.176426
H24   H     H_    0.200232 0.656951 0.236735 0.163109
H25   H     H_    0.245742 0.727592 0.164745 0.152632
H26   H     H_    0.121419 0.790038 0.201658 0.152437
C38   C     C_1   0.475459 0.878685 0.124979 -0.188078
C39   C     C_3   0.392781 0.709859 0.293008 0.141275
C40   C     C_3   0.604822 0.743890 0.212590 -0.322879
C41   C     C_3   0.436167 0.793878 0.209924 0.208240
C42   C     C_3   0.430822 0.830568 0.265303 -0.357231
C43   C     C_3   0.407370 0.781855 0.314405 0.373688
C44   C     C_1   0.460105 0.840643 0.163230 -0.067513
C45   C     C_1   0.365679 0.661433 0.338382 -0.004970
C46   C     C_1   0.348856 0.622250 0.375748 -0.133025
H27   H     H_    0.269784 0.793815 0.335094 0.066972
H28   H     H_    0.564036 0.860006 0.269840 0.200671
H29   H     H_    0.704326 0.690572 0.286255 0.194731
H30   H     H_    0.742950 0.769925 0.219573 0.167986
H31   H     H_    0.308478 0.865885 0.264960 0.131035
C47   C     C_R   0.473385 0.161764 0.088832 -0.055838
C48   C     C_R   0.351043 0.338333 0.411085 -0.043293
C49   C     C_R   0.536651 0.277460 0.094373 -0.147960
C50   C     C_R   0.527314 0.220263 0.063988 -0.131296
C51   C     C_R   0.429196 0.160731 0.144931 -0.214413
C52   C     C_R   0.441022 0.218403 0.177305 0.089455
C53   C     C_R   0.495542 0.277034 0.150538 0.130360
C54   C     C_R   0.403436 0.219971 0.235102 0.055749
C55   C     C_R   0.421226 0.280133 0.264807 0.059987
C56   C     C_R   0.475310 0.336692 0.235683 -0.186979
C57   C     C_R   0.511116 0.334991 0.179893 -0.196515
C58   C     C_R   0.349223 0.163418 0.264214 -0.181576
C59   C     C_R   0.313159 0.165132 0.319984 -0.178036
C60   C     C_R   0.328703 0.223090 0.349337 0.126418
C61   C     C_R   0.383583 0.281702 0.322603 0.086854
C62   C     C_R   0.287134 0.222681 0.405467 -0.141530
C63   C     C_R   0.296471 0.279867 0.435860 -0.163977
C64   C     C_R   0.395620 0.339356 0.355004 -0.213986
H32   H     H_    0.552804 0.379790 0.159471 0.123593
H33   H     H_    0.434237 0.386026 0.337969 0.091177
H34   H     H_    0.259757 0.278624 0.478873 0.111614
H35   H     H_    0.271254 0.120346 0.340389 0.148074
H36   H     H_    0.578948 0.322183 0.073976 0.128793
H37   H     H_    0.563553 0.221522 0.020939 0.140648
H38   H     H_    0.391046 0.114033 0.162000 0.097173
H39   H     H_    0.491957 0.383556 0.254839 0.120116
H40   H     H_    0.332494 0.116558 0.245058 0.129876
H41   H     H_    0.244431 0.177980 0.425827 0.137637
O11   O     O_R   0.323590 0.942280 0.056590 -0.536979
O12   O     O_R   0.647030 0.077140 0.045940 -0.538306
O13   O     O_R   0.813570 0.057750 0.943430 -0.536890
C65   C     C_R   0.478544 0.101103 0.056602 0.708622
O14   O     O_R   0.653510 0.943950 0.062820 -0.538175
O15   O     O_R   0.820100 0.923600 0.960440 -0.537802
C66   C     C_R   0.485456 0.923900 0.078836 0.719099
O16   O     O_R   0.317060 0.076430 0.039590 -0.531192
O17   O     O_3   0.483830 0.993520 0.966410 -0.367624
V3    V     V_3+5 0.760140 0.001200 0.006230 1.439266
O18   O     O_R   0.149560 0.922820 0.954030 -0.539924
C67   C     C_R   0.980626 0.899043 0.943265 0.685866
O19   O     O_R   0.143080 0.056020 0.937150 -0.531840
C68   C     C_R   0.973415 0.076081 0.921303 0.729494
V4    V     V_3+5 0.259690 0.998730 0.993720 1.450543
O20   O     O_3   0.986120 0.006480 0.033580 -0.367757
S1    S     S_3+6 0.874523 0.853298 0.548491 0.078411
O21   O     O_2   0.699234 0.893760 0.560651 -0.274005
O22   O     O_2   0.051183 0.891864 0.562994 -0.316119
O23   O     O_3   0.876322 0.836809 0.481074 -0.425708
H42   H     H_    0.008696 0.821258 0.473671 0.347911
S2    S     S_3+6 0.173427 0.298099 0.851240 -0.041367
O24   O     O_2   0.190715 0.251612 0.898888 -0.340245
O25   O     O_2   0.363069 0.331691 0.843749 -0.346794
O26   O     O_3   0.004636 0.354839 0.864478 -0.516635
H43   H     H_    0.049981 0.376644 0.898320 0.369756
S3    S     S_3+6 0.594780 0.794984 0.365043 0.017478
O27   O     O_2   0.567888 0.861948 0.388764 -0.263560
O28   O     O_2   0.583515 0.745396 0.410463 -0.329371
O29   O     O_3   0.812887 0.790908 0.336052 -0.540644
H44   H     H_    0.905923 0.794594 0.366882 0.365521

loop_
_geom_bond_atom_site_label_1
_geom_bond_atom_site_label_2
_ccdc_geom_bond_type
C13   C19   A    
C18   C20   A    
C29   C30   S    
O17   V3    S    
H21   C40   S    
O13   C68   A    
C4    C6    S    
C62   C63   A    
O19   V4    S    
C52   C53   A    
C35   C39   S    
C24   S2    S    
C1    O6    A    
O18   C67   A    
S1    O23   S    
C54   C55   A    
C27   C33   S    
O13   V3    S    
C31   H16   S    
C28   H19   S    
C24   C25   S    
C23   H18   S    
C14   C15   A    
C58   C59   A    
C7    H5    S    
C16   C17   A    
C56   H39   S    
C18   C19   A    
C8    H6    S    
S2    O26   S    
C30   H20   S    
C39   C45   S    
V3    O20   S    
V2    O10   S    
C49   C53   A    
C5    C8    A    
C30   C31   S    
O14   V3    S    
C42   H28   S    
O29   H44   S    
C36   C37   S    
O8    V2    S    
C23   C27   S    
C43   S3    S    
C7    C8    A    
V4    O20   S    
C25   C29   S    
C37   H26   S    
O1    V2    S    
C11   C15   A    
O7    V1    S    
C22   H2    S    
C43   H27   S    
C42   H31   S    
C24   C27   S    
C33   C34   T    
O9    C4    A    
O15   C67   A    
C64   H33   S    
C48   C63   A    
C62   H41   S    
C59   H35   S    
C59   C60   A    
C35   C40   S    
S3    O29   S    
O18   V4    S    
C34   C68   S    
C3    C26   S    
C47   C51   A    
O12   C65   A    
C51   H38   S    
C57   H32   S    
C5    C67   S    
C38   C66   S    
C48   C64   A    
C12   C13   A    
S3    O28   D    
C38   C44   T    
O4    C2    A    
C27   C31   S    
C40   C41   S    
C49   H36   S    
S1    O22   D    
C15   H1    S    
C36   H24   S    
C25   H14   S    
C21   H3    S    
C17   H4    S    
O2    C1    A    
C65   O16   A    
C17   C18   A    
O15   V3    S    
C45   C46   T    
C1    C46   S    
C24   H12   S    
C36   H23   S    
C2    C48   S    
C30   H17   S    
C37   H25   S    
C60   C62   A    
O11   C66   A    
C6    C22   A    
O3    C4    A    
C26   C32   T    
H10   C28   S    
C9    H7    S    
C55   C56   A    
O6    V2    S    
O9    V2    S    
C47   C65   S    
C10   C12   A    
C37   C41   S    
O14   C66   A    
O2    V1    S    
O5    C3    A    
C19   C22   A    
C14   H8    S    
C47   C50   A    
C63   H34   S    
C40   H30   S    
C36   C39   S    
C28   C29   S    
O1    C2    A    
C10   C11   A    
C12   C16   A    
C42   C43   S    
O5    V1    S    
C41   C44   S    
S2    O24   D    
C52   C54   A    
C31   H15   S    
S1    O21   D    
O23   H42   S    
C25   H13   S    
C16   H9    S    
C35   H29   S    
C56   C57   A    
S3    O27   D    
C20   C21   A    
O19   C68   A    
C13   C14   A    
O4    V1    S    
O3    V1    S    
V1    O10   S    
C20   S1    S    
S2    O25   D    
O16   V4    S    
C55   C61   A    
C53   C57   A    
C49   C50   A    
C50   H37   S    
C35   H22   S    
O7    V2    S    
C51   C52   A    
C6    C21   A    
C5    C9    A    
O11   V4    S    
O17   V4    S    
C41   C42   S    
C23   C28   S    
C7    C11   A    
C39   C43   S    
C29   C32   S    
C60   C61   A    
C58   H40   S    
O26   H43   S    
C9    C10   A    
C61   C64   A    
C54   C58   A    
C23   H11   S    
O8    C3    A    
O12   V3    S    
