data_mof_unit_58660.cif
_audit_creation_date              2012-12-11T16:07:32-0500
_audit_creation_method            fapswitch 2.2
_symmetry_space_group_name_H-M    P1
_symmetry_Int_Tables_number       1
_space_group_crystal_system       triclinic
_cell_length_a                    6.942236
_cell_length_b                    14.602753
_cell_length_c                    15.770311
_cell_angle_alpha                 90.097591
_cell_angle_beta                  89.891375
_cell_angle_gamma                 90.021893
_cell_volume                      1598.72191784

loop_
_atom_site_label
_atom_site_type_symbol
_atom_type_description
_atom_site_fract_x
_atom_site_fract_y
_atom_site_fract_z
_atom_type_partial_charge
O1    O     O_R   0.494320 0.415010 0.412140 -0.538038
O2    O     O_R   0.824010 0.404260 0.587250 -0.546159
O3    O     O_R   0.994320 0.584990 0.587860 -0.544923
C1    C     C_R   0.654797 0.381843 0.616371 0.714423
O4    O     O_R   0.824040 0.403870 0.412760 -0.546698
O5    O     O_R   0.994350 0.584590 0.412130 -0.542607
C2    C     C_R   0.654919 0.381852 0.382790 0.741618
O6    O     O_R   0.494300 0.415410 0.587870 -0.531930
O7    O     O_3   0.660800 0.559290 0.500000 -0.373666
V1    V     V_3+5 0.935650 0.489000 0.500000 1.382469
O8    O     O_R   0.324060 0.595740 0.412750 -0.548820
C3    C     C_R   0.154910 0.620087 0.385038 0.635672
O9    O     O_R   0.324040 0.596130 0.587240 -0.535837
C4    C     C_R   0.154824 0.618415 0.616372 0.680202
V2    V     V_3+5 0.435660 0.511000 0.500000 1.407319
O10   O     O_3   0.160640 0.440710 0.500000 -0.370498
C5    C     C_3   0.954939 0.723483 0.727819 -0.125642
C6    C     C_3   0.046352 0.712379 0.816821 -0.148958
H1    H     H_    0.974309 0.681887 0.872984 0.105413
H2    H     H_    0.806949 0.701925 0.710145 0.106928
C7    C     C_3   0.123645 0.810951 0.811449 0.002106
C8    C     C_3   0.032444 0.822860 0.723186 -0.141706
C9    C     C_3   0.220813 0.787297 0.681571 -0.144337
C10   C     C_3   0.312170 0.776200 0.770585 -0.109553
C11   C     C_3   0.234717 0.676799 0.775219 -0.150968
C12   C     C_3   0.143362 0.688620 0.686948 -0.008951
H3    H     H_    0.948700 0.883377 0.702019 0.090563
H4    H     H_    0.292952 0.818006 0.625536 0.092648
H5    H     H_    0.460054 0.797926 0.788280 0.110836
H6    H     H_    0.318484 0.616340 0.796481 0.140716
C13   C     C_3   0.334850 0.776952 0.199667 0.245583
H7    H     H_    0.428367 0.836300 0.216264 0.100864
C14   C     C_3   0.347008 0.707920 0.274131 -0.372627
H8    H     H_    0.446852 0.735384 0.323167 0.121822
H9    H     H_    0.410383 0.642405 0.251812 0.155629
H10   H     H_    0.016862 0.699312 0.108709 0.129092
H11   H     H_    0.064108 0.596013 0.213904 0.108534
C15   C     C_3   0.987015 0.731020 0.171528 -0.317947
C16   C     C_3   0.060930 0.856677 0.273805 -0.407153
C17   C     C_3   0.123682 0.812962 0.187979 0.054806
H12   H     H_    0.911975 0.884252 0.268635 0.149633
H13   H     H_    0.156827 0.915452 0.289240 0.118116
C18   C     C_3   0.144878 0.691277 0.314106 0.086545
C19   C     C_3   0.006803 0.658942 0.242613 -0.350370
C20   C     C_3   0.069016 0.784917 0.347041 -0.317162
H14   H     H_    0.164103 0.810730 0.398529 0.121437
H15   H     H_    0.922516 0.776116 0.374614 0.145561
H16   H     H_    0.835064 0.755283 0.169562 0.184706
H17   H     H_    0.861583 0.643490 0.268954 0.165541
C21   C     C_3   0.481681 0.241234 0.671049 -0.405886
H18   H     H_    0.339944 0.273667 0.659494 0.155181
H19   H     H_    0.515858 0.205066 0.611244 0.162984
C22   C     C_3   0.468756 0.169271 0.743044 -0.360069
H20   H     H_    0.490192 0.099574 0.715932 0.138385
H21   H     H_    0.321959 0.170086 0.771269 0.147766
H22   H     H_    0.451752 0.288757 0.883026 0.136774
C23   C     C_3   0.615467 0.361073 0.778121 0.843405
C24   C     C_3   0.832449 0.254482 0.692858 -0.360422
C25   C     C_3   0.643636 0.312579 0.688540 0.017079
H23   H     H_    0.961029 0.298842 0.699896 0.168184
H24   H     H_    0.853553 0.216145 0.632451 0.151989
C26   C     C_3   0.623372 0.187713 0.811974 0.025783
C27   C     C_3   0.591209 0.285350 0.848865 -0.344264
C28   C     C_3   0.824343 0.186003 0.767625 -0.325837
H25   H     H_    0.855858 0.115857 0.743620 0.133523
H26   H     H_    0.938977 0.203856 0.814083 0.158996
H27   H     H_    0.698962 0.296831 0.900067 0.143785
C29   C     C_3   0.534780 0.351501 0.228704 0.743938
C30   C     C_3   0.548907 0.280996 0.153892 0.180802
H28   H     H_    0.655883 0.304848 0.106518 0.108455
H29   H     H_    0.373966 0.248420 0.358531 0.105898
H30   H     H_    0.349616 0.145644 0.248733 0.107207
C31   C     C_3   0.521408 0.224855 0.340488 0.361671
C32   C     C_3   0.845448 0.270898 0.288739 -0.389822
C33   C     C_3   0.642427 0.310961 0.310953 -0.129670
H31   H     H_    0.908742 0.237182 0.345425 0.212424
H32   H     H_    0.951657 0.323599 0.272774 0.175040
C34   C     C_3   0.621852 0.186501 0.186301 -0.098325
C35   C     C_3   0.503958 0.155107 0.265060 -0.400827
C36   C     C_3   0.833572 0.200098 0.216342 -0.405514
H33   H     H_    0.925343 0.223369 0.162617 0.158519
H34   H     H_    0.894041 0.133771 0.238679 0.174082
H35   H     H_    0.558102 0.086587 0.284460 0.158499
O11   O     O_R   0.771990 0.083520 0.910980 -0.545559
O12   O     O_R   0.442180 0.095020 0.086060 -0.532951
O13   O     O_R   0.271950 0.914280 0.086680 -0.525479
C37   C     C_R   0.611129 0.115989 0.115952 0.737882
O14   O     O_R   0.442270 0.094630 0.911580 -0.540698
O15   O     O_R   0.272040 0.913890 0.910940 -0.537362
C38   C     C_R   0.611545 0.116443 0.882086 0.686512
O16   O     O_R   0.771900 0.083910 0.086710 -0.549643
O17   O     O_3   0.605520 0.939610 0.998840 -0.357783
V3    V     V_3+5 0.330640 0.009880 0.998810 1.434630
O18   O     O_R   0.942330 0.902710 0.911540 -0.542121
C39   C     C_R   0.111633 0.880688 0.882282 0.677092
O19   O     O_R   0.942240 0.903100 0.086030 -0.545250
C40   C     C_R   0.111294 0.882142 0.116167 0.686631
V4    V     V_3+5 0.830640 0.987830 0.998780 1.408791
O20   O     O_3   0.105630 0.058150 0.998800 -0.371742
O21   O     O_3   0.462775 0.427759 0.778084 -0.584335
C41   C     C_3   0.270976 0.395853 0.780552 -0.307071
H36   H     H_    0.251366 0.321356 0.785360 0.126889
H37   H     H_    0.195718 0.420162 0.722843 0.173130
H38   H     H_    0.198979 0.426682 0.836516 0.192138
O22   O     O_3   0.793677 0.405734 0.798278 -0.589766
C42   C     C_3   0.794622 0.501444 0.784521 -0.223673
H39   H     H_    0.711252 0.536992 0.834984 0.171845
H40   H     H_    0.738947 0.520194 0.720954 0.149414
H41   H     H_    0.944942 0.526128 0.788157 0.131010
O23   O     O_3   0.335135 0.355671 0.251079 -0.593799
C43   C     C_3   0.259968 0.444599 0.258872 -0.179694
H42   H     H_    0.212742 0.467561 0.195341 0.154051
H43   H     H_    0.362661 0.493872 0.286708 0.170968
H44   H     H_    0.138565 0.442879 0.303983 0.127094
O24   O     O_3   0.595823 0.439497 0.197831 -0.567507
C44   C     C_3   0.794089 0.453381 0.188577 -0.385733
H45   H     H_    0.870437 0.396135 0.157165 0.148301
H46   H     H_    0.854719 0.471443 0.250919 0.143263
H47   H     H_    0.814402 0.513374 0.146564 0.193753
O25   O     O_3   0.374827 0.275533 0.107997 -0.630306
H48   H     H_    0.278256 0.242647 0.142807 0.313910
O26   O     O_3   0.609680 0.182410 0.411525 -0.553057
C45   C     C_3   0.475445 0.126965 0.455381 -0.318765
H49   H     H_    0.409765 0.074049 0.413791 0.134845
H50   H     H_    0.359849 0.169380 0.484495 0.134399
H51   H     H_    0.552029 0.090201 0.506730 0.160869
O27   O     O_3   0.409580 0.739113 0.124175 -0.644513
H52   H     H_    0.343445 0.680051 0.113355 0.295428

loop_
_geom_bond_atom_site_label_1
_geom_bond_atom_site_label_2
_ccdc_geom_bond_type
C34   C37   S    
C19   H17   S    
C23   O22   S    
C41   H36   S    
C37   O16   A    
C6    C7    S    
O12   V3    S    
C43   H42   S    
C13   O27   S    
C1    O6    A    
O17   V4    S    
C45   H49   S    
C16   H12   S    
C20   H14   S    
C13   C17   S    
C29   C33   S    
C32   H31   S    
C5    C12   S    
H30   C35   S    
O5    C3    A    
C34   C36   S    
C45   H50   S    
C42   H39   S    
O18   V4    S    
C24   H23   S    
O24   C44   S    
C5    H2    S    
C44   H45   S    
C6    H1    S    
C9    C12   S    
O13   C40   A    
C10   H5    S    
O17   V3    S    
C26   C28   S    
O23   C43   S    
O8    V2    S    
C3    C18   S    
C44   H46   S    
C29   C30   S    
C35   H35   S    
C32   H32   S    
O19   V4    S    
C21   H19   S    
C9    C10   S    
C13   C14   S    
O1    V2    S    
O7    V1    S    
V3    O20   S    
C15   H16   S    
C16   C20   S    
C24   H24   S    
C20   H15   S    
C41   H37   S    
C32   C36   S    
O9    C4    A    
C31   C33   S    
C30   C34   S    
C30   H28   S    
C6    C11   S    
O11   C38   A    
C23   C27   S    
C16   H13   S    
C22   H21   S    
C24   C28   S    
C27   H27   S    
C21   C22   S    
C32   C33   S    
O12   C37   A    
C14   C18   S    
C10   C11   S    
C36   H34   S    
C16   C17   S    
H29   C31   S    
C34   C35   S    
C45   H51   S    
C2    C33   S    
C7    C39   S    
C21   H18   S    
C11   C12   S    
C22   H20   S    
C23   O21   S    
C28   H26   S    
O15   C39   A    
O2    C1    A    
C18   C19   S    
C15   C19   S    
C26   C27   S    
O13   V3    S    
C22   C26   S    
C13   H7    S    
O19   C40   A    
C5    C6    S    
C31   C35   S    
H22   C27   S    
C43   H43   S    
C29   O23   S    
C9    H4    S    
C4    C12   S    
C18   C20   S    
O3    C4    A    
O14   C38   A    
V4    O20   S    
O6    V2    S    
C8    H3    S    
O9    V2    S    
C21   C25   S    
O27   H52   S    
O2    V1    S    
C17   C40   S    
O25   H48   S    
O4    C2    A    
C11   H6    S    
O14   V3    S    
O1    C2    A    
C36   H33   S    
O5    V1    S    
O8    C3    A    
C41   H38   S    
O22   C42   S    
C30   O25   S    
C5    C8    S    
C44   H47   S    
O11   V4    S    
C28   H25   S    
H11   C19   S    
H10   C15   S    
C24   C25   S    
O4    V1    S    
O3    V1    S    
V1    O10   S    
C15   C17   S    
C42   H40   S    
C26   C38   S    
C1    C25   S    
O21   C41   S    
C14   H9    S    
C14   H8    S    
C43   H44   S    
O16   V4    S    
O15   V3    S    
O18   C39   A    
C23   C25   S    
C29   O24   S    
C31   O26   S    
C7    C10   S    
C8    C9    S    
O26   C45   S    
C7    C8    S    
V2    O10   S    
O7    V2    S    
C42   H41   S    
