data_mof_unit_53822.cif
_audit_creation_date              2013-03-05T16:32:50-0500
_audit_creation_method            fapswitch 2.2
_symmetry_space_group_name_H-M    P1
_symmetry_Int_Tables_number       1
_space_group_crystal_system       triclinic
_cell_length_a                    19.299428
_cell_length_b                    10.857871
_cell_length_c                    9.609612
_cell_angle_alpha                 90.931295
_cell_angle_beta                  90.905578
_cell_angle_gamma                 92.581872
_cell_volume                      2011.11534698

loop_
_atom_site_label
_atom_site_type_symbol
_atom_site_description
_atom_site_fract_x
_atom_site_fract_y
_atom_site_fract_z
_atom_type_partial_charge
O1    O     O_R   0.500000 0.319640 0.618810 -0.522655
O2    O     O_R   0.500010 0.319680 0.381230 -0.574591
C1    C     C_R   0.500012 0.262855 0.499079 0.887185
O3    O     O_R   0.400140 0.499970 0.618830 -0.531154
O4    O     O_R   0.400150 0.500010 0.381250 -0.531648
C2    C     C_R   0.367261 0.499992 0.499589 0.988682
Cu1   Cu    Cu3+1 0.500000 0.499980 0.640670 1.103797
Cu2   Cu    Cu3+1 0.500000 0.500020 0.359330 1.094378
O5    O     O_R   0.499990 0.680320 0.618770 -0.592978
O6    O     O_R   0.500000 0.680360 0.381190 -0.547577
O7    O     O_R   0.599850 0.499990 0.618750 -0.558692
O8    O     O_R   0.599860 0.500030 0.381170 -0.537700
C3    C     C_R   0.497020 0.737343 0.500313 0.886810
C4    C     C_R   0.632173 0.501290 0.500741 0.838175
C5    C     C_R   0.261148 0.593745 0.591568 0.251978
C6    C     C_R   0.188679 0.597615 0.603583 0.236589
C7    C     C_R   0.145134 0.513393 0.526801 -0.251278
C8    C     C_R   0.173668 0.425705 0.437713 0.223402
C9    C     C_R   0.246188 0.419418 0.426256 0.244295
C10   C     C_R   0.290557 0.505386 0.502200 -0.287998
N1    N     N_R   0.029915 0.415608 0.561359 -0.123556
N2    N     N_R   0.961107 0.417490 0.559201 -0.164190
C11   C     C_R   0.929046 0.522898 0.530401 0.453887
N3    N     N_R   0.968291 0.626533 0.503688 -0.134385
N4    N     N_R   0.037246 0.624549 0.505535 -0.129672
C12   C     C_R   0.069182 0.518802 0.534056 0.542414
C13   C     C_R   0.814981 0.620018 0.577153 0.344185
C14   C     C_R   0.742500 0.613300 0.564055 -0.104730
H1    H     H_    0.712731 0.687832 0.603520 0.197436
C15   C     C_R   0.707770 0.510082 0.502675 -0.045377
C16   C     C_R   0.745382 0.416146 0.444044 -0.040123
H2    H     H_    0.718898 0.337542 0.392560 0.201867
C17   C     C_R   0.817469 0.421483 0.455208 -0.105958
H3    H     H_    0.845741 0.346898 0.410485 0.201976
C18   C     C_R   0.852943 0.522177 0.522466 -0.086051
C19   C     C_R   0.521516 0.067671 0.611730 0.057047
C20   C     C_R   0.495444 0.129839 0.498794 -0.137160
C21   C     C_R   0.459149 0.062632 0.393299 -0.137571
H4    H     H_    0.435406 0.110440 0.308304 0.236111
C22   C     C_R   0.452747 0.933538 0.396499 0.400689
C23   C     C_R   0.489931 0.870567 0.501302 -0.128458
C24   C     C_R   0.520238 0.940573 0.611522 -0.035043
C25   C     C_3   0.591204 0.938455 0.676463 -0.451640
C26   C     C_3   0.592323 0.078424 0.678683 0.528707
H5    H     H_    0.589983 0.902672 0.782794 0.225024
H6    H     H_    0.629630 0.896953 0.606779 0.236720
C27   C     C_R   0.555311 0.550396 0.076342 0.158270
N5    N     N_R   0.500440 0.500930 0.147930 -0.259125
C28   C     C_R   0.450917 0.435714 0.074376 -0.031550
H7    H     H_    0.411366 0.386589 0.131871 0.250641
C29   C     C_R   0.449851 0.433263 0.926669 0.496458
N6    N     N_R   0.500440 0.500890 0.852020 -0.274101
C30   C     C_R   0.556037 0.547050 0.929422 0.121100
C31   C     C_3   0.588143 0.673646 0.922834 0.007399
C32   C     C_3   0.583196 0.681691 0.081657 0.167711
H8    H     H_    0.553575 0.734753 0.866581 0.102361
H9    H     H_    0.543815 0.745938 0.116073 0.148441
N7    N     N_R   0.304884 0.679209 0.672633 0.171068
O9    O     O_R   0.346531 0.757502 0.611100 -0.326887
O10   O     O_R   0.298237 0.687231 0.806976 -0.249730
S1    S     S_3+6 0.394635 0.861702 0.271677 0.085186
O11   O     O_2   0.368459 0.736730 0.316743 -0.272567
O12   O     O_2   0.333635 0.941438 0.252245 -0.162661
O13   O     O_3   0.434559 0.849516 0.118399 -0.539808
H10   H     H_    0.402113 0.798204 0.058420 0.395672
N8    N     N_R   0.592880 0.130895 0.820652 0.144129
O14   O     O_R   0.646142 0.117156 0.902760 -0.226801
O15   O     O_R   0.540109 0.188627 0.867272 -0.317369
N9    N     N_R   0.646045 0.135587 0.590969 0.095164
O16   O     O_R   0.652558 0.099573 0.462102 -0.348932
O17   O     O_R   0.689125 0.220644 0.642489 -0.294211
S2    S     S_3+6 0.376792 0.343020 0.857319 0.092939
O18   O     O_2   0.315874 0.424139 0.849413 -0.261103
O19   O     O_2   0.385629 0.282241 0.718375 -0.247409
O20   O     O_3   0.357833 0.228865 0.968886 -0.460892
H11   H     H_    0.312400 0.192182 0.936233 0.416747
N10   N     N_R   0.659232 0.673484 0.870810 0.175253
O21   O     O_R   0.691468 0.777156 0.840997 -0.283006
O22   O     O_R   0.692867 0.572213 0.864698 -0.267831
S3    S     S_3+6 0.663279 0.707413 0.178720 0.101810
O23   O     O_2   0.646996 0.737379 0.327402 -0.332413
O24   O     O_2   0.705692 0.594732 0.172278 -0.230719
O25   O     O_3   0.709119 0.828527 0.115068 -0.394526
H12   H     H_    0.751887 0.835998 0.173524 0.399014
N11   N     N_R   0.159451 0.688117 0.693451 0.181572
O26   O     O_R   0.114079 0.654789 0.785897 -0.250689
O27   O     O_R   0.178396 0.804150 0.683643 -0.203906
N12   N     N_R   0.128177 0.347407 0.352189 0.159545
O28   O     O_R   0.103834 0.242847 0.399655 -0.215920
O29   O     O_R   0.102845 0.389080 0.236839 -0.289890
S4    S     S_3+6 0.278896 0.306664 0.311235 0.100591
O30   O     O_2   0.349713 0.270322 0.355888 -0.299163
O31   O     O_2   0.232676 0.191549 0.303480 -0.144351
O32   O     O_3   0.282518 0.369126 0.152738 -0.479837
H13   H     H_    0.233595 0.374032 0.121574 0.397859
N13   N     N_R   0.848289 0.722799 0.651803 0.160639
O33   O     O_R   0.822299 0.831222 0.646064 -0.242763
O34   O     O_R   0.897376 0.704807 0.742654 -0.242578

loop_
_geom_bond_atom_site_label_1
_geom_bond_atom_site_label_2
_geom_bond_distance
_ccdc_geom_bond_type
N8    O15   1.301427 A    
N1    C12   1.355696 A    
C22   C23   1.428467 A    
C23   C24   1.398539 A    
C19   C24   1.379092 A    
C9    C10   1.422400 A    
C25   C26   1.518746 S    
C3    C23   1.459003 S    
Cu1   Cu2   2.703575 S    
N11   O26   1.301316 A    
Cu1   O7    1.941828 S    
C7    C12   1.472363 S    
C19   C20   1.387004 A    
Cu1   N6    2.030737 S    
S3    O25   1.680653 S    
O4    C2    1.311074 A    
O7    C4    1.302854 A    
N7    O10   1.301252 A    
C5    C6    1.407645 A    
S1    O12   1.503511 D    
C8    C9    1.410280 A    
N9    O17   1.300852 A    
O5    C3    1.306314 A    
C26   N8    1.469571 S    
C27   N5    1.366359 A    
C6    C7    1.405754 A    
C28   C29   1.419030 A    
N13   O34   1.301510 A    
C11   N3    1.358138 A    
C16   C17   1.392208 A    
S1    O11   1.499425 D    
C27   C30   1.412028 A    
C31   N10   1.467712 S    
N11   O27   1.301267 A    
N8    O14   1.301316 A    
N1    N2    1.328877 A    
C13   N13   1.438061 S    
N9    O16   1.302256 A    
C4    C15   1.457604 S    
S2    O20   1.683558 S    
C17   H3    1.083583 S    
N10   O22   1.302821 A    
C5    C10   1.420484 A    
C31   H8    1.103469 S    
C29   N6    1.407720 A    
N3    N4    1.331764 A    
S2    O19   1.495338 D    
S4    O30   1.497777 D    
S2    O18   1.502130 D    
O3    Cu1   1.935329 S    
N7    O9    1.299305 A    
N10   O21   1.299704 A    
C8    N12   1.433956 S    
C22   S1    1.775737 S    
O1    C1    1.296506 A    
S1    O13   1.679121 S    
O20   H11   0.990813 S    
Cu2   N5    2.031807 S    
C20   C21   1.399404 A    
S4    O31   1.502642 D    
O25   H12   0.990570 S    
C15   C16   1.394843 A    
Cu2   O8    1.935327 S    
N13   O33   1.301911 A    
C7    C8    1.406526 A    
C26   N9    1.468780 S    
C25   H5    1.099280 S    
S3    O24   1.503364 D    
N5    C28   1.347559 A    
N12   O29   1.300591 A    
C11   C18   1.469171 S    
C32   H9    1.105381 S    
C6    N11   1.437837 S    
C5    N7    1.437204 S    
C19   C26   1.500142 S    
O3    C2    1.301035 A    
C29   S2    1.793579 S    
N6    C30   1.367468 A    
C27   C32   1.500725 S    
Cu1   O5    1.972791 S    
C31   C32   1.532040 S    
C14   H1    1.080554 S    
O1    Cu1   1.965947 S    
C16   H2    1.083237 S    
O2    Cu2   1.972790 S    
O8    C4    1.298245 A    
S3    O23   1.501435 D    
O6    C3    1.295673 A    
O4    Cu2   1.941828 S    
C30   C31   1.484815 S    
C2    C10   1.484721 S    
C13   C18   1.416220 A    
O13   H10   0.990680 S    
C14   C15   1.396972 A    
O2    C1    1.298427 A    
N4    C12   1.357195 A    
S4    O32   1.678490 S    
C21   C22   1.402439 A    
C32   S3    1.801056 S    
C21   H4    1.081635 S    
C17   C18   1.406207 A    
O32   H13   0.990004 S    
C25   H6    1.112406 S    
C9    S4    1.779520 S    
N12   O28   1.301242 A    
C1    C20   1.442946 S    
Cu2   O6    1.965947 S    
C28   H7    1.076400 S    
C24   C25   1.497363 S    
C13   C14   1.401017 A    
N2    C11   1.355741 A    
