data_mof_unit_37360.cif
_audit_creation_date              2012-12-11T15:45:00-0500
_audit_creation_method            fapswitch 2.2
_symmetry_space_group_name_H-M    P1
_symmetry_Int_Tables_number       1
_space_group_crystal_system       triclinic
_cell_length_a                    6.928884
_cell_length_b                    16.834805
_cell_length_c                    17.087959
_cell_angle_alpha                 100.427153
_cell_angle_beta                  88.069791
_cell_angle_gamma                 91.731913
_cell_volume                      1958.62958257

loop_
_atom_site_label
_atom_site_type_symbol
_atom_type_description
_atom_site_fract_x
_atom_site_fract_y
_atom_site_fract_z
_atom_type_partial_charge
O1    O     O_R   0.494370 0.415690 0.413450 -0.546972
O2    O     O_R   0.819420 0.429360 0.578420 -0.548103
O3    O     O_R   0.994280 0.584310 0.586550 -0.509013
C1    C     C_R   0.646043 0.413141 0.604665 0.693754
O4    O     O_R   0.823790 0.406230 0.413570 -0.547917
O5    O     O_R   0.998670 0.561000 0.420530 -0.507603
C2    C     C_R   0.655244 0.383277 0.384878 0.696163
O6    O     O_R   0.489970 0.439000 0.579470 -0.544229
O7    O     O_3   0.662300 0.550810 0.502470 -0.336381
V1    V     V_3+5 0.935380 0.490570 0.499540 1.484303
O8    O     O_R   0.328650 0.570640 0.421580 -0.549701
C3    C     C_R   0.164028 0.587539 0.395562 0.749031
O9    O     O_R   0.324290 0.593770 0.586430 -0.546663
C4    C     C_R   0.154624 0.617922 0.614079 0.749022
V2    V     V_3+5 0.435930 0.509430 0.500460 1.467036
O10   O     O_3   0.159140 0.449190 0.497530 -0.385025
C5    C     C_R   0.295171 0.706030 0.733857 -0.235475
C6    C     C_R   0.283093 0.769149 0.799264 -0.202336
C7    C     C_R   0.117877 0.816445 0.814131 -0.136954
C8    C     C_R   0.963684 0.799786 0.760672 0.240710
C9    C     C_R   0.975990 0.736131 0.693934 0.336492
C10   C     C_R   0.142021 0.687965 0.681235 -0.126357
C11   C     C_R   0.171103 0.642460 0.335650 -0.089724
C12   C     C_R   0.090562 0.860757 0.166578 -0.067348
C13   C     C_R   0.897829 0.806665 0.268197 -0.182815
C14   C     C_R   0.922036 0.860016 0.214673 -0.158365
C15   C     C_R   0.238210 0.807765 0.174859 -0.214768
C16   C     C_R   0.213880 0.752625 0.228047 0.130784
C17   C     C_R   0.040217 0.750272 0.274392 0.059199
C18   C     C_R   0.017125 0.693298 0.327157 0.288232
C19   C     C_R   0.340668 0.646061 0.288554 -0.248110
C20   C     C_R   0.361355 0.699768 0.235353 -0.204685
H1    H     H_    0.459193 0.606710 0.292832 0.148525
H2    H     H_    0.494730 0.700588 0.200454 0.127748
H3    H     H_    0.369410 0.807819 0.138449 0.117121
C21   C     C_R   0.618700 0.359298 0.664666 -0.103670
C22   C     C_R   0.647021 0.140105 0.834775 -0.098835
C23   C     C_R   0.863110 0.192482 0.737666 0.323471
C24   C     C_R   0.823490 0.139001 0.791127 -0.235064
C25   C     C_R   0.507242 0.195220 0.823346 -0.254059
C26   C     C_R   0.545162 0.249831 0.770836 0.089076
C27   C     C_R   0.724132 0.248951 0.727876 0.122973
C28   C     C_R   0.759854 0.304326 0.675528 -0.198362
C29   C     C_R   0.442580 0.359486 0.708390 -0.143498
C30   C     C_R   0.406772 0.305871 0.761014 -0.128509
H4    H     H_    0.330833 0.401189 0.701700 0.123682
C31   C     C_R   0.800672 0.265201 0.292035 -0.140778
H5    H     H_    0.932209 0.273248 0.325375 0.139020
C32   C     C_R   0.788126 0.202234 0.226341 -0.158757
H6    H     H_    0.910236 0.163041 0.211803 0.162239
C33   C     C_R   0.620404 0.189174 0.180723 -0.151517
C34   C     C_R   0.465177 0.243118 0.202099 0.348093
C35   C     C_R   0.476580 0.303525 0.270095 -0.150908
H7    H     H_    0.355376 0.343112 0.285564 0.136476
C36   C     C_R   0.644183 0.316025 0.315274 -0.124920
O11   O     O_R   0.774880 0.061150 0.920630 -0.536770
O12   O     O_R   0.440980 0.093710 0.086500 -0.533836
O13   O     O_R   0.266190 0.938890 0.079390 -0.537628
C37   C     C_R   0.609784 0.118527 0.113664 0.686658
O14   O     O_R   0.445420 0.070740 0.921670 -0.544960
O15   O     O_R   0.270660 0.915760 0.913380 -0.542929
C38   C     C_R   0.618844 0.086828 0.895284 0.737313
O16   O     O_R   0.770400 0.084270 0.086640 -0.537123
O17   O     O_3   0.602590 0.949210 0.997500 -0.374332
V3    V     V_3+5 0.329470 0.009420 0.000470 1.428089
O18   O     O_R   0.940650 0.906250 0.913470 -0.534990
C39   C     C_R   0.109503 0.883818 0.884119 0.738098
O19   O     O_R   0.936210 0.929220 0.078300 -0.546991
C40   C     C_R   0.100414 0.913268 0.104972 0.692854
V4    V     V_3+5 0.828930 0.990510 0.999490 1.428480
O20   O     O_3   0.105680 0.050790 0.002500 -0.366084
H8    H     H_    0.423848 0.670124 0.725300 0.151930
H9    H     H_    0.895111 0.303530 0.641715 0.170661
O21   O     O_3   0.036295 0.190549 0.694866 -0.653703
H10   H     H_    0.117811 0.148228 0.709206 0.294543
H11   H     H_    0.269611 0.307877 0.793640 0.132475
H12   H     H_    0.932180 0.096329 0.798801 0.135873
H13   H     H_    0.371086 0.197076 0.856736 0.131849
O22   O     O_3   0.302146 0.240482 0.157641 -0.648736
H14   H     H_    0.342978 0.228605 0.100720 0.286020
H15   H     H_    0.402620 0.780135 0.839298 0.135314
O23   O     O_3   0.804472 0.847697 0.770687 -0.645895
H16   H     H_    0.725863 0.830137 0.814296 0.284445
O24   O     O_3   0.829602 0.720431 0.639666 -0.628393
H17   H     H_    0.720815 0.756958 0.656601 0.326303
O25   O     O_3   0.851108 0.688030 0.373086 -0.628855
H18   H     H_    0.739005 0.697420 0.342010 0.281058
H19   H     H_    0.766500 0.811073 0.304485 0.135368
H20   H     H_    0.806833 0.901138 0.210829 0.128163

loop_
_geom_bond_atom_site_label_1
_geom_bond_atom_site_label_2
_ccdc_geom_bond_type
C28   H9    S    
C1    C21   S    
C8    O23   S    
C26   C27   A    
C7    C8    A    
C12   C15   A    
C2    C36   S    
C1    O6    A    
C22   C38   S    
C31   C32   A    
C35   H7    S    
C29   C30   A    
C14   H20   S    
C3    C11   S    
C30   H11   S    
C24   H12   S    
C16   C17   A    
C12   C14   A    
C23   C27   A    
C22   C25   A    
O5    C3    A    
C23   C24   A    
O12   C37   A    
V2    O10   S    
C6    H15   S    
O14   C38   A    
C6    C7    A    
O8    V2    S    
C19   C20   A    
O19   C40   A    
C32   C33   A    
C19   H1    S    
C7    C39   S    
V4    O20   S    
O1    V2    S    
O17   V4    S    
C18   O25   S    
C34   O22   S    
O7    V1    S    
O18   C39   A    
O9    C4    A    
C29   H4    S    
C12   C40   S    
C35   C36   A    
C13   C17   A    
O21   H10   S    
O16   V4    S    
C33   C34   A    
C11   C18   A    
C16   C20   A    
O24   H17   S    
O4    C2    A    
O25   H18   S    
C15   H3    S    
C13   C14   A    
V3    O20   S    
C13   H19   S    
C20   H2    S    
O2    C1    A    
C17   C18   A    
O15   C39   A    
O13   V3    S    
C31   H5    S    
C9    O24   S    
C5    C6    A    
O3    C4    A    
C25   C26   A    
O14   V3    S    
C32   H6    S    
O6    V2    S    
O11   V4    S    
O9    V2    S    
C25   H13   S    
C21   C29   A    
C33   C37   S    
C27   C28   A    
O2    V1    S    
C34   C35   A    
C31   C36   A    
C23   O21   S    
O1    C2    A    
O12   V3    S    
O5    V1    S    
O8    C3    A    
O13   C40   A    
C37   O16   A    
C5    C10   A    
O17   V3    S    
C4    C10   S    
O7    V2    S    
O4    V1    S    
C22   C24   A    
O3    V1    S    
V1    O10   S    
O18   V4    S    
O11   C38   A    
O22   H14   S    
O15   V3    S    
C8    C9    A    
C5    H8    S    
O19   V4    S    
O23   H16   S    
C15   C16   A    
C26   C30   A    
C21   C28   A    
C9    C10   A    
C11   C19   A    
