data_mof_unit_43400.cif
_audit_creation_date              2013-03-05T16:06:01-0500
_audit_creation_method            fapswitch 2.2
_symmetry_space_group_name_H-M    P1
_symmetry_Int_Tables_number       1
_space_group_crystal_system       triclinic
_cell_length_a                    10.863337
_cell_length_b                    9.639904
_cell_length_c                    23.498108
_cell_angle_alpha                 89.538087
_cell_angle_beta                  95.13324
_cell_angle_gamma                 88.439368
_cell_volume                      2449.84309081

loop_
_atom_site_label
_atom_site_type_symbol
_atom_site_description
_atom_site_fract_x
_atom_site_fract_y
_atom_site_fract_z
_atom_type_partial_charge
O1    O     O_R   0.319640 0.618740 0.500000 -0.544050
O2    O     O_R   0.680360 0.381260 0.500000 -0.519838
O3    O     O_R   0.680360 0.618740 0.500000 -0.563107
O4    O     O_R   0.319640 0.381260 0.500000 -0.523682
C1    C     C_R   0.263518 0.501594 0.505128 0.912008
C2    C     C_R   0.737327 0.497566 0.496848 0.884065
O5    O     O_R   0.499960 0.618810 0.417880 -0.539127
O6    O     O_R   0.500040 0.381190 0.582120 -0.581448
O7    O     O_R   0.500040 0.618810 0.582120 -0.573492
O8    O     O_R   0.499960 0.381190 0.417880 -0.599542
C3    C     C_R   0.501270 0.500547 0.391124 0.862496
C4    C     C_R   0.495066 0.499816 0.608740 0.844088
Cu1   Cu    Cu3+1 0.500000 0.640660 0.500000 1.080374
Cu2   Cu    Cu3+1 0.500000 0.359340 0.500000 1.085696
C5    C     C_R   0.578966 0.525213 0.880551 0.612597
C6    C     C_R   0.391639 0.467217 0.118209 0.609633
N1    N     N_R   0.468545 0.499174 0.850443 -0.453192
N2    N     N_R   0.500684 0.499738 0.148064 -0.454603
C7    C     C_R   0.365317 0.471405 0.877114 0.625203
C8    C     C_R   0.603576 0.528339 0.121301 0.627027
C9    C     C_R   0.369815 0.471342 0.936912 -0.032376
C10   C     C_R   0.598517 0.529873 0.061539 -0.031603
C11   C     C_R   0.481163 0.502741 0.969050 -0.001087
C12   C     C_R   0.486187 0.501937 0.029454 0.001546
C13   C     C_R   0.587257 0.534625 0.940831 -0.080771
C14   C     C_R   0.379393 0.472833 0.057705 -0.081673
C15   C     C_R   0.264237 0.444114 0.964762 -0.169744
C16   C     C_R   0.702519 0.563600 0.033626 -0.177872
C17   C     C_R   0.266267 0.448329 0.024290 -0.044405
C18   C     C_R   0.697341 0.571377 0.974053 -0.042995
O9    O     O_2   0.680222 0.537990 0.851882 -0.477172
O10   O     O_2   0.297247 0.427020 0.147433 -0.476083
O11   O     O_2   0.258546 0.444820 0.845703 -0.484288
O12   O     O_2   0.710035 0.556705 0.152629 -0.479927
H1    H     H_    0.177680 0.423947 0.939915 0.217263
H2    H     H_    0.787593 0.590057 0.058379 0.221227
C19   C     C_R   0.543030 0.385278 0.240899 -0.114639
C20   C     C_R   0.464780 0.376404 0.759836 -0.115399
H3    H     H_    0.570707 0.292177 0.219321 0.185246
H4    H     H_    0.463559 0.278915 0.782981 0.196340
C21   C     C_R   0.542149 0.383668 0.300102 -0.177868
C22   C     C_R   0.472949 0.375560 0.701033 -0.160175
H5    H     H_    0.571508 0.289687 0.323577 0.213323
H6    H     H_    0.473325 0.277274 0.679432 0.218774
C23   C     C_R   0.504625 0.502480 0.328612 -0.093830
C24   C     C_R   0.480579 0.500315 0.670673 -0.101782
C25   C     C_R   0.470839 0.624005 0.297059 -0.192298
C26   C     C_R   0.470067 0.626461 0.699638 -0.179852
H7    H     H_    0.444228 0.716818 0.318951 0.230080
H8    H     H_    0.466589 0.723504 0.676181 0.245008
C27   C     C_R   0.470055 0.627220 0.237314 0.360485
C28   C     C_R   0.461451 0.629265 0.758796 0.362554
C29   C     C_R   0.506447 0.505363 0.209196 0.231831
C30   C     C_R   0.461704 0.502070 0.789184 0.222798
C31   C     C_R   0.071522 0.376490 0.519804 0.235429
C32   C     C_R   0.931704 0.616193 0.484336 0.249840
C33   C     C_R   0.943249 0.369109 0.509517 0.223914
C34   C     C_R   0.057571 0.627079 0.502603 0.180785
C35   C     C_R   0.872336 0.491805 0.494603 -0.329564
C36   C     C_R   0.129804 0.503446 0.512017 -0.315949
C37   C     C_R   0.429428 0.077081 0.459019 0.064126
C38   C     C_R   0.576392 0.922413 0.538960 0.057934
C39   C     C_R   0.568980 0.070401 0.541903 0.053465
C40   C     C_R   0.418952 0.930182 0.462700 0.033006
N3    N     N_R   0.500000 0.852070 0.500000 -0.241183
N4    N     N_R   0.500000 0.147930 0.500000 -0.241044
C41   C     C_2   0.145781 0.434392 0.048386 0.978392
O13   O     O_2   0.108588 0.524117 0.079668 -0.496457
O14   O     O_R   0.071311 0.322779 0.032302 -0.708857
H9    H     H_    0.989879 0.326222 0.050307 0.360072
C42   C     C_2   0.806506 0.628330 0.949492 0.966387
O15   O     O_2   0.793969 0.726946 0.916204 -0.492978
O16   O     O_R   0.924496 0.573997 0.966952 -0.748402
H10   H     H_    0.991910 0.622852 0.948089 0.349630
N5    N     N_R   0.430444 0.753129 0.206424 0.149141
O17   O     O_R   0.459180 0.775435 0.154639 -0.318099
O18   O     O_R   0.369830 0.850388 0.231184 -0.294163
N6    N     N_R   0.453659 0.760904 0.787157 0.150997
O19   O     O_R   0.401513 0.772169 0.834703 -0.316437
O20   O     O_R   0.490738 0.872877 0.763350 -0.282381
N7    N     N_R   0.142051 0.255698 0.540858 0.188340
O21   O     O_R   0.206964 0.258767 0.590119 -0.321411
O22   O     O_R   0.147401 0.145626 0.509508 -0.201261
N8    N     N_R   0.873351 0.713261 0.442797 0.166890
O23   O     O_R   0.848291 0.672387 0.390518 -0.327844
O24   O     O_R   0.827456 0.831905 0.457840 -0.212673
N9    N     N_R   0.888197 0.235047 0.509273 0.197542
O25   O     O_R   0.832836 0.189324 0.461973 -0.273541
O26   O     O_R   0.915753 0.148097 0.551458 -0.216829
N10   N     N_R   0.105977 0.759227 0.520775 0.157482
O27   O     O_R   0.186378 0.763578 0.565232 -0.313730
O28   O     O_R   0.047615 0.874219 0.504688 -0.182488
C43   C     C_2   0.368823 0.148887 0.407542 0.920284
O29   O     O_2   0.283610 0.232537 0.411153 -0.510476
O30   O     O_R   0.403291 0.110520 0.353847 -0.762341
H11   H     H_    0.353012 0.161984 0.321470 0.359030
C44   C     C_2   0.668719 0.846714 0.578897 0.930098
O31   O     O_2   0.640439 0.806854 0.625247 -0.558961
O32   O     O_R   0.792090 0.837857 0.566886 -0.669276
H12   H     H_    0.847397 0.788462 0.598185 0.350939
C45   C     C_2   0.630938 0.135853 0.593480 0.893049
O33   O     O_2   0.702244 0.229885 0.589431 -0.524432
O34   O     O_R   0.610887 0.084586 0.647613 -0.734419
H13   H     H_    0.662331 0.132150 0.679493 0.354515
C46   C     C_2   0.308742 0.870574 0.429458 0.908999
O35   O     O_2   0.314828 0.761979 0.403965 -0.573216
O36   O     O_R   0.196767 0.946545 0.424222 -0.670429
H14   H     H_    0.129936 0.899899 0.398862 0.376817

loop_
_geom_bond_atom_site_label_1
_geom_bond_atom_site_label_2
_geom_bond_distance
_ccdc_geom_bond_type
N9    O25   1.301556 A    
C45   O33   1.216881 D    
C15   C17   1.397929 A    
O16   H10   1.013950 S    
O30   H11   1.013934 S    
C39   C45   1.486422 S    
O3    C2    1.312691 A    
C18   C42   1.481114 S    
C40   C46   1.500373 S    
C25   H7    1.081040 S    
Cu1   N3    2.037972 S    
O5    C3    1.306707 A    
C46   O36   1.397996 S    
C43   O29   1.220189 D    
O1    C1    1.307650 A    
C7    C9    1.401603 A    
C27   N5    1.444524 S    
C20   C22   1.392581 A    
C37   C43   1.481537 S    
C33   C35   1.417953 A    
C34   C36   1.413804 A    
C44   O31   1.219750 D    
C22   C24   1.401537 A    
O7    Cu1   1.939398 S    
N2    C29   1.433774 S    
C44   O32   1.394631 S    
C17   C41   1.480799 S    
C37   N4    1.374243 A    
O36   H14   1.014430 S    
C31   N7    1.435952 S    
O3    Cu1   1.964942 S    
C8    O12   1.349918 S    
C26   H8    1.080007 S    
C9    C15   1.400204 A    
C39   N4    1.383919 A    
C45   O34   1.398229 S    
C10   C16   1.400555 A    
C31   C36   1.411187 A    
O4    Cu2   1.964943 S    
C21   H5    1.082369 S    
O2    C2    1.300062 A    
C22   H6    1.078549 S    
C28   N6    1.442047 S    
N7    O22   1.299552 A    
C28   C30   1.413741 A    
C32   N8    1.439596 S    
C23   C25   1.403818 A    
C6    C14   1.416500 A    
C24   C26   1.405256 A    
C41   O13   1.223130 D    
N8    O23   1.300867 A    
C4    C24   1.477742 S    
O8    Cu2   1.939398 S    
C42   O16   1.396949 S    
N6    O19   1.301073 A    
N1    C7    1.364320 A    
C25   C27   1.403243 A    
C15   H1    1.084615 S    
N7    O21   1.301419 A    
C33   N9    1.438567 S    
C27   C29   1.416587 A    
C37   C40   1.426292 A    
N5    O17   1.300698 A    
C38   C39   1.429247 A    
C38   C44   1.483181 S    
N5    O18   1.301865 A    
N10   O28   1.298358 A    
O32   H12   1.014061 S    
C20   C30   1.399865 A    
C26   C28   1.401999 A    
O6    C4    1.310002 A    
Cu2   N4    2.037973 S    
N6    O20   1.301762 A    
C34   N10   1.444547 S    
C6    N2    1.367020 A    
C8    C10   1.400399 A    
C31   C33   1.396662 A    
C7    O11   1.349745 S    
C10   C12   1.409458 A    
C3    C23   1.472599 S    
O1    Cu1   1.976386 S    
C13   C18   1.423216 A    
C5    N1    1.367415 A    
O6    Cu2   1.942776 S    
C1    C36   1.475541 S    
C2    C35   1.471865 S    
C12   C14   1.420522 A    
O4    C1    1.307175 A    
C5    O9    1.348181 S    
C6    O10   1.347786 S    
C46   O35   1.213474 D    
C32   C35   1.406151 A    
C40   N3    1.387645 A    
C9    C11   1.408999 A    
C19   C29   1.400363 A    
C42   O15   1.223112 D    
C19   H3    1.082992 S    
C20   H4    1.083004 S    
N10   O27   1.302068 A    
C16   C18   1.397255 A    
C38   N3    1.375255 A    
C32   C34   1.402988 A    
N2    C8    1.364050 A    
C11   C13   1.419597 A    
C19   C21   1.392007 A    
O14   H9    1.014043 S    
O2    Cu2   1.976385 S    
O7    C4    1.306861 A    
C5    C13   1.415081 A    
O8    C3    1.307737 A    
C11   C12   1.415477 A    
O5    Cu1   1.942776 S    
C16   H2    1.084687 S    
C14   C17   1.424333 A    
C43   O30   1.397653 S    
O34   H13   1.014053 S    
N9    O26   1.301772 A    
C21   C23   1.400919 A    
N8    O24   1.299476 A    
C41   O14   1.397933 S    
Cu1   Cu2   2.711898 S    
N1    C30   1.434736 S    
