data_mof_unit_18918.cif
_audit_creation_date              2012-12-10T19:04:46-0500
_audit_creation_method            fapswitch 2.2
_symmetry_space_group_name_H-M    P1
_symmetry_Int_Tables_number       1
_space_group_crystal_system       triclinic
_cell_length_a                    15.834647
_cell_length_b                    10.821329
_cell_length_c                    9.598146
_cell_angle_alpha                 90.407434
_cell_angle_beta                  90.340592
_cell_angle_gamma                 90.888851
_cell_volume                      1644.39116054

loop_
_atom_site_label
_atom_site_type_symbol
_atom_type_description
_atom_site_fract_x
_atom_site_fract_y
_atom_site_fract_z
_atom_type_partial_charge
C1    C     C_R   0.500841 0.262565 0.499808 0.805469
C2    C     C_3   0.082743 0.498875 0.498706 0.193947
C3    C     C_3   0.973368 0.611333 0.537007 -0.162061
C4    C     C_3   0.917360 0.498801 0.499638 0.195525
C5    C     C_3   0.028512 0.583359 0.408218 -0.166344
C6    C     C_3   0.970960 0.470808 0.370819 -0.161252
C7    C     C_1   0.174490 0.499291 0.498757 -0.088785
C8    C     C_1   0.825578 0.499172 0.500432 -0.085163
C9    C     C_R   0.466319 0.063671 0.611986 0.141121
C10   C     C_R   0.498859 0.129075 0.498790 -0.089678
C11   C     C_R   0.525567 0.063749 0.380634 -0.227702
C12   C     C_R   0.339941 0.499865 0.499671 0.839962
C13   C     C_R   0.523889 0.935216 0.379682 -0.234800
C14   C     C_R   0.498175 0.870600 0.498924 -0.081862
C15   C     C_R   0.466421 0.936209 0.612209 0.112860
C16   C     C_3   0.490257 0.930912 0.762766 -0.491796
C17   C     C_3   0.490063 0.071117 0.762922 -0.438350
C18   C     C_R   0.549157 0.582304 0.074228 0.193808
C19   C     C_R   0.444082 0.427011 0.071390 -0.057208
C20   C     C_R   0.444785 0.426949 0.921111 0.461139
C21   C     C_R   0.548041 0.583757 0.927716 0.094833
C22   C     C_3   0.641290 0.602174 0.919586 -0.502747
C23   C     C_R   0.500565 0.737389 0.500255 0.776073
C24   C     C_3   0.643308 0.596965 0.077739 0.192363
C25   C     C_R   0.660081 0.500063 0.500342 0.815282
C26   C     C_3   0.971611 0.414272 0.590078 -0.153479
C27   C     C_3   0.026785 0.386299 0.461283 -0.162387
C28   C     C_1   0.250144 0.499653 0.499078 -0.168464
C29   C     C_1   0.749909 0.499618 0.500809 -0.169708
C30   C     C_3   0.029135 0.526827 0.627467 -0.153484
Cu1   Cu    Cu3+1 0.500000 0.499980 0.640670 0.986072
Cu2   Cu    Cu3+1 0.500000 0.500020 0.359330 0.978276
H1    H     H_    0.050191 0.294003 0.430178 0.122464
H2    H     H_    0.554016 0.891903 0.780091 0.201342
H3    H     H_    0.438831 0.110031 0.827664 0.217059
H4    H     H_    0.553646 0.113610 0.780813 0.202157
H5    H     H_    0.673676 0.523627 0.868602 0.237001
H6    H     H_    0.658615 0.694826 0.878377 0.148398
H7    H     H_    0.665355 0.683723 0.130475 0.080533
H8    H     H_    0.946864 0.344900 0.664731 0.126990
H9    H     H_    0.945665 0.447841 0.265503 0.126118
H10   H     H_    0.053303 0.652690 0.333555 0.124445
H11   H     H_    0.950061 0.703678 0.568104 0.125451
H12   H     H_    0.054417 0.549792 0.732790 0.126771
H13   H     H_    0.551473 0.111602 0.291695 0.163282
H14   H     H_    0.546899 0.886888 0.288584 0.156656
H15   H     H_    0.439159 0.889468 0.827105 0.197761
N1    N     N_R   0.500530 0.500930 0.147930 -0.187885
N2    N     N_R   0.500530 0.500890 0.852020 -0.182464
O1    O     O_R   0.500000 0.319640 0.618810 -0.534891
O2    O     O_R   0.500010 0.319680 0.381230 -0.573909
O3    O     O_R   0.379070 0.499970 0.618770 -0.525728
O4    O     O_R   0.379080 0.500010 0.381190 -0.584723
O5    O     O_R   0.499990 0.680320 0.618770 -0.580944
O6    O     O_R   0.500000 0.680360 0.381190 -0.599845
O7    O     O_R   0.620920 0.499990 0.618810 -0.593051
O8    O     O_R   0.620930 0.500030 0.381230 -0.521256
C31   C     C_R   0.383416 0.342873 0.140554 0.170192
C32   C     C_R   0.300082 0.380714 0.163769 -0.140066
C33   C     C_R   0.239638 0.296997 0.214200 -0.151748
C34   C     C_R   0.260962 0.173839 0.236244 -0.127091
C35   C     C_R   0.342076 0.133645 0.204422 -0.151897
C36   C     C_R   0.402514 0.217337 0.153936 -0.132688
H16   H     H_    0.282260 0.475201 0.143618 0.124979
H17   H     H_    0.176093 0.327360 0.234858 0.132574
H18   H     H_    0.214108 0.109002 0.274909 0.123794
H19   H     H_    0.357722 0.037314 0.216750 0.141824
H20   H     H_    0.463682 0.184399 0.122393 0.122234
O9    O     O_3   0.391995 0.352022 0.840810 -0.708593
H21   H     H_    0.348184 0.311394 0.897822 0.298567
O10   O     O_3   0.682981 0.489916 0.124485 -0.680975
H22   H     H_    0.744311 0.510080 0.126922 0.315701

loop_
_geom_bond_atom_site_label_1
_geom_bond_atom_site_label_2
_ccdc_geom_bond_type
C5    H10   S    
C18   C21   A    
C2    C7    S    
C25   O7    A    
Cu1   O3    S    
C4    C8    S    
C21   N2    A    
C27   H1    S    
C3    H11   S    
C32   H16   S    
C20   N2    A    
C35   H19   S    
C12   C28   S    
C18   C24   S    
C8    C29   T    
C13   H14   S    
C15   C16   S    
C22   H6    S    
C24   H7    S    
C16   H2    S    
C34   H18   S    
Cu1   Cu2   S    
C16   C17   S    
C6    H9    S    
C2    C27   S    
C17   H4    S    
Cu1   O7    S    
C1    O1    A    
Cu2   O6    S    
C12   O4    A    
C32   C33   A    
C13   C14   A    
Cu2   N1    S    
C30   H12   S    
O9    H21   S    
C25   O8    A    
Cu2   O8    S    
Cu1   N2    S    
C16   H15   S    
C12   O3    A    
C19   C31   S    
C25   C29   S    
C4    C6    S    
C19   N1    A    
C31   C32   A    
C22   H5    S    
C7    C28   T    
C33   C34   A    
C14   C23   S    
C3    C30   S    
Cu2   O2    S    
C35   C36   A    
C6    C27   S    
C26   C27   S    
C1    O2    A    
C9    C17   S    
C33   H17   S    
C26   C30   S    
C22   C24   S    
C20   O9    S    
C11   H13   S    
C2    C5    S    
Cu1   O1    S    
C3    C4    S    
Cu2   O4    S    
C23   O5    A    
C9    C10   A    
C31   C36   A    
C36   H20   S    
C1    C10   S    
C3    C5    S    
C18   N1    A    
C4    C26   S    
C23   O6    A    
C2    C30   S    
C19   C20   A    
C9    C15   A    
O10   H22   S    
C11   C13   A    
C26   H8    S    
C5    C6    S    
Cu1   O5    S    
C34   C35   A    
C10   C11   A    
C14   C15   A    
C17   H3    S    
C21   C22   S    
C24   O10   S    
