data_mof_unit_29836.cif
_audit_creation_date              2012-12-10T18:09:44-0500
_audit_creation_method            fapswitch 2.2
_symmetry_space_group_name_H-M    P1
_symmetry_Int_Tables_number       1
_space_group_crystal_system       triclinic
_cell_length_a                    10.628567
_cell_length_b                    12.595509
_cell_length_c                    13.150197
_cell_angle_alpha                 82.133765
_cell_angle_beta                  90.680949
_cell_angle_gamma                 102.507968
_cell_volume                      1702.20423273

loop_
_atom_site_label
_atom_site_type_symbol
_atom_type_description
_atom_site_fract_x
_atom_site_fract_y
_atom_site_fract_z
_atom_type_partial_charge
C1    C     C_R   0.479409 0.438597 0.691080 0.857356
C2    C     C_R   0.459851 0.444755 0.973299 0.105159
C3    C     C_R   0.431400 0.467124 0.868748 0.082499
C4    C     C_R   0.741826 0.499749 0.501670 0.844924
C5    C     C_R   0.463912 0.528509 0.035520 0.082710
C6    C     C_R   0.421683 0.625477 0.996947 0.098727
C7    C     C_R   0.373252 0.637170 0.898216 -0.224168
C8    C     C_R   0.377142 0.558527 0.834892 -0.200059
C9    C     C_R   0.512372 0.519626 0.134240 -0.348318
C10   C     C_R   0.472283 0.696696 0.158451 0.526095
C11   C     C_R   0.460716 0.398546 0.800446 -0.110746
C12   C     C_3   0.120643 0.496201 0.503549 0.107558
C13   C     C_R   0.316406 0.086996 0.350352 -0.316669
C14   C     C_R   0.655523 0.800138 0.627685 0.022952
C15   C     C_R   0.688635 0.905102 0.655086 -0.260740
C16   C     C_R   0.513776 0.561369 0.308391 0.888804
C17   C     C_R   0.629277 0.986393 0.607230 -0.203179
C18   C     C_R   0.535934 0.962593 0.531296 0.012669
C19   C     C_R   0.505943 0.854283 0.506158 0.202177
C20   C     C_R   0.472072 0.041513 0.478933 -0.019997
C21   C     C_R   0.379528 0.010377 0.403427 0.169986
C22   C     C_R   0.351663 0.903363 0.380864 -0.266030
C23   C     C_3   0.090903 0.575836 0.410064 -0.512763
C24   C     C_R   0.415015 0.826967 0.430976 -0.159746
C25   C     C_R   0.496258 0.150893 0.497811 -0.051531
C26   C     C_R   0.345338 0.193845 0.372315 -0.012228
C27   C     C_R   0.257896 0.498429 0.501962 0.844181
C28   C     C_3   0.897350 0.380752 0.495012 -0.438129
C29   C     C_3   0.040358 0.378059 0.496644 0.421523
C30   C     C_3   0.947275 0.578292 0.410656 -0.417079
C31   C     C_3   0.938062 0.533958 0.604475 -0.407741
C32   C     C_3   0.878403 0.498581 0.503055 0.123884
C33   C     C_3   0.586610 0.858218 0.198660 -0.317188
C34   C     C_3   0.082810 0.534886 0.603945 -0.372729
C35   C     C_3   0.047027 0.196761 0.557454 -0.310570
C36   C     C_R   0.428285 0.709421 0.057819 -0.303862
C37   C     C_R   0.506019 0.597283 0.198526 -0.177268
C38   C     C_R   0.488473 0.296687 0.838486 -0.191982
C39   C     C_R   0.495656 0.266326 0.943506 -0.153681
C40   C     C_R   0.484713 0.340275 0.010653 -0.198130
H1    H     H_    0.856303 0.353192 0.422245 0.142079
H2    H     H_    0.515562 0.187130 0.972780 0.139950
H3    H     H_    0.844836 0.321922 0.559623 0.193357
H4    H     H_    0.337287 0.570154 0.759131 0.165151
H5    H     H_    0.297594 0.254557 0.332313 0.129709
H6    H     H_    0.282080 0.878882 0.322864 0.171587
H7    H     H_    0.245851 0.064514 0.292497 0.143195
H8    H     H_    0.564037 0.182258 0.553689 0.119658
H9    H     H_    0.701279 0.736512 0.664500 0.134432
H10   H     H_    0.658519 0.066450 0.631131 0.132759
H11   H     H_    0.760118 0.923467 0.713140 0.145993
H12   H     H_    0.138048 0.619639 0.609734 0.175918
H13   H     H_    0.393237 0.747484 0.407419 0.241915
H14   H     H_    0.066633 0.353785 0.422223 0.055610
H15   H     H_    0.903635 0.554348 0.337493 0.162553
H16   H     H_    0.116956 0.549267 0.337238 0.163926
H17   H     H_    0.924458 0.617357 0.613599 0.179101
H18   H     H_    0.889626 0.476170 0.671256 0.167798
H19   H     H_    0.106197 0.480716 0.672443 0.190606
H20   H     H_    0.591810 0.898759 0.117645 0.152724
H21   H     H_    0.672956 0.822815 0.216725 0.161275
H22   H     H_    0.588205 0.922615 0.248655 0.197998
H23   H     H_    0.936279 0.663408 0.415440 0.191049
H24   H     H_    0.120881 0.191339 0.500408 0.174925
H25   H     H_    0.948488 0.168295 0.528274 0.146191
H26   H     H_    0.058316 0.140457 0.627911 0.192346
H27   H     H_    0.148827 0.660378 0.412539 0.202034
H28   H     H_    0.335386 0.708479 0.868957 0.146766
H29   H     H_    0.397171 0.784032 0.028216 0.153235
H30   H     H_    0.552894 0.450635 0.164452 0.176178
H31   H     H_    0.508390 0.241903 0.787004 0.151833
H32   H     H_    0.493474 0.312574 0.091204 0.134213
N1    N     N_R   0.433240 0.222190 0.444680 -0.098008
N2    N     N_R   0.566070 0.776970 0.554790 -0.131030
O1    O     O_R   0.468120 0.366740 0.627160 -0.606289
O2    O     O_3   0.065655 0.304454 0.582580 -0.597282
O3    O     O_R   0.510770 0.544830 0.662520 -0.621291
O4    O     O_R   0.663880 0.410950 0.482330 -0.630796
O5    O     O_R   0.706530 0.589040 0.517700 -0.629134
O6    O     O_R   0.489230 0.455170 0.337480 -0.622907
O7    O     O_R   0.531880 0.633260 0.372840 -0.592213
O8    O     O_R   0.293470 0.410960 0.482300 -0.600551
O9    O     O_R   0.336120 0.589050 0.517670 -0.661390
O10   O     O_3   0.471728 0.777681 0.219007 -0.621917
Zn1   Zn    Zn3+2 0.471520 0.381090 0.476390 0.936394
Zn2   Zn    Zn3+2 0.528480 0.618910 0.523610 0.923682

loop_
_geom_bond_atom_site_label_1
_geom_bond_atom_site_label_2
_ccdc_geom_bond_type
C12   C29   S    
C1    O3    A    
C1    C11   S    
C7    C8    A    
C29   O2    S    
C4    O4    A    
C12   C23   S    
C10   C37   A    
C14   N2    A    
C31   H18   S    
C28   C29   S    
C5    C6    A    
C14   H9    S    
C20   C25   A    
C35   H25   S    
C23   H27   S    
C28   H1    S    
C26   N1    A    
C18   C19   A    
C23   H16   S    
C26   H5    S    
C7    H28   S    
O1    Zn1   S    
C33   H22   S    
C35   H24   S    
C15   H11   S    
C25   N1    A    
O7    Zn2   S    
C16   C37   S    
C21   C22   A    
C39   H2    S    
C19   N2    A    
C35   O2    S    
C12   C27   S    
C1    O1    A    
C23   C30   S    
C28   C32   S    
C9    H30   S    
C4    O5    A    
C3    C8    A    
C39   C40   A    
C13   H7    S    
C35   H26   S    
C24   H13   S    
C16   O6    A    
C11   C38   A    
C5    C9    A    
O6    Zn1   S    
C31   C32   S    
C9    C37   A    
C17   C18   A    
C31   C34   S    
C13   C21   A    
N2    Zn2   S    
C25   H8    S    
N1    Zn1   S    
C4    C32   S    
O4    Zn1   S    
C22   H6    S    
O3    Zn2   S    
C33   H20   S    
C34   H19   S    
C22   C24   A    
C13   C26   A    
C2    C5    A    
C12   C34   S    
C36   H29   S    
C15   C17   A    
C38   H31   S    
C40   H32   S    
C27   O8    A    
C8    H4    S    
C17   H10   S    
C6    C7    A    
O8    Zn1   S    
C30   H15   S    
C28   H3    S    
C34   H12   S    
C31   H17   S    
C27   O9    A    
C2    C3    A    
C30   C32   S    
C38   C39   A    
C10   O10   S    
C16   O7    A    
C6    C36   A    
C19   C24   A    
C18   C20   A    
C33   O10   S    
C3    C11   A    
C2    C40   A    
O9    Zn2   S    
C20   C21   A    
C33   H21   S    
C29   H14   S    
C14   C15   A    
C10   C36   A    
C30   H23   S    
O5    Zn2   S    
