data_mof_unit_7432.cif
_audit_creation_date              2012-12-10T19:44:28-0500
_audit_creation_method            fapswitch 2.2
_symmetry_space_group_name_H-M    P1
_symmetry_Int_Tables_number       1
_space_group_crystal_system       triclinic
_cell_length_a                    10.85375
_cell_length_b                    12.295243
_cell_length_c                    13.220053
_cell_angle_alpha                 116.43545
_cell_angle_beta                  77.716838
_cell_angle_gamma                 100.559636
_cell_volume                      1535.64902703

loop_
_atom_site_label
_atom_site_type_symbol
_atom_type_description
_atom_site_fract_x
_atom_site_fract_y
_atom_site_fract_z
_atom_type_partial_charge
C1    C     C_R   0.517050 0.854811 0.285984 0.767635
C2    C     C_R   0.679258 0.743984 0.743890 -0.115211
C3    C     C_R   0.041712 0.939020 0.551809 -0.237747
C4    C     C_R   0.129566 0.002202 0.497631 -0.082871
C5    C     C_R   0.087210 0.067848 0.448966 -0.004012
C6    C     C_R   0.957981 0.066779 0.455170 -0.234701
C7    C     C_R   0.869936 0.001863 0.507670 -0.081847
C8    C     C_R   0.912208 0.937813 0.558225 -0.000714
C9    C     C_R   0.170221 0.262795 0.430317 -0.177562
C10   C     C_R   0.243105 0.326336 0.369115 -0.143471
C11   C     C_R   0.318519 0.264010 0.265563 -0.112562
C12   C     C_R   0.736733 0.001105 0.503728 0.780158
C13   C     C_R   0.319850 0.137722 0.222255 -0.140986
C14   C     C_R   0.246311 0.073534 0.282839 -0.100162
C15   C     C_R   0.172041 0.135926 0.387994 0.134142
C16   C     C_R   0.568457 0.278784 0.005025 -0.220745
C17   C     C_R   0.484824 0.228042 0.833061 -0.036817
C18   C     C_R   0.463304 0.817629 0.099560 -0.200758
C19   C     C_R   0.427899 0.737567 0.993959 -0.170798
C20   C     C_R   0.438409 0.613104 0.951297 -0.191227
C21   C     C_R   0.493184 0.567154 0.010718 0.081795
C22   C     C_R   0.538289 0.651683 0.113952 0.091955
C23   C     C_R   0.481962 0.145169 0.713115 0.785263
C24   C     C_R   0.505309 0.440665 0.971970 0.077443
C25   C     C_R   0.563160 0.402893 0.036254 0.159814
C26   C     C_R   0.621944 0.489419 0.127142 -0.242351
C27   C     C_R   0.612600 0.612511 0.163497 -0.202896
C28   C     C_R   0.466950 0.350546 0.869491 -0.243155
C29   C     C_R   0.527319 0.191467 0.904522 -0.209481
C30   C     C_R   0.512341 0.774825 0.163405 -0.091144
C31   C     C_R   0.721664 0.356832 0.347296 0.339388
C32   C     C_R   0.323476 0.757610 0.640870 0.075969
C33   C     C_R   0.285128 0.660539 0.671629 -0.280576
C34   C     C_R   0.263064 0.000033 0.497893 0.791107
C35   C     C_R   0.352521 0.558222 0.620038 -0.215626
C36   C     C_R   0.460261 0.552382 0.537200 0.025156
C37   C     C_R   0.496767 0.655118 0.510455 0.309928
C38   C     C_R   0.533507 0.449345 0.479992 -0.095640
C39   C     C_R   0.646753 0.455540 0.404757 0.071628
C40   C     C_R   0.683313 0.560271 0.386115 -0.267083
C41   C     C_R   0.606498 0.653966 0.432958 -0.184902
C42   C     C_R   0.499827 0.340127 0.494198 0.027812
C43   C     C_R   0.682593 0.252537 0.367826 -0.048820
C44   C     C_R   0.665462 0.866625 0.777632 -0.132743
C45   C     C_R   0.740077 0.930229 0.716892 -0.087635
C46   C     C_R   0.827632 0.870434 0.620445 0.118165
C47   C     C_R   0.842583 0.747634 0.588889 -0.155966
C48   C     C_R   0.768401 0.684806 0.650160 -0.123304
Cu1   Cu    Cu3+1 0.529370 0.098270 0.475420 0.936235
Cu2   Cu    Cu3+1 0.470630 0.901730 0.524580 0.931836
H1    H     H_    0.621530 0.694900 0.790713 0.143715
H2    H     H_    0.375076 0.313479 0.218516 0.142821
H3    H     H_    0.376717 0.089671 0.141003 0.114302
H4    H     H_    0.245626 0.975358 0.247577 0.108078
H5    H     H_    0.538193 0.096764 0.878436 0.140259
H6    H     H_    0.678663 0.460722 0.166938 0.160942
H7    H     H_    0.609401 0.249733 0.055867 0.124456
H8    H     H_    0.429815 0.373378 0.812786 0.132167
H9    H     H_    0.447395 0.912454 0.133538 0.144287
H10   H     H_    0.403977 0.556045 0.871388 0.125368
H11   H     H_    0.387755 0.771570 0.946581 0.141017
H12   H     H_    0.597633 0.912203 0.851567 0.113639
H13   H     H_    0.667668 0.678128 0.227591 0.129244
H14   H     H_    0.739881 0.176983 0.330357 0.135452
H15   H     H_    0.770427 0.569171 0.331187 0.187926
H16   H     H_    0.415870 0.327596 0.549848 0.134611
H17   H     H_    0.270434 0.836472 0.681264 0.125721
H18   H     H_    0.319183 0.485974 0.647344 0.132384
H19   H     H_    0.202853 0.664582 0.735553 0.146516
H20   H     H_    0.636528 0.724411 0.405831 0.198547
H21   H     H_    0.730433 0.025859 0.744933 0.108302
H22   H     H_    0.911179 0.700242 0.516190 0.141604
H23   H     H_    0.779604 0.589975 0.624520 0.140728
H24   H     H_    0.073948 0.891896 0.592389 0.156124
H25   H     H_    0.926399 0.114969 0.415275 0.153953
H26   H     H_    0.111678 0.312176 0.510230 0.132067
H27   H     H_    0.240880 0.423903 0.401802 0.152344
N1    N     N_R   0.573890 0.246290 0.438210 -0.201397
N2    N     N_R   0.426890 0.754320 0.561170 -0.205709
O1    O     O_R   0.536940 0.972510 0.318130 -0.578419
O2    O     O_R   0.487330 0.806530 0.359650 -0.585757
O3    O     O_R   0.705160 0.082990 0.479250 -0.585569
O4    O     O_R   0.655550 0.917010 0.520760 -0.599362
O5    O     O_R   0.512670 0.193470 0.640350 -0.580329
O6    O     O_R   0.463060 0.027490 0.681870 -0.590415
O7    O     O_R   0.344450 0.082990 0.479240 -0.576966
O8    O     O_R   0.294840 0.917010 0.520750 -0.591149
O9    O     O_3   0.837907 0.371083 0.282862 -0.628230
C49   C     C_3   0.862657 0.266782 0.178773 0.020052
H28   H     H_    0.887819 0.297654 0.109052 0.165306
H29   H     H_    0.779781 0.196524 0.155998 0.115322
C50   C     C_3   0.976499 0.211160 0.181561 -0.305358
H30   H     H_    0.060575 0.280187 0.194042 0.235079
H31   H     H_    0.956820 0.185380 0.254383 0.208157
C51   C     C_3   0.007144 0.098373 0.071026 -0.923846
H32   H     H_    0.925346 0.026924 0.058086 0.254987
H33   H     H_    0.090429 0.061095 0.075836 0.260442
H34   H     H_    0.029950 0.122426 0.997005 0.254668

loop_
_geom_bond_atom_site_label_1
_geom_bond_atom_site_label_2
_ccdc_geom_bond_type
C45   H21   S    
C51   H32   S    
C17   C29   A    
C35   C36   A    
Cu2   N2    S    
C51   H34   S    
C7    C8    A    
C45   C46   A    
C43   N1    A    
C37   N2    A    
C26   C27   A    
C17   C23   S    
C31   C43   A    
Cu1   O5    S    
C36   C37   A    
C38   C42   A    
C5    C6    A    
C1    O2    A    
Cu1   N1    S    
C18   C19   A    
C34   O7    A    
C3    H24   S    
C50   H30   S    
C11   H2    S    
Cu2   O6    S    
C19   C20   A    
C2    C44   A    
Cu2   O4    S    
C18   C30   A    
C9    H26   S    
C49   H29   S    
C9    C10   A    
C33   H19   S    
C34   O8    A    
C21   C22   A    
C37   C41   A    
C48   H23   S    
C10   H27   S    
C43   H14   S    
C13   H3    S    
C7    C12   S    
C4    C34   S    
C23   O5    A    
C6    H25   S    
C24   C25   A    
C3    C8    A    
C2    H1    S    
C39   C40   A    
C29   H5    S    
C2    C48   A    
C16   C29   A    
C50   C51   S    
C12   O4    A    
Cu1   O3    S    
C47   C48   A    
C50   H31   S    
C12   O3    A    
C20   C21   A    
C49   C50   S    
C27   H13   S    
Cu2   O8    S    
C32   H17   S    
C40   C41   A    
C14   H4    S    
C42   N1    A    
C22   C27   A    
C20   H10   S    
C3    C4    A    
C44   C45   A    
C16   C25   A    
C46   C47   A    
C31   O9    S    
C22   C30   A    
C17   C28   A    
Cu1   O7    S    
C24   C28   A    
C4    C5    A    
C26   H6    S    
C51   H33   S    
C6    C7    A    
C28   H8    S    
Cu1   O1    S    
C40   H15   S    
C44   H12   S    
C32   C33   A    
C36   C38   A    
C25   C26   A    
C32   N2    A    
C11   C13   A    
C38   C39   A    
C35   H18   S    
C19   H11   S    
C1    C30   S    
C33   C35   A    
C31   C39   A    
C16   H7    S    
C9    C15   A    
C8    C46   S    
C47   H22   S    
C5    C15   S    
C10   C11   A    
C18   H9    S    
O9    C49   S    
Cu1   Cu2   S    
C23   O6    A    
C21   C24   A    
C42   H16   S    
C1    O1    A    
C14   C15   A    
C49   H28   S    
C13   C14   A    
Cu2   O2    S    
C41   H20   S    
