data_mof_unit_40007.cif
_audit_creation_date              2012-12-10T16:47:30-0500
_audit_creation_method            fapswitch 2.2
_symmetry_space_group_name_H-M    P1
_symmetry_Int_Tables_number       1
_space_group_crystal_system       triclinic
_cell_length_a                    10.599417
_cell_length_b                    8.685678
_cell_length_c                    7.46505
_cell_angle_alpha                 102.843489
_cell_angle_beta                  94.730558
_cell_angle_gamma                 92.474302
_cell_volume                      666.439681949

loop_
_atom_site_label
_atom_site_type_symbol
_atom_type_description
_atom_site_fract_x
_atom_site_fract_y
_atom_site_fract_z
_atom_type_partial_charge
C1    C     C_R   0.496179 0.199807 0.453362 0.880618
C2    C     C_R   0.503821 0.800193 0.546638 0.880619
C3    C     C_R   0.259435 0.499683 0.501104 0.777938
C4    C     C_R   0.740565 0.500317 0.498896 0.777938
C5    C     C_3   0.040967 0.379003 0.569677 -0.180049
C6    C     C_3   0.959033 0.620996 0.430323 -0.180049
C7    C     C_3   0.947496 0.362305 0.394971 -0.169897
C8    C     C_3   0.052503 0.637695 0.605029 -0.169897
C9    C     C_3   0.877408 0.500092 0.498364 0.031005
C10   C     C_3   0.122592 0.499908 0.501636 0.031005
C11   C     C_3   0.968610 0.516828 0.673480 -0.130497
C12   C     C_3   0.031390 0.483172 0.326520 -0.130496
C13   C     C_2   0.494366 0.031942 0.427120 -0.378837
C14   C     C_2   0.505634 0.968058 0.572880 -0.378837
Cu1   Cu    Cu3+1 0.514140 0.517380 0.684380 0.942553
Cu2   Cu    Cu3+1 0.485860 0.482620 0.315620 0.942553
H1    H     H_    0.901264 0.250012 0.308862 0.128434
H2    H     H_    0.098736 0.749988 0.691138 0.128434
H3    H     H_    0.399768 0.378812 0.948622 0.222524
H4    H     H_    0.600231 0.621188 0.051378 0.222525
N1    N     N_2   0.464560 0.456420 0.038510 -0.217314
N2    N     N_2   0.535440 0.543580 0.961490 -0.217314
O1    O     O_R   0.509190 0.286130 0.619780 -0.582473
O2    O     O_R   0.490810 0.713870 0.380220 -0.582474
O3    O     O_R   0.485310 0.256770 0.308360 -0.586974
O4    O     O_R   0.514690 0.743230 0.691640 -0.586974
O5    O     O_R   0.328790 0.514640 0.655680 -0.590070
O6    O     O_R   0.671210 0.485360 0.344320 -0.590070
O7    O     O_R   0.304910 0.485280 0.344260 -0.588237
O8    O     O_R   0.695090 0.514720 0.655740 -0.588237
H5    H     H_    0.077771 0.280451 0.627052 0.124129
H6    H     H_    0.922229 0.719549 0.372948 0.124129
H7    H     H_    0.940508 0.530605 0.815979 0.137375
H8    H     H_    0.059492 0.469395 0.184021 0.137375
H9    H     H_    0.483746 0.960553 0.286571 0.179773
H10   H     H_    0.516254 0.039447 0.713429 0.179773

loop_
_geom_bond_atom_site_label_1
_geom_bond_atom_site_label_2
_ccdc_geom_bond_type
Cu2   O6    S    
C6    H6    S    
C8    C10   S    
C1    O1    A    
Cu2   N1    S    
C2    O2    A    
Cu1   O5    S    
C6    C9    S    
Cu1   O1    S    
Cu2   O7    S    
C5    C10   S    
C2    O4    A    
C3    C10   S    
C13   C14   D    
C1    O3    A    
C9    C11   S    
C10   C12   S    
C8    C11   S    
C6    C12   S    
C3    O5    A    
C4    O6    A    
H4    N2    S    
C5    C11   S    
C5    C7    S    
Cu1   N2    S    
C14   H10   S    
C7    C12   S    
C2    C14   S    
C4    O8    A    
C1    C13   S    
C12   H8    S    
Cu1   Cu2   S    
C7    C9    S    
C11   H7    S    
Cu1   O8    S    
Cu2   O2    S    
Cu2   O3    S    
C3    O7    A    
Cu1   O4    S    
C6    C8    S    
H3    N1    S    
C4    C9    S    
N1    N2    D    
C13   H9    S    
C8    H2    S    
C5    H5    S    
C7    H1    S    
