data_mof_unit_34217.cif
_audit_creation_date              2012-12-11T16:05:09-0500
_audit_creation_method            fapswitch 2.2
_symmetry_space_group_name_H-M    P1
_symmetry_Int_Tables_number       1
_space_group_crystal_system       triclinic
_cell_length_a                    10.680922
_cell_length_b                    10.635163
_cell_length_c                    16.930434
_cell_angle_alpha                 98.600259
_cell_angle_beta                  98.638872
_cell_angle_gamma                 61.493275
_cell_volume                      1664.12419835

loop_
_atom_site_label
_atom_site_type_symbol
_atom_type_description
_atom_site_fract_x
_atom_site_fract_y
_atom_site_fract_z
_atom_type_partial_charge
C1    C     C_R   0.354987 0.774780 0.398392 0.539208
C2    C     C_3   0.415839 0.685067 0.252862 -0.112648
C3    C     C_3   0.348792 0.809144 0.318016 0.056789
C4    C     C_R   0.371555 0.347386 0.358495 0.538199
C5    C     C_3   0.409731 0.894795 0.287083 -0.125159
C6    C     C_3   0.269139 0.964435 0.232949 -0.113147
C7    C     C_3   0.209221 0.877483 0.264985 -0.122448
C8    C     C_3   0.274718 0.754678 0.198976 -0.115232
C9    C     C_3   0.333805 0.841270 0.167189 0.057584
C10   C     C_3   0.459589 0.264211 0.776025 -0.113490
C11   C     C_3   0.395176 0.404832 0.735219 -0.108140
C12   C     C_3   0.761738 0.292566 0.248536 -0.118743
C13   C     C_3   0.337302 0.333989 0.663394 0.053937
C14   C     C_3   0.401737 0.194208 0.703587 -0.112808
C15   C     C_3   0.259238 0.251903 0.741072 -0.111338
C16   C     C_R   0.776538 0.377105 0.401695 0.545396
C17   C     C_3   0.195002 0.392680 0.699705 -0.123674
C18   C     C_3   0.252709 0.462405 0.773099 -0.121278
C19   C     C_3   0.317973 0.321976 0.812817 0.053766
C20   C     C_1   0.817380 0.341633 0.709583 -0.044921
C21   C     C_1   0.843761 0.314978 0.778120 -0.047811
C22   C     C_1   0.338224 0.812021 0.709763 -0.047633
C23   C     C_3   0.830932 0.342956 0.323964 0.057787
C24   C     C_1   0.313271 0.839247 0.778519 -0.045954
C25   C     C_R   0.957709 0.284751 0.102487 0.555339
C26   C     C_R   0.319681 0.300301 0.119926 0.533837
C27   C     C_R   0.297858 0.885532 0.086527 0.533351
C28   C     C_R   0.356654 0.771294 0.627217 0.542531
C29   C     C_R   0.884733 0.299590 0.860922 0.552701
C30   C     C_R   0.308115 0.294457 0.891945 0.544070
C31   C     C_R   0.280023 0.884769 0.859024 0.542920
C32   C     C_R   0.367072 0.345453 0.585194 0.539882
C33   C     C_R   0.774186 0.379371 0.629590 0.542464
C34   C     C_3   0.980950 0.235929 0.301903 -0.150661
C35   C     C_1   0.346083 0.337792 0.274675 -0.065244
C36   C     C_1   0.333733 0.328008 0.203459 -0.064136
C37   C     C_3   0.913141 0.184489 0.224728 -0.122850
C38   C     C_3   0.980903 0.352375 0.256827 -0.137521
C39   C     C_3   0.829568 0.459996 0.279915 -0.102274
C40   C     C_3   0.762007 0.408384 0.203727 -0.114576
C41   C     C_3   0.912758 0.301408 0.181535 0.055801
C42   C     C_3   0.475008 0.772714 0.219835 -0.127813
Cr1   Cr    Cr6+3 0.608340 0.611040 0.520430 1.020917
Cr2   Cr    Cr6+3 0.287650 0.601120 0.489350 1.024929
Cr3   Cr    Cr6+3 0.604040 0.287870 0.490280 1.021476
Cr4   Cr    Cr6+3 0.054020 0.052700 0.970850 1.021392
Cr5   Cr    Cr6+3 0.059230 0.375120 0.993390 1.019627
Cr6   Cr    Cr6+3 0.374950 0.061200 0.992340 1.025000
H1    H     H_    0.671063 0.268440 0.247176 0.129219
H2    H     H_    0.943339 0.073756 0.197044 0.131513
H3    H     H_    0.067864 0.168439 0.345212 0.109842
H4    H     H_    0.069943 0.378385 0.258270 0.115881
H5    H     H_    0.794813 0.573807 0.303477 0.132349
H6    H     H_    0.475626 0.569740 0.263950 0.110968
H7    H     H_    0.582591 0.731164 0.199039 0.114485
H8    H     H_    0.462721 0.953445 0.325171 0.128781
H9    H     H_    0.193697 0.571527 0.803684 0.132359
H10   H     H_    0.674312 0.475823 0.160783 0.120256
H11   H     H_    0.214560 0.079024 0.221012 0.108487
H12   H     H_    0.103137 0.917050 0.287270 0.121003
H13   H     H_    0.221299 0.695847 0.161498 0.125947
H14   H     H_    0.451631 0.467921 0.730745 0.115824
H15   H     H_    0.567536 0.213768 0.808902 0.130456
H16   H     H_    0.460852 0.084650 0.673483 0.130020
H17   H     H_    0.202794 0.188892 0.745731 0.114499
H18   H     H_    0.087565 0.443098 0.666314 0.131946
O1    O     O_R   0.751220 0.499230 0.435170 -0.523317
O2    O     O_R   0.412990 0.180750 0.091610 -0.505673
O3    O     O_R   0.366620 0.943130 0.065760 -0.500664
O4    O     O_R   0.477220 0.727600 0.436870 -0.504102
O5    O     O_R   0.160510 0.906330 0.879210 -0.511307
O6    O     O_R   0.930190 0.179050 0.889450 -0.492038
O7    O     O_R   0.909140 0.398170 0.896710 -0.503018
O8    O     O_R   0.186190 0.363460 0.918830 -0.501493
O9    O     O_R   0.401670 0.173200 0.913310 -0.513079
O10   O     O_R   0.356120 0.936130 0.900470 -0.493937
O11   O     O_3   0.162740 0.163010 0.985530 -0.277693
O12   O     O_R   0.297880 0.469080 0.560050 -0.500248
O13   O     O_R   0.258650 0.745120 0.411470 -0.517325
O14   O     O_R   0.297070 0.467240 0.395960 -0.497793
O15   O     O_R   0.488830 0.252610 0.387790 -0.518707
O16   O     O_R   0.724400 0.302390 0.420980 -0.504279
O17   O     O_R   0.752100 0.501210 0.612190 -0.510687
O18   O     O_R   0.478040 0.729440 0.600970 -0.498338
O19   O     O_R   0.259530 0.747110 0.588490 -0.507664
O20   O     O_R   0.489720 0.254590 0.564810 -0.517112
O21   O     O_R   0.725220 0.304230 0.585080 -0.495515
O22   O     O_3   0.500010 0.500010 0.500020 -0.258501
O23   O     O_R   0.171830 0.913880 0.057510 -0.528419
O24   O     O_R   0.940690 0.186050 0.054730 -0.499255
O25   O     O_R   0.920470 0.405720 0.075010 -0.514297
O26   O     O_R   0.196690 0.370460 0.084120 -0.518775

loop_
_geom_bond_atom_site_label_1
_geom_bond_atom_site_label_2
_ccdc_geom_bond_type
C5    C42   S    
C11   C18   S    
C30   O9    A    
C28   O18   A    
C34   C37   S    
Cr1   O17   S    
Cr5   O26   S    
Cr6   O10   S    
C13   C32   S    
Cr3   O16   S    
Cr6   O3    S    
C11   H14   S    
C6    C9    S    
C12   H1    S    
Cr3   O20   S    
C7    C8    S    
Cr4   O23   S    
C39   H5    S    
C15   C19   S    
C12   C23   S    
C34   H3    S    
Cr1   O22   S    
Cr3   O21   S    
C4    O14   A    
C3    C7    S    
C38   C39   S    
C30   O8    A    
C38   H4    S    
C26   O26   A    
C15   H17   S    
C18   C19   S    
C12   C37   S    
C5    H8    S    
C4    O15   A    
C10   H15   S    
C8    C9    S    
Cr4   O6    S    
C27   O3    A    
C8    H13   S    
C29   O6    A    
C31   O5    A    
C4    C35   S    
C32   O20   A    
C22   C28   S    
C13   C14   S    
C37   C41   S    
Cr1   O18   S    
Cr6   O9    S    
Cr3   O15   S    
C25   O25   A    
C40   H10   S    
Cr2   O14   S    
Cr3   O22   S    
Cr5   O7    S    
C38   C41   S    
C2    H6    S    
C25   C41   S    
C39   C40   S    
C21   C29   S    
C1    C3    S    
C35   C36   T    
Cr6   O11   S    
C12   C40   S    
C42   H7    S    
C18   H9    S    
C10   C19   S    
C23   C34   S    
C14   H16   S    
C16   O16   A    
C17   C18   S    
C9    C42   S    
C16   O1    A    
Cr6   O2    S    
C33   O17   A    
Cr4   O5    S    
C20   C33   S    
C26   C36   S    
C40   C41   S    
C25   O24   A    
Cr1   O4    S    
C10   C14   S    
C1    O13   A    
C22   C24   T    
Cr5   O11   S    
Cr2   O19   S    
C7    H12   S    
C9    C27   S    
C15   C17   S    
C34   C38   S    
Cr5   O25   S    
C6    H11   S    
Cr2   O13   S    
C2    C8    S    
Cr5   O8    S    
C3    C5    S    
Cr4   O11   S    
C6    C7    S    
Cr4   O24   S    
C16   C23   S    
C1    O4    A    
C13   C17   S    
C26   O2    A    
Cr2   O12   S    
C2    C3    S    
C33   O21   A    
C24   C31   S    
C37   H2    S    
C11   C13   S    
C31   O10   A    
C5    C6    S    
C2    C42   S    
C23   C39   S    
C27   O23   A    
C17   H18   S    
C10   C11   S    
C32   O12   A    
C29   O7    A    
C20   C21   T    
Cr1   O1    S    
C28   O19   A    
C14   C15   S    
Cr2   O22   S    
C19   C30   S    
