data_mof_unit_19538.cif
_audit_creation_date              2012-10-26T19:03:31-0400
_audit_creation_method            fapswitch 2.2
_symmetry_space_group_name_H-M    P1
_symmetry_Int_Tables_number       1
_space_group_crystal_system       triclinic
_cell_length_a                    10.771174
_cell_length_b                    13.001554
_cell_length_c                    11.723382
_cell_angle_alpha                 99.486929
_cell_angle_beta                  93.10113
_cell_angle_gamma                 91.338373
_cell_volume                      1616.07211847

loop_
_atom_site_label
_atom_site_type_symbol
_atom_type_description
_atom_site_fract_x
_atom_site_fract_y
_atom_site_fract_z
_atom_type_partial_charge
C1    C     C_R   0.498115 0.299273 0.478908 0.541338
C2    C     C_R   0.492986 0.123786 0.357100 -0.122003
C3    C     C_R   0.500812 0.139535 0.566739 -0.080512
C4    C     C_R   0.262861 0.501842 0.500970 0.537667
C5    C     C_R   0.500809 0.031320 0.557549 0.095779
C6    C     C_R   0.496880 0.969256 0.446094 0.003377
C7    C     C_R   0.497122 0.861368 0.435230 -0.132049
C8    C     C_R   0.505444 0.875243 0.644536 -0.146441
C9    C     C_R   0.504833 0.984239 0.657418 0.246431
C10   C     C_R   0.400224 0.386145 0.021973 0.190577
C11   C     C_R   0.408994 0.399618 0.144989 0.021069
C12   C     C_R   0.070834 0.595430 0.557065 -0.017286
C13   C     C_R   0.537421 0.552158 0.154861 0.372648
C14   C     C_R   0.531231 0.541961 0.032603 0.015987
C15   C     C_R   0.462902 0.458045 0.965259 0.015204
C16   C     C_R   0.501566 0.700726 0.521202 0.531750
C17   C     C_R   0.459802 0.448901 0.842552 0.089389
C18   C     C_R   0.590186 0.600169 0.855111 0.027217
C19   C     C_R   0.595177 0.613142 0.976164 -0.136624
C20   C     C_R   0.737283 0.501086 0.499331 0.523702
C21   C     C_R   0.139632 0.686167 0.610764 -0.089892
C22   C     C_R   0.079194 0.775263 0.662047 0.263513
C23   C     C_R   0.129511 0.506202 0.502508 -0.036219
C24   C     C_R   0.949689 0.773979 0.658922 -0.046830
C25   C     C_R   0.880429 0.685498 0.605627 -0.153560
C26   C     C_R   0.939702 0.594734 0.554495 -0.017599
C27   C     C_R   0.060808 0.419364 0.444504 -0.068202
C28   C     C_R   0.932446 0.416036 0.443261 0.229888
C29   C     C_R   0.871290 0.504101 0.498599 0.010467
C30   C     C_R   0.501545 0.814078 0.533920 -0.038424
C31   C     C_R   0.497192 0.185945 0.467116 -0.019788
C32   C     C_R   0.492831 0.015891 0.346674 -0.120203
Cu1   Cu    Cu3+1 0.509250 0.507730 0.615930 0.945869
Cu2   Cu    Cu3+1 0.490750 0.492270 0.384070 0.965973
H1    H     H_    0.361555 0.344602 0.188879 0.123603
H2    H     H_    0.639465 0.655470 0.812978 0.128111
H3    H     H_    0.294994 0.260807 0.009503 0.332041
H4    H     H_    0.649489 0.678601 0.024810 0.161058
H5    H     H_    0.648807 0.613491 0.282572 0.371273
H6    H     H_    0.234409 0.853525 0.709600 0.324963
H7    H     H_    0.902081 0.842468 0.697358 0.149058
H8    H     H_    0.780230 0.689808 0.603871 0.129851
H9    H     H_    0.783773 0.323748 0.408195 0.340533
H10   H     H_    0.508547 0.838407 0.721026 0.114802
H11   H     H_    0.240114 0.689155 0.612077 0.120087
H12   H     H_    0.493990 0.814364 0.349582 0.175362
H13   H     H_    0.489753 0.968972 0.261022 0.127672
H14   H     H_    0.107914 0.351906 0.402186 0.150644
H15   H     H_    0.510315 0.999946 0.825841 0.329240
H16   H     H_    0.490096 0.158410 0.279092 0.142913
H17   H     H_    0.503740 0.187907 0.651525 0.194597
H18   H     H_    0.406130 0.386004 0.788631 0.182746
N1    N     N_R   0.523180 0.519350 0.790130 -0.247470
N2    N     N_R   0.476820 0.480650 0.209890 -0.252491
O1    O     O_R   0.506570 0.354460 0.582000 -0.509749
O2    O     O_3   0.332252 0.303540 0.956666 -0.691168
O3    O     O_3   0.604934 0.636384 0.216166 -0.717439
O4    O     O_3   0.144005 0.864837 0.714711 -0.674580
O5    O     O_3   0.871901 0.324580 0.388855 -0.681000
O6    O     O_R   0.490940 0.341410 0.386200 -0.514728
O7    O     O_R   0.327470 0.506530 0.597920 -0.498405
O8    O     O_R   0.311840 0.493480 0.402120 -0.496709
O9    O     O_R   0.509060 0.658590 0.613800 -0.529308
O10   O     O_R   0.493430 0.645540 0.418000 -0.484611
O11   O     O_R   0.688160 0.506520 0.597880 -0.494963
O12   O     O_R   0.672530 0.493470 0.402080 -0.520182
O13   O     O_3   0.508103 0.045557 0.765829 -0.687967

loop_
_geom_bond_atom_site_label_1
_geom_bond_atom_site_label_2
_ccdc_geom_bond_type
C25   H8    S    
Cu1   O1    S    
C2    H16   S    
C6    C32   A    
C9    O13   S    
C5    C9    A    
C6    C7    A    
C19   H4    S    
C4    O8    A    
C8    C9    A    
C10   O2    S    
C13   N2    A    
H9    O5    S    
Cu1   O9    S    
C25   C26   A    
C8    C30   A    
Cu2   O12   S    
C11   H1    S    
Cu1   Cu2   S    
C1    O1    A    
Cu1   O11   S    
C4    O7    A    
C7    C30   A    
C21   C22   A    
C3    C31   A    
Cu2   O6    S    
C24   H7    S    
C12   C23   A    
C22   O4    S    
C11   N2    A    
C2    C32   A    
H15   O13   S    
C17   H18   S    
Cu2   O10   S    
C28   C29   A    
C16   O9    A    
Cu2   N2    S    
C21   H11   S    
C20   C29   S    
C27   H14   S    
Cu1   N1    S    
C5    C6    A    
C32   H13   S    
C22   C24   A    
C28   O5    S    
H6    O4    S    
C10   C11   A    
C16   C30   S    
H5    O3    S    
C7    H12   S    
C17   N1    A    
C20   O11   A    
C1    C31   S    
C13   O3    S    
C24   C25   A    
C26   C29   A    
Cu1   O7    S    
C18   C19   A    
C1    O6    A    
C20   O12   A    
C27   C28   A    
C15   C17   A    
C4    C23   S    
C3    H17   S    
C14   C15   A    
C14   C19   A    
C16   O10   A    
C18   N1    A    
C10   C15   A    
C13   C14   A    
H3    O2    S    
C18   H2    S    
C12   C21   A    
Cu2   O8    S    
C23   C27   A    
C8    H10   S    
C12   C26   A    
C2    C31   A    
C3    C5    A    
