data_mof_unit_6807.cif
_audit_creation_date              2012-12-10T19:01:19-0500
_audit_creation_method            fapswitch 2.2
_symmetry_space_group_name_H-M    P1
_symmetry_Int_Tables_number       1
_space_group_crystal_system       triclinic
_cell_length_a                    9.590414
_cell_length_b                    10.783941
_cell_length_c                    15.584323
_cell_angle_alpha                 89.513968
_cell_angle_beta                  74.026621
_cell_angle_gamma                 90.256798
_cell_volume                      1549.44335305

loop_
_atom_site_label
_atom_site_type_symbol
_atom_type_description
_atom_site_fract_x
_atom_site_fract_y
_atom_site_fract_z
_atom_type_partial_charge
C1    C     C_R   0.999181 0.262796 0.500572 0.796822
C2    C     C_R   0.670676 0.514601 0.905300 0.092897
C3    C     C_R   0.769695 0.555768 0.952089 0.169058
C4    C     C_R   0.520372 0.501295 0.951097 0.067809
C5    C     C_R   0.473784 0.520373 0.044951 0.067431
C6    C     C_R   0.576628 0.561681 0.088570 -0.224234
C7    C     C_R   0.721141 0.579513 0.042863 -0.243480
C8    C     C_R   0.414590 0.473140 0.906006 -0.223138
C9    C     C_R   0.268875 0.460821 0.951617 -0.243557
C10   C     C_R   0.222767 0.474077 0.043808 0.168740
C11   C     C_R   0.324941 0.501164 0.091725 0.091683
C12   C     C_R   0.917951 0.501087 0.671704 0.793490
C13   C     C_R   0.075093 0.459670 0.088835 -0.214692
C14   C     C_R   0.027278 0.471435 0.181244 -0.200861
C15   C     C_R   0.274799 0.505291 0.185267 -0.256980
C16   C     C_R   0.096632 0.066502 0.432315 0.114797
C17   C     C_R   0.996387 0.129835 0.498772 -0.071872
C18   C     C_R   0.885571 0.063418 0.559513 -0.223784
C19   C     C_R   0.888078 0.933949 0.560135 -0.225450
C20   C     C_R   0.999592 0.871110 0.499086 -0.085089
C21   C     C_R   0.098318 0.938612 0.432243 0.105808
C22   C     C_3   0.260159 0.937169 0.404079 -0.504756
C23   C     C_R   0.000481 0.737501 0.499659 0.795483
C24   C     C_3   0.257572 0.077640 0.402838 -0.456403
C25   C     C_R   0.604639 0.542509 0.427839 0.242642
C26   C     C_R   0.543185 0.449088 0.568831 -0.095943
C27   C     C_R   0.394323 0.450928 0.569514 -0.095740
C28   C     C_R   0.459701 0.533194 0.425083 0.231390
C29   C     C_3   0.467212 0.650351 0.373910 -0.528334
C30   C     C_3   0.619519 0.669333 0.383700 -0.173262
C31   C     C_R   0.082016 0.498325 0.328107 0.794183
C32   C     C_R   0.871725 0.511471 0.769069 -0.046766
C33   C     C_R   0.127468 0.492936 0.230079 -0.050395
C34   C     C_R   0.916664 0.574599 0.907304 -0.219839
C35   C     C_R   0.967447 0.552869 0.816214 -0.201927
C36   C     C_R   0.726031 0.489192 0.813995 -0.251841
Cu1   Cu    Cu3+1 0.140670 0.499980 0.500000 0.933397
Cu2   Cu    Cu3+1 0.859330 0.500020 0.500000 0.931777
H1    H     H_    0.795473 0.612596 0.079059 0.144117
H2    H     H_    0.996619 0.438352 0.052606 0.143151
H3    H     H_    0.801965 0.111359 0.608944 0.147435
H4    H     H_    0.806767 0.883010 0.610243 0.162625
H5    H     H_    0.304527 0.900005 0.457451 0.209808
H6    H     H_    0.304484 0.896588 0.336796 0.198363
H7    H     H_    0.303586 0.120054 0.453987 0.211264
H8    H     H_    0.297190 0.118391 0.334633 0.197642
H9    H     H_    0.572663 0.408968 0.625131 0.138396
H10   H     H_    0.313469 0.413375 0.626638 0.142114
H11   H     H_    0.465912 0.634550 0.304227 0.160100
H12   H     H_    0.349177 0.513909 0.225174 0.146595
H13   H     H_    0.384606 0.716153 0.409453 0.225901
H14   H     H_    0.702577 0.670474 0.317853 0.145013
H15   H     H_    0.912800 0.460246 0.214532 0.151631
H16   H     H_    0.191767 0.439795 0.914261 0.147491
H17   H     H_    0.991844 0.608641 0.942486 0.141054
H18   H     H_    0.080422 0.571378 0.782409 0.152786
H19   H     H_    0.658312 0.451646 0.775733 0.138335
H20   H     H_    0.548564 0.585638 0.157836 0.132208
H21   H     H_    0.439492 0.463322 0.834733 0.135237
N1    N     N_R   0.648210 0.500930 0.499430 -0.191059
N2    N     N_R   0.352300 0.500890 0.499430 -0.186554
O1    O     O_R   0.118810 0.319640 0.500000 -0.577588
O2    O     O_R   0.881230 0.319680 0.499990 -0.577396
O3    O     O_R   0.055580 0.499970 0.629840 -0.588884
O4    O     O_R   0.818000 0.500010 0.629830 -0.595192
O5    O     O_R   0.118770 0.680320 0.500010 -0.581209
O6    O     O_R   0.881190 0.680360 0.500000 -0.589047
O7    O     O_R   0.182000 0.499990 0.370170 -0.581612
O8    O     O_R   0.944420 0.500030 0.370160 -0.587241
C37   C     C_3   0.626411 0.787035 0.439271 -0.316742
C38   C     C_3   0.542600 0.778989 0.539199 -0.297346
C39   C     C_3   0.511438 0.907395 0.580722 -0.904878
H22   H     H_    0.477779 0.898513 0.654629 0.247542
H23   H     H_    0.608241 0.968334 0.560172 0.268800
H24   H     H_    0.422569 0.952646 0.559663 0.252447
H25   H     H_    0.437081 0.730510 0.549056 0.226653
H26   H     H_    0.607300 0.726046 0.575901 0.241816
H27   H     H_    0.740992 0.812281 0.431939 0.209197
H28   H     H_    0.582939 0.865381 0.407738 0.197961

loop_
_geom_bond_atom_site_label_1
_geom_bond_atom_site_label_2
_ccdc_geom_bond_type
C27   H10   S    
C16   C21   A    
C37   H27   S    
C6    H20   S    
C19   C20   A    
C4    C8    A    
C1    O1    A    
C14   C33   A    
Cu1   O1    S    
C29   H11   S    
C25   C28   A    
C26   C27   A    
C29   C30   S    
C24   H7    S    
C32   C36   A    
C23   O5    A    
C28   C29   S    
C5    C11   A    
C3    C7    A    
C8    H21   S    
C5    C6    A    
C12   O3    A    
C16   C17   A    
Cu1   O7    S    
C18   C19   A    
C15   H12   S    
C23   O6    A    
C13   H2    S    
C27   N2    A    
C11   C15   A    
C22   H6    S    
C8    C9    A    
C31   C33   S    
C37   C38   S    
C25   N1    A    
C9    C10   A    
C19   H4    S    
C28   N2    A    
C37   H28   S    
Cu2   O8    S    
C34   H17   S    
C16   C24   S    
C13   C14   A    
C12   C32   S    
C39   H24   S    
C1    O2    A    
C30   C37   S    
C31   O7    A    
C32   C35   A    
C39   H23   S    
C36   H19   S    
C18   H3    S    
C39   H22   S    
C3    C34   A    
C2    C4    A    
Cu1   Cu2   S    
C22   H5    S    
C20   C23   S    
C34   C35   A    
Cu1   O5    S    
C17   C18   A    
Cu2   O6    S    
C26   H9    S    
Cu2   N1    S    
C22   C24   S    
C38   H26   S    
Cu1   O3    S    
Cu2   O2    S    
C29   H13   S    
C2    C36   A    
C25   C30   S    
C30   H14   S    
C35   H18   S    
C4    C5    A    
C10   C13   A    
Cu1   N2    S    
C6    C7    A    
C12   O4    A    
C1    C17   S    
C24   H8    S    
C2    C3    A    
C38   C39   S    
C38   H25   S    
C10   C11   A    
C31   O8    A    
C14   H15   S    
C20   C21   A    
C7    H1    S    
C9    H16   S    
C21   C22   S    
Cu2   O4    S    
C26   N1    A    
C15   C33   A    
