data_mof_unit_21755.cif
_audit_creation_date              2012-12-11T14:40:23-0500
_audit_creation_method            fapswitch 2.2
_symmetry_space_group_name_H-M    P1
_symmetry_Int_Tables_number       1
_space_group_crystal_system       triclinic
_cell_length_a                    19.64299
_cell_length_b                    10.849869
_cell_length_c                    19.502128
_cell_angle_alpha                 90.086198
_cell_angle_beta                  97.703055
_cell_angle_gamma                 89.564832
_cell_volume                      4118.74281511

loop_
_atom_site_label
_atom_site_type_symbol
_atom_type_description
_atom_site_fract_x
_atom_site_fract_y
_atom_site_fract_z
_atom_type_partial_charge
C1    C     C_R   0.725997 0.950688 0.360440 0.537686
C2    C     C_3   0.253135 0.398343 0.566554 0.058831
C3    C     C_3   0.238865 0.866834 0.438156 0.056241
C4    C     C_3   0.753137 0.898348 0.566554 0.058825
C5    C     C_3   0.761577 0.499417 0.454833 -0.114518
C6    C     C_3   0.285549 0.503659 0.530957 -0.130495
C7    C     C_3   0.261631 0.999400 0.454837 -0.114515
C8    C     C_3   0.785560 0.003648 0.530951 -0.130474
C9    C     C_3   0.819523 0.448292 0.508848 -0.129759
C10   C     C_3   0.216304 0.519111 0.483493 -0.113919
C11   C     C_3   0.319540 0.948203 0.508868 -0.129718
C12   C     C_R   0.290191 0.994167 0.632518 0.547624
C13   C     C_3   0.716315 0.019114 0.483489 -0.113904
C14   C     C_3   0.796581 0.315239 0.491350 -0.111365
C15   C     C_3   0.184385 0.412879 0.520256 -0.112576
C16   C     C_3   0.296547 0.815177 0.491364 -0.111405
C17   C     C_3   0.684387 0.912898 0.520258 -0.112584
C18   C     C_3   0.746650 0.319376 0.545927 -0.114174
C19   C     C_3   0.209153 0.318970 0.469395 -0.120958
C20   C     C_3   0.246597 0.819395 0.545923 -0.114172
C21   C     C_3   0.709145 0.818972 0.469399 -0.120936
C22   C     C_3   0.769686 0.451721 0.562622 0.055971
C23   C     C_R   0.225997 0.450692 0.360442 0.537694
C24   C     C_3   0.241099 0.424277 0.433348 0.057411
C25   C     C_3   0.269685 0.951713 0.562623 0.055984
C26   C     C_3   0.741100 0.924264 0.433346 0.057408
C27   C     C_3   0.524197 0.271429 0.968676 -0.104794
C28   C     C_3   0.481942 0.277346 0.029437 -0.103253
C29   C     C_3   0.022965 0.772829 0.969086 -0.104522
C30   C     C_3   0.980665 0.776114 0.029860 -0.103491
C31   C     C_3   0.569801 0.167388 0.004180 -0.145683
C32   C     C_3   0.432185 0.178780 0.995678 -0.144554
C33   C     C_3   0.069696 0.669913 0.004187 -0.145596
C34   C     C_R   0.790192 0.494169 0.632519 0.547630
C35   C     C_3   0.932004 0.676258 0.995709 -0.144768
C36   C     C_3   0.527493 0.173634 0.064349 0.057269
C37   C     C_3   0.474433 0.173281 0.935473 0.057272
C38   C     C_3   0.027354 0.673552 0.064375 0.057324
C39   C     C_3   0.974301 0.673368 0.935496 0.057263
C40   C     C_R   0.535221 0.180189 0.338106 0.544863
C41   C     C_R   0.464823 0.179655 0.661907 0.546409
C42   C     C_R   0.035221 0.680189 0.338106 0.544851
C43   C     C_R   0.964823 0.679655 0.661907 0.546431
C44   C     C_3   0.478002 0.074759 0.031620 -0.106341
C45   C     C_3   0.688664 0.370258 0.491719 -0.138423
C46   C     C_3   0.519735 0.068857 0.969783 -0.106961
C47   C     C_3   0.978961 0.573366 0.031277 -0.106285
C48   C     C_3   0.020737 0.570087 0.969424 -0.106987
C49   C     C_1   0.763248 0.425268 0.904341 -0.006308
C50   C     C_1   0.236715 0.425281 0.095629 -0.003934
C51   C     C_1   0.263251 0.925275 0.904343 -0.006092
C52   C     C_1   0.736724 0.925258 0.095636 -0.004165
C53   C     C_1   0.747307 0.407955 0.034526 -0.048210
C54   C     C_1   0.252451 0.407918 0.965421 -0.048991
C55   C     C_1   0.247312 0.907969 0.034530 -0.048352
C56   C     C_3   0.278356 0.303838 0.516503 -0.113097
C57   C     C_1   0.752465 0.907881 0.965430 -0.048844
C58   C     C_1   0.754486 0.415245 0.963886 -0.047180
C59   C     C_1   0.245390 0.415211 0.036062 -0.047389
C60   C     C_1   0.254492 0.915256 0.963889 -0.046966
C61   C     C_1   0.745404 0.915176 0.036071 -0.047623
C62   C     C_1   0.742208 0.394870 0.094796 -0.008257
C63   C     C_1   0.257538 0.394751 0.905151 -0.006330
C64   C     C_1   0.242212 0.894880 0.094799 -0.008434
C65   C     C_1   0.757548 0.894724 0.905159 -0.006140
C66   C     C_R   0.726758 0.317005 0.368797 0.549198
C67   C     C_3   0.188648 0.870348 0.491699 -0.138391
C68   C     C_R   0.260117 0.364941 0.638655 0.536993
C69   C     C_R   0.226758 0.817008 0.368797 0.549182
C70   C     C_R   0.760117 0.864943 0.638655 0.537003
C71   C     C_R   0.721711 0.952746 0.163584 0.538173
C72   C     C_R   0.278248 0.952545 0.836406 0.547599
C73   C     C_R   0.221709 0.452751 0.163582 0.538231
C74   C     C_R   0.778247 0.452543 0.836405 0.547539
C75   C     C_R   0.558557 0.181751 0.135525 0.556885
C76   C     C_R   0.442474 0.181998 0.864658 0.557135
C77   C     C_R   0.058503 0.681733 0.135515 0.556850
C78   C     C_3   0.778347 0.803827 0.516505 -0.113085
C79   C     C_R   0.942410 0.682018 0.864648 0.557183
C80   C     C_R   0.735692 0.360536 0.164208 0.548835
C81   C     C_R   0.264235 0.360212 0.835777 0.539377
C82   C     C_R   0.235693 0.860538 0.164209 0.548813
C83   C     C_R   0.764237 0.860205 0.835780 0.539390
C84   C     C_1   0.485762 0.171409 0.594677 -0.018042
C85   C     C_1   0.514172 0.172388 0.405272 -0.017137
C86   C     C_1   0.985763 0.671409 0.594677 -0.018044
C87   C     C_1   0.014172 0.672388 0.405273 -0.017137
C88   C     C_1   0.504133 0.168673 0.464703 -0.062995
C89   C     C_3   0.738864 0.366825 0.438157 0.056231
C90   C     C_1   0.495751 0.168224 0.535212 -0.063904
C91   C     C_1   0.004134 0.668673 0.464704 -0.062994
C92   C     C_1   0.995752 0.668224 0.535212 -0.063905
C93   C     C_3   0.711740 0.503756 0.509950 -0.122917
C94   C     C_3   0.310156 0.410122 0.479298 -0.122641
C95   C     C_3   0.211777 0.003819 0.509934 -0.122960
C96   C     C_3   0.810156 0.910095 0.479295 -0.122649
Cr1   Cr    Cr6+3 0.765830 0.160660 0.268180 1.021044
Cr2   Cr    Cr6+3 0.384070 0.324050 0.751550 1.023247
Cr3   Cr    Cr6+3 0.115930 0.824050 0.248450 1.024081
Cr4   Cr    Cr6+3 0.884070 0.824050 0.751550 1.023183
Cr5   Cr    Cr6+3 0.234170 0.160660 0.731820 1.024283
Cr6   Cr    Cr6+3 0.265830 0.660660 0.268180 1.021086
Cr7   Cr    Cr6+3 0.734170 0.660660 0.731820 1.024246
Cr8   Cr    Cr6+3 0.612110 0.009150 0.248770 1.025168
Cr9   Cr    Cr6+3 0.387890 0.009150 0.751230 1.022968
Cr10  Cr    Cr6+3 0.112110 0.509150 0.248770 1.025124
Cr11  Cr    Cr6+3 0.887890 0.509150 0.751230 1.023006
Cr12  Cr    Cr6+3 0.615930 0.324050 0.248450 1.024027
H1    H     H_    0.634870 0.337212 0.482759 0.119116
H2    H     H_    0.317098 0.576091 0.559664 0.114351
H3    H     H_    0.267310 0.071466 0.415693 0.123840
H4    H     H_    0.817121 0.076082 0.559643 0.114342
H5    H     H_    0.373383 0.981120 0.517600 0.118130
H6    H     H_    0.689692 0.106881 0.467232 0.101064
H7    H     H_    0.873349 0.481285 0.517562 0.118112
H8    H     H_    0.189675 0.606876 0.467240 0.101071
H9    H     H_    0.831580 0.238364 0.481550 0.128251
H10   H     H_    0.133258 0.415598 0.538570 0.126326
H11   H     H_    0.331520 0.738259 0.481569 0.128235
H12   H     H_    0.305252 0.216424 0.532960 0.101969
H13   H     H_    0.633261 0.915638 0.538572 0.126320
H14   H     H_    0.740557 0.247979 0.585303 0.125397
H15   H     H_    0.178126 0.244964 0.441453 0.119933
H16   H     H_    0.240463 0.748005 0.585294 0.125385
H17   H     H_    0.678109 0.744964 0.441469 0.119925
H18   H     H_    0.626777 0.162739 0.009661 0.111724
H19   H     H_    0.375209 0.183368 0.990274 0.111465
H20   H     H_    0.126702 0.667313 0.009646 0.111635
H21   H     H_    0.874999 0.678795 0.990303 0.111470
H22   H     H_    0.459785 0.994533 0.059191 0.135433
H23   H     H_    0.134838 0.837376 0.482719 0.119139
H24   H     H_    0.534467 0.983809 0.943490 0.135187
H25   H     H_    0.961645 0.491994 0.058546 0.135504
H26   H     H_    0.036405 0.486055 0.942816 0.135136
H27   H     H_    0.543279 0.352288 0.942275 0.142988
H28   H     H_    0.466265 0.363292 0.054276 0.143467
H29   H     H_    0.041159 0.854881 0.943036 0.143116
H30   H     H_    0.964047 0.861003 0.055051 0.143432
H31   H     H_    0.805236 0.716409 0.532966 0.101966
H32   H     H_    0.677031 0.580270 0.520879 0.127952
H33   H     H_    0.361083 0.407577 0.460582 0.121650
H34   H     H_    0.177091 0.080376 0.520859 0.127943
H35   H     H_    0.861083 0.907530 0.460578 0.121643
H36   H     H_    0.767214 0.571491 0.415685 0.123844
O1    O     O_R   0.783230 0.287800 0.346510 -0.510038
O2    O     O_R   0.454570 0.285140 0.836900 -0.514403
O3    O     O_R   0.045430 0.785140 0.163100 -0.516125
O4    O     O_R   0.954570 0.785140 0.836900 -0.514512
O5    O     O_R   0.677850 0.374730 0.185500 -0.504085
O6    O     O_R   0.322150 0.374730 0.814500 -0.506898
O7    O     O_R   0.177850 0.874730 0.185500 -0.503991
O8    O     O_R   0.822150 0.874730 0.814500 -0.506980
O9    O     O_3   0.664630 0.164620 0.255130 -0.289819
O10   O     O_3   0.335370 0.164620 0.744870 -0.288033
O11   O     O_3   0.164630 0.664620 0.255130 -0.289774
O12   O     O_R   0.216770 0.287800 0.653490 -0.524547
O13   O     O_3   0.835370 0.664620 0.744870 -0.288083
O14   O     O_R   0.760130 0.037060 0.338610 -0.517373
O15   O     O_R   0.239870 0.037060 0.661390 -0.496012
O16   O     O_R   0.260130 0.537060 0.338610 -0.517375
O17   O     O_R   0.739870 0.537060 0.661390 -0.496018
O18   O     O_R   0.666620 0.921370 0.332440 -0.512738
O19   O     O_R   0.333380 0.921370 0.667560 -0.511691
O20   O     O_R   0.166620 0.421370 0.332440 -0.512737
O21   O     O_R   0.833380 0.421370 0.667560 -0.511696
O22   O     O_R   0.557170 0.082420 0.312350 -0.488459
O23   O     O_R   0.283230 0.787800 0.346510 -0.510041
O24   O     O_R   0.442830 0.082420 0.687650 -0.507485
O25   O     O_R   0.057170 0.582420 0.312350 -0.488443
O26   O     O_R   0.942830 0.582420 0.687650 -0.507494
O27   O     O_R   0.548310 0.285980 0.316250 -0.512838
O28   O     O_R   0.451690 0.285980 0.683750 -0.499078
O29   O     O_R   0.048310 0.785980 0.316250 -0.512874
O30   O     O_R   0.951690 0.785980 0.683750 -0.499048
O31   O     O_R   0.680520 0.375500 0.327470 -0.496213
O32   O     O_R   0.319480 0.375500 0.672530 -0.500258
O33   O     O_R   0.180520 0.875500 0.327470 -0.496218
O34   O     O_R   0.716770 0.787800 0.653490 -0.524532
O35   O     O_R   0.819480 0.875500 0.672530 -0.500256
O36   O     O_R   0.780350 0.286970 0.193350 -0.500452
O37   O     O_R   0.219650 0.286970 0.806650 -0.505326
O38   O     O_R   0.280350 0.786970 0.193350 -0.500471
O39   O     O_R   0.719650 0.786970 0.806650 -0.505305
O40   O     O_R   0.757460 0.036290 0.196640 -0.496345
O41   O     O_R   0.242540 0.036290 0.803360 -0.490325
O42   O     O_R   0.257460 0.536290 0.196640 -0.496301
O43   O     O_R   0.742540 0.536290 0.803360 -0.490371
O44   O     O_R   0.663740 0.920540 0.179290 -0.511853
O45   O     O_R   0.554500 0.081650 0.170370 -0.497598
O46   O     O_R   0.336260 0.920540 0.820710 -0.509682
O47   O     O_R   0.163740 0.420540 0.179290 -0.511932
O48   O     O_R   0.836260 0.420540 0.820710 -0.509598
O49   O     O_R   0.445500 0.081650 0.829630 -0.499881
O50   O     O_R   0.054500 0.581650 0.170370 -0.497687
O51   O     O_R   0.945500 0.581650 0.829630 -0.499799
O52   O     O_R   0.545430 0.285140 0.163100 -0.516189

loop_
_geom_bond_atom_site_label_1
_geom_bond_atom_site_label_2
_ccdc_geom_bond_type
C19   C56   S    
Cr9   O49   S    
C21   C26   S    
Cr11  O21   S    
C8    C13   S    
C30   H30   S    
C87   C91   T    
C6    H2    S    
C14   C18   S    
C20   C67   S    
C8    C96   S    
C81   O37   A    
C71   O44   A    
C4    C8    S    
C34   O17   A    
C35   C47   S    
C78   H31   S    
Cr2   O10   S    
C73   O42   A    
C68   O32   A    
C10   H8    S    
Cr10  O50   S    
Cr4   O8    S    
C56   C94   S    
C19   H15   S    
Cr6   O23   S    
C30   C35   S    
C63   C81   S    
Cr7   O39   S    
C50   C59   T    
C80   O36   A    
C32   H19   S    
C48   H26   S    
C1    O14   A    
C75   O45   A    
C27   C37   S    
Cr3   O33   S    
C3    C7    S    
C10   C15   S    
C8    H4    S    
Cr8   O18   S    
C43   O30   A    
C45   H1    S    
C70   O35   A    
C65   C83   S    
C20   C25   S    
C11   C25   S    
C44   H22   S    
C81   O6    A    
Cr12  O31   S    
C29   C33   S    
C79   O51   A    
C30   C38   S    
C4    C78   S    
C11   C16   S    
C72   O46   A    
C66   O1    A    
C69   O33   A    
C15   C19   S    
Cr4   O13   S    
Cr12  O9    S    
C78   C96   S    
C6    C94   S    
C31   C46   S    
Cr3   O11   S    
Cr11  O48   S    
C23   C24   S    
Cr9   O19   S    
Cr1   O9    S    
Cr8   O9    S    
Cr12  O52   S    
C34   O21   A    
C45   C89   S    
C77   O3    A    
C31   C36   S    
C40   O22   A    
C13   H6    S    
Cr2   O28   S    
C75   O52   A    
Cr9   O10   S    
C76   O2    A    
C18   C22   S    
C55   C60   S    
C47   H25   S    
Cr8   O44   S    
C67   C95   S    
C56   H12   S    
C2    C6    S    
C84   C90   T    
Cr10  O47   S    
Cr5   O41   S    
C35   H21   S    
C71   O40   A    
Cr11  O51   S    
Cr11  O13   S    
C43   O26   A    
C44   C46   S    
C7    C11   S    
C66   C89   S    
C54   C59   S    
C55   C64   T    
C26   C96   S    
C80   O5    A    
C22   C34   S    
C41   O28   A    
C67   H23   S    
C4    C70   S    
Cr7   O17   S    
C27   C31   S    
Cr6   O38   S    
C28   C32   S    
Cr7   O43   S    
C76   O49   A    
C16   H11   S    
Cr6   O16   S    
C91   C92   S    
C9    C14   S    
C70   O34   A    
Cr1   O36   S    
Cr2   O2    S    
Cr5   O12   S    
C10   C24   S    
C41   C84   S    
Cr3   O7    S    
C29   H29   S    
C33   H20   S    
C17   C21   S    
C49   C58   T    
C39   C79   S    
C40   C85   S    
C21   C78   S    
C35   C39   S    
C77   O50   A    
C69   O23   A    
C14   C89   S    
C5    C9    S    
C29   C30   S    
C42   O25   A    
C24   C94   S    
Cr2   O32   S    
C53   C62   T    
C47   C48   S    
Cr3   O29   S    
C16   C20   S    
C14   H9    S    
C23   O16   A    
C29   C39   S    
C32   C44   S    
C83   O39   A    
Cr6   O42   S    
C32   C37   S    
C2    C15   S    
C64   C82   S    
C38   C47   S    
C73   O47   A    
C18   H14   S    
C74   O48   A    
C4    C17   S    
C17   H13   S    
C13   C26   S    
C37   C76   S    
C88   C90   S    
C45   C93   S    
C25   C95   S    
Cr10  O20   S    
Cr4   O30   S    
C1    C26   S    
C22   C93   S    
C66   O31   A    
C36   C44   S    
C51   C72   S    
C83   O8    A    
C21   H17   S    
C18   C45   S    
Cr5   O37   S    
C94   H33   S    
Cr1   O40   S    
C23   O20   A    
Cr2   O6    S    
C85   C88   T    
C62   C80   S    
Cr3   O3    S    
C9    H7    S    
C3    C69   S    
C28   H28   S    
C43   C86   S    
Cr1   O1    S    
Cr9   O46   S    
C3    C67   S    
C82   O7    A    
C57   C65   T    
C41   O24   A    
C5    H36   S    
C42   O29   A    
C6    C10   S    
C5    C93   S    
C53   C58   S    
C15   H10   S    
C57   C61   S    
C79   O4    A    
C51   C60   T    
C38   C77   S    
C7    C95   S    
C82   O38   A    
C2    C68   S    
C33   C38   S    
Cr9   O24   S    
C13   C17   S    
C12   C25   S    
C52   C61   T    
Cr7   O34   S    
C27   H27   S    
Cr1   O14   S    
C19   C24   S    
C93   H32   S    
C86   C92   T    
C12   O19   A    
C46   H24   S    
C36   C75   S    
Cr5   O10   S    
Cr4   O4    S    
Cr8   O45   S    
C50   C73   S    
Cr10  O25   S    
Cr10  O11   S    
C7    H3    S    
C12   O15   A    
C11   H5    S    
C72   O41   A    
C20   H16   S    
C1    O18   A    
C74   O43   A    
Cr8   O22   S    
Cr12  O5    S    
Cr5   O15   S    
Cr7   O13   S    
C28   C36   S    
C95   H34   S    
C9    C22   S    
C54   C63   T    
Cr12  O27   S    
C27   C28   S    
C52   C71   S    
C33   C48   S    
C49   C74   S    
C2    C56   S    
C42   C87   S    
C31   H18   S    
C37   C46   S    
Cr4   O35   S    
C68   O12   A    
Cr6   O11   S    
C40   O27   A    
C5    C89   S    
C3    C16   S    
C39   C48   S    
C96   H35   S    
Cr11  O26   S    
