data_mof_unit_5577.cif
_audit_creation_date              2012-12-11T15:20:20-0500
_audit_creation_method            fapswitch 2.2
_symmetry_space_group_name_H-M    P1
_symmetry_Int_Tables_number       1
_space_group_crystal_system       triclinic
_cell_length_a                    12.958146
_cell_length_b                    13.025167
_cell_length_c                    15.28639
_cell_angle_alpha                 116.930428
_cell_angle_beta                  63.428737
_cell_angle_gamma                 97.254924
_cell_volume                      2047.8777365

loop_
_atom_site_label
_atom_site_type_symbol
_atom_type_description
_atom_site_fract_x
_atom_site_fract_y
_atom_site_fract_z
_atom_type_partial_charge
C1    C     C_R   0.008464 0.834837 0.048592 -0.123974
C2    C     C_R   0.707576 0.428544 0.304957 0.047410
C3    C     C_R   0.636155 0.562829 0.024688 0.156950
C4    C     C_R   0.083661 0.787735 0.299988 0.053634
C5    C     C_R   0.322265 0.580158 0.012200 -0.132234
C6    C     C_R   0.959924 0.178883 0.779983 -0.129190
C7    C     C_R   0.221696 0.448004 0.683118 -0.125634
C8    C     C_R   0.073055 0.251928 0.069668 -0.127232
C9    C     C_R   0.968144 0.167029 0.979016 -0.098777
C10   C     C_R   0.321921 0.526081 0.781154 -0.128570
C11   C     C_R   0.243747 0.479324 0.107118 -0.157635
C12   C     C_R   0.701910 0.403207 0.209080 -0.137276
C13   C     C_R   0.038029 0.277563 0.682491 -0.137518
C14   C     C_R   0.335650 0.541934 0.077020 0.157500
C15   C     C_R   0.024184 0.167387 0.675056 0.059070
C16   C     C_R   0.332496 0.455994 0.676730 0.041377
C17   C     C_R   0.039576 0.145071 0.016174 0.052742
C18   C     C_R   0.186181 0.955607 0.379723 0.159983
C19   C     C_R   0.154276 0.058127 0.476882 -0.228676
C20   C     C_R   0.072126 0.059190 0.575994 0.121700
C21   C     C_R   0.037787 0.954776 0.579972 -0.171151
C22   C     C_R   0.064225 0.855235 0.484229 -0.196040
C23   C     C_R   0.738506 0.577442 0.948158 -0.151124
C24   C     C_R   0.122368 0.860363 0.384004 0.077649
C25   C     C_R   0.641104 0.435431 0.486388 -0.173317
C26   C     C_R   0.546233 0.443165 0.580399 -0.169448
C27   C     C_R   0.440642 0.409126 0.576929 0.148310
C28   C     C_R   0.438230 0.344002 0.475639 -0.181393
C29   C     C_R   0.533098 0.336645 0.381494 -0.162778
C30   C     C_R   0.630196 0.393746 0.389098 0.145359
C31   C     C_2   0.429069 0.564034 0.108148 -0.204537
C32   C     C_2   0.522296 0.607082 0.055939 -0.197495
C33   C     C_2   0.856705 0.965964 0.070601 -0.226292
C34   C     C_R   0.019362 0.695294 0.300757 -0.111487
C35   C     C_2   0.841987 0.052871 0.167152 -0.142129
C36   C     C_R   0.660822 0.483863 0.050874 -0.116742
C37   C     C_R   0.099111 0.797647 0.208230 -0.151656
C38   C     C_R   0.802501 0.490286 0.304768 -0.122474
C39   C     C_R   0.915925 0.752185 0.944326 -0.141958
C40   C     C_R   0.928929 0.857231 0.020059 0.146623
H1    H     H_    0.039233 0.896725 0.105802 0.094096
H2    H     H_    0.924736 0.111853 0.804359 0.083266
H3    H     H_    0.199964 0.411764 0.615676 0.083740
H4    H     H_    0.123828 0.269179 0.114053 0.093114
H5    H     H_    0.917736 0.104653 0.943879 0.084028
H6    H     H_    0.389942 0.553798 0.806760 0.092521
H7    H     H_    0.220563 0.449242 0.168319 0.087851
H8    H     H_    0.069796 0.299997 0.615862 0.085444
H9    H     H_    0.192684 0.136201 0.474681 0.110026
H10   H     H_    0.982152 0.949998 0.655501 0.110274
H11   H     H_    0.648477 0.343493 0.175640 0.084168
H12   H     H_    0.024633 0.779538 0.491177 0.115218
H13   H     H_    0.717649 0.473381 0.493779 0.105166
H14   H     H_    0.553653 0.486334 0.656303 0.106824
H15   H     H_    0.360486 0.308151 0.469373 0.101031
H16   H     H_    0.524851 0.296394 0.305950 0.108990
H17   H     H_    0.431208 0.520706 0.153467 0.125779
H18   H     H_    0.519117 0.654165 0.014073 0.118150
H19   H     H_    0.807651 0.973184 0.031457 0.134155
H20   H     H_    0.885130 0.049987 0.212726 0.130646
H21   H     H_    0.745623 0.621490 0.901092 0.087593
H22   H     H_    0.003023 0.652120 0.350953 0.078369
H23   H     H_    0.602215 0.447535 0.103797 0.090308
H24   H     H_    0.151550 0.855304 0.176834 0.090417
H25   H     H_    0.841750 0.512074 0.359421 0.081884
H26   H     H_    0.867531 0.741522 0.899647 0.088311
H27   H     H_    0.367503 0.644983 0.987426 0.080459
N1    N     N_R   0.037310 0.720000 0.995790 -0.045777
N2    N     N_R   0.946240 0.290860 0.848040 -0.039909
N3    N     N_R   0.146140 0.501160 0.788590 -0.039067
N4    N     N_R   0.025760 0.332690 0.063610 -0.040053
N5    N     N_R   0.962690 0.280000 0.004210 -0.042180
N6    N     N_R   0.209210 0.553840 0.847990 -0.040369
N7    N     N_R   0.175110 0.482040 0.063580 -0.038669
N8    N     N_R   0.996790 0.351810 0.788620 -0.037607
N9    N     N_R   0.790790 0.446160 0.152010 -0.038828
N10   N     N_R   0.824890 0.517960 0.936420 -0.041044
N11   N     N_R   0.003210 0.648190 0.211380 -0.038276
N12   N     N_R   0.774330 0.457010 0.995840 -0.047354
N13   N     N_R   0.053760 0.709140 0.151960 -0.037150
N14   N     N_R   0.853860 0.498840 0.211410 -0.038652
N15   N     N_R   0.974240 0.667310 0.936390 -0.041202
N16   N     N_R   0.225670 0.542990 0.004160 -0.041337
Ni1   Ni    Ni4+2 0.130310 0.630310 0.999970 0.207481
Ni2   Ni    Ni4+2 0.869690 0.369690 0.000030 0.211043
Ni3   Ni    Ni4+2 0.985640 0.509470 0.863740 0.214028
Ni4   Ni    Ni4+2 0.014360 0.490530 0.136260 0.207378
C41   C     C_3   0.287481 0.949423 0.275871 -0.486693
C42   C     C_3   0.399367 0.978413 0.290202 -0.197984
C43   C     C_3   0.502271 0.966761 0.183929 -0.940029
H28   H     H_    0.517415 0.876679 0.118666 0.258997
H29   H     H_    0.486162 0.026920 0.157132 0.254961
H30   H     H_    0.581412 0.988590 0.197134 0.262893
H31   H     H_    0.389293 0.068507 0.354053 0.191822
H32   H     H_    0.418411 0.918705 0.316086 0.205900
H33   H     H_    0.304807 0.860405 0.208442 0.199579
H34   H     H_    0.266570 0.010550 0.252423 0.184699

loop_
_geom_bond_atom_site_label_1
_geom_bond_atom_site_label_2
_ccdc_geom_bond_type
N11   Ni4   S    
C6    N2    A    
C41   H33   S    
C9    H5    S    
C3    C23   A    
C19   C20   A    
C9    N5    A    
C32   H18   S    
C14   C31   S    
N13   Ni1   S    
C2    C12   A    
C37   H24   S    
C7    N3    A    
N5    Ni2   S    
C26   C27   A    
N16   Ni1   S    
C18   C24   A    
C28   C29   A    
C25   H13   S    
C4    C24   S    
C10   N6    A    
N11   N13   A    
C34   H22   S    
C1    N1    A    
C18   C19   A    
C42   H31   S    
C2    C38   A    
C1    C40   A    
C33   C35   D    
C6    C15   A    
C11   H7    S    
C13   N8    A    
C4    C37   A    
C10   H6    S    
C7    H3    S    
N7    Ni4   S    
C36   H23   S    
N7    N16   A    
N6    Ni1   S    
C41   H34   S    
C5    H27   S    
C16   C27   S    
C33   H19   S    
C21   C22   A    
C26   H14   S    
C21   H10   S    
C28   H15   S    
N10   N12   A    
C15   C20   S    
C37   N13   A    
C4    C34   A    
C33   C40   S    
N1    Ni1   S    
C39   C40   A    
C25   C26   A    
N15   Ni3   S    
C11   N7    A    
C18   C41   S    
C35   H20   S    
C42   H32   S    
C29   C30   A    
C19   H9    S    
N8    Ni3   S    
C43   H29   S    
C31   C32   D    
C38   H25   S    
C20   C21   A    
N3    N6    A    
C23   N10   A    
C5    C14   A    
N14   Ni4   S    
N4    Ni4   S    
C9    C17   A    
C7    C16   A    
N10   Ni3   S    
C13   C15   A    
C38   N14   A    
C39   H26   S    
C22   C24   A    
N3    Ni3   S    
N12   Ni2   S    
C12   H11   S    
N2    Ni2   S    
C43   H30   S    
C22   H12   S    
C1    H1    S    
C25   C30   A    
C8    N4    A    
C8    H4    S    
C39   N15   A    
C36   N12   A    
N9    N14   A    
C13   H8    S    
C29   H16   S    
C8    C17   A    
C2    C30   S    
N1    N15   A    
C31   H17   S    
C12   N9    A    
N4    N5    A    
C10   C16   A    
C34   N11   A    
C43   H28   S    
C3    C36   A    
C5    N16   A    
C11   C14   A    
N2    N8    A    
C3    C32   S    
C23   H21   S    
C41   C42   S    
C6    H2    S    
C27   C28   A    
C42   C43   S    
N9    Ni2   S    
