data_mof_unit_65292.cif
_audit_creation_date              2012-12-10T18:03:12-0500
_audit_creation_method            fapswitch 2.2
_symmetry_space_group_name_H-M    P1
_symmetry_Int_Tables_number       1
_space_group_crystal_system       triclinic
_cell_length_a                    30.713985
_cell_length_b                    21.726174
_cell_length_c                    21.718068
_cell_angle_alpha                 89.967981
_cell_angle_beta                  134.920726
_cell_angle_gamma                 90.153729
_cell_volume                      10261.794938

loop_
_atom_site_label
_atom_site_type_symbol
_atom_type_description
_atom_site_fract_x
_atom_site_fract_y
_atom_site_fract_z
_atom_type_partial_charge
C1    C     C_R   0.118976 0.500491 0.118841 0.815654
C2    C     C_3   0.389628 0.785205 0.923352 -0.004359
C3    C     C_R   0.002667 0.315550 0.002998 -0.117157
C4    C     C_R   0.501198 0.184804 0.999946 -0.084606
C5    C     C_R   0.502197 0.815210 0.001072 -0.090654
C6    C     C_3   0.936467 0.902310 0.151507 0.482185
C7    C     C_3   0.396940 0.442761 0.114161 0.499229
C8    C     C_R   0.942616 0.716932 0.952449 0.235099
C9    C     C_R   0.054288 0.283003 0.031964 0.236075
C10   C     C_R   0.557228 0.217125 0.050072 0.226839
C11   C     C_R   0.557640 0.782864 0.048340 0.224454
C12   C     C_R   0.943449 0.781644 0.952801 -0.293541
C13   C     C_R   0.219052 0.524346 0.268913 -0.019758
C14   C     C_R   0.053254 0.217877 0.030736 -0.244627
C15   C     C_R   0.556577 0.281888 0.047681 -0.274561
C16   C     C_R   0.556140 0.718174 0.044392 -0.264318
C17   C     C_R   0.998662 0.814089 0.997233 -0.102760
C18   C     C_R   0.001168 0.185230 0.000203 -0.125641
C19   C     C_R   0.500471 0.314234 0.994523 -0.129296
C20   C     C_R   0.499856 0.685894 0.992567 -0.166879
C21   C     C_R   0.051158 0.780600 0.034237 0.030943
C22   C     C_R   0.951779 0.219479 0.971912 0.021028
C23   C     C_R   0.445939 0.280531 0.935509 0.054608
C24   C     C_R   0.717671 0.980200 0.268986 -0.026310
C25   C     C_R   0.445002 0.719788 0.934579 0.085862
C26   C     C_3   0.852930 0.664989 0.823618 -0.669619
C27   C     C_3   0.149135 0.335053 0.150776 -0.720497
C28   C     C_3   0.639855 0.168255 0.187646 -0.730162
C29   C     C_3   0.641491 0.828928 0.188094 -0.690631
C30   C     C_3   0.687678 0.382928 0.578275 -0.663143
C31   C     C_3   0.188301 0.881892 0.583071 -0.669406
C32   C     C_3   0.680216 0.467633 0.835581 0.007883
C33   C     C_3   0.665175 0.440565 0.883395 -0.767408
C34   C     C_3   0.640307 0.632523 0.743601 0.138482
C35   C     C_R   0.185897 0.503595 0.184664 -0.094411
C36   C     C_3   0.624885 0.681102 0.776127 -0.817330
C37   C     C_3   0.194799 0.925430 0.815974 0.008736
C38   C     C_3   0.210709 0.882729 0.884941 -0.792067
C39   C     C_3   0.142292 0.110479 0.766740 0.106319
C40   C     C_3   0.123739 0.163825 0.789436 -0.771426
C41   C     C_3   0.076250 0.866842 0.908082 -0.682166
C42   C     C_3   0.483896 0.648453 0.814020 -0.700824
C43   C     C_3   0.858656 0.056595 0.641096 0.038989
C44   C     C_3   0.810577 0.030526 0.636764 -0.751710
C45   C     C_3   0.948616 0.213069 0.746404 0.058355
C46   C     C_R   0.685705 0.998344 0.184683 -0.064271
C47   C     C_3   0.972244 0.266314 0.808717 -0.788081
C48   C     C_3   0.529067 0.327580 0.842207 0.015747
C49   C     C_3   0.539846 0.259780 0.866410 -0.765147
C50   C     C_3   0.344036 0.375022 0.651011 0.108991
C51   C     C_3   0.286042 0.401607 0.621567 -0.828482
C52   C     C_3   0.825959 0.892788 0.014505 -0.680003
C53   C     C_3   0.935772 0.787115 0.141526 -0.715911
C54   C     C_3   0.363814 0.554167 0.074164 -0.685568
C55   C     C_3   0.329956 0.353495 0.022474 -0.729081
C56   C     C_3   0.089855 0.786047 0.209787 -0.665490
C57   C     C_R   0.218637 0.488170 0.163492 -0.204870
C58   C     C_3   0.847355 0.200273 0.786914 -0.642558
C59   C     C_3   0.277648 0.315098 0.783442 -0.698654
C60   C     C_3   0.328337 0.640423 0.787308 -0.627118
C61   C     C_3   0.149522 0.694121 0.045682 -0.657047
C62   C     C_3   0.936515 0.299728 0.090295 -0.653341
C63   C     C_3   0.438053 0.214056 0.069883 -0.637406
C64   C     C_3   0.449010 0.778704 0.082895 -0.643393
C65   C     C_3   0.312146 0.537001 0.526701 0.102098
C66   C     C_3   0.342271 0.588973 0.592697 -0.786784
C67   C     C_3   0.280558 0.393828 0.387389 -0.005844
C68   C     C_R   0.719340 0.010918 0.164276 -0.191250
C69   C     C_3   0.323450 0.339202 0.422832 -0.781861
C70   C     C_3   0.791487 0.106304 0.398718 0.002635
C71   C     C_3   0.840537 0.156358 0.448301 -0.813559
C72   C     C_3   0.857566 0.927745 0.509191 0.091205
C73   C     C_3   0.872271 0.879504 0.572416 -0.811451
C74   C     C_R   0.282993 0.486406 0.228325 -0.238613
C75   C     C_R   0.783755 0.011567 0.230077 -0.207226
C76   C     C_R   0.315089 0.500801 0.314434 -0.095744
C77   C     C_R   0.618911 0.000706 0.118724 0.850828
C78   C     C_R   0.814963 0.998312 0.316239 -0.089867
C79   C     C_R   0.282591 0.522668 0.332660 0.090288
C80   C     C_R   0.781103 0.978003 0.333466 -0.056387
C81   C     C_3   0.285108 0.503943 0.401590 0.798101
C82   C     C_3   0.781556 0.996710 0.401271 0.811272
C83   C     C_3   0.214138 0.507753 0.330687 -0.599114
C84   C     C_3   0.711095 0.000404 0.327564 -0.481605
C85   C     C_R   0.999695 0.618515 0.999626 0.851510
C86   C     C_R   0.000223 0.381543 0.000280 0.844224
C87   C     C_R   0.499561 0.118550 0.999461 0.854108
C88   C     C_3   0.116237 0.782719 0.122500 0.093494
C89   C     C_R   0.500707 0.881457 0.000660 0.846328
C90   C     C_R   0.781347 0.521209 0.829214 -0.035551
C91   C     C_R   0.282095 0.030644 0.826599 -0.036467
C92   C     C_R   0.814919 0.496924 0.814597 -0.111977
C93   C     C_R   0.314565 0.999980 0.813439 -0.122599
C94   C     C_R   0.781987 0.472691 0.731346 -0.226482
C95   C     C_R   0.281937 0.975349 0.730676 -0.217277
C96   C     C_R   0.716992 0.473185 0.665898 0.274150
C97   C     C_R   0.217284 0.975017 0.665801 0.258659
C98   C     C_R   0.684744 0.500611 0.683633 -0.157313
C99   C     C_3   0.888221 0.215625 0.935172 0.092396
C100  C     C_R   0.185184 0.001951 0.683699 -0.186203
C101  C     C_R   0.719286 0.525452 0.766234 -0.132542
C102  C     C_R   0.218755 0.033807 0.762335 -0.107298
C103  C     C_3   0.719280 0.559095 0.827785 0.829625
C104  C     C_3   0.217050 0.034095 0.830727 0.839907
C105  C     C_3   0.789822 0.552341 0.897800 -0.413062
C106  C     C_3   0.287122 0.027771 0.900026 -0.435684
C107  C     C_R   0.000199 0.000395 0.881585 0.895659
C108  C     C_R   0.500181 0.500181 0.881587 0.859992
C109  C     C_R   0.999816 0.881036 0.000272 0.844125
C110  C     C_3   0.384769 0.285644 0.905754 0.101211
C111  C     C_R   0.000146 0.118736 0.999826 0.831249
C112  C     C_R   0.499967 0.381052 0.998828 0.813019
C113  C     C_R   0.499899 0.618996 0.998310 0.822942
C114  C     C_R   0.881309 0.498701 0.881313 0.825455
C115  C     C_R   0.381184 0.998841 0.881124 0.805678
C116  C     C_R   0.000018 0.000432 0.118577 0.797101
C117  C     C_R   0.500038 0.500859 0.118756 0.783408
C118  C     C_R   0.499873 0.499935 0.381147 0.788427
C119  C     C_R   0.000311 0.999962 0.381321 0.799009
C120  C     C_R   0.381371 0.499975 0.381685 0.853452
C121  C     C_3   0.384372 0.715462 0.907907 0.073213
C122  C     C_R   0.881355 0.999765 0.383625 0.815008
C123  C     C_R   0.500274 0.499993 0.619252 0.840844
C124  C     C_R   0.002312 0.999929 0.621240 0.803888
C125  C     C_R   0.618545 0.500230 0.619804 0.762164
C126  C     C_R   0.118690 0.000311 0.620150 0.792368
C127  C     C_R   0.001571 0.054669 0.784102 0.014024
C128  C     C_R   0.495232 0.446419 0.778011 -0.118067
C129  C     C_R   0.002036 0.999282 0.817096 -0.139865
C130  C     C_R   0.501644 0.501336 0.816762 -0.085295
C131  C     C_R   0.013338 0.943851 0.796548 0.224738
C132  C     C_3   0.114953 0.712057 0.120325 0.016246
C133  C     C_R   0.519455 0.554905 0.802248 0.235298
C134  C     C_R   0.519942 0.554023 0.738014 -0.265400
C135  C     C_R   0.016675 0.944533 0.735222 -0.244595
C136  C     C_R   0.504318 0.500012 0.690161 -0.065320
C137  C     C_R   0.007900 0.999719 0.693757 -0.103719
C138  C     C_R   0.050268 0.717057 0.032099 -0.030376
C139  C     C_R   0.953181 0.281706 0.975163 -0.054322
C140  C     C_R   0.446546 0.217364 0.940223 -0.073878
C141  C     C_R   0.447151 0.782847 0.943268 -0.032356
C142  C     C_R   0.496320 0.445784 0.715684 -0.021238
C143  C     C_3   0.889821 0.286994 0.938189 0.056990
C144  C     C_R   0.003855 0.054458 0.722848 0.011132
C145  C     C_3   0.448890 0.396109 0.663798 -0.536448
C146  C     C_3   0.959391 0.105912 0.671899 -0.639605
C147  C     C_3   0.956693 0.107284 0.740396 0.817370
C148  C     C_3   0.447326 0.396159 0.732896 0.835917
C149  C     C_R   0.989168 0.946796 0.206616 0.019614
C150  C     C_R   0.463625 0.460720 0.182385 0.057178
C151  C     C_R   0.001125 0.000685 0.185974 -0.091833
C152  C     C_R   0.501259 0.500446 0.186580 -0.112709
C153  C     C_R   0.022488 0.052560 0.239372 -0.206514
C154  C     C_3   0.386274 0.215167 0.913469 0.001748
C155  C     C_R   0.544453 0.536277 0.262239 -0.199294
C156  C     C_R   0.543886 0.536785 0.326333 -0.208691
C157  C     C_R   0.023142 0.052366 0.304556 -0.199670
C158  C     C_R   0.502223 0.499085 0.317049 -0.063854
C159  C     C_R   0.004052 0.999578 0.318137 -0.086700
C160  C     C_R   0.466293 0.457482 0.248103 0.046700
C161  C     C_R   0.991515 0.945865 0.272380 0.040700
C162  C     C_3   0.400557 0.437777 0.188362 -0.517634
C163  C     C_3   0.939780 0.900565 0.225587 -0.485364
C164  C     C_R   0.997738 0.684684 0.996642 -0.120098
Cu1   Cu    Cu3+1 0.000030 0.500000 0.061840 0.927953
Cu2   Cu    Cu3+1 0.500000 0.438210 0.499990 0.938418
Cu3   Cu    Cu3+1 0.000000 0.061790 0.499990 0.913617
Cu4   Cu    Cu3+1 0.000000 0.938210 0.499990 0.916318
Cu5   Cu    Cu3+1 0.500030 0.000000 0.061840 0.917322
Cu6   Cu    Cu3+1 0.999960 0.500000 0.938160 0.938172
Cu7   Cu    Cu3+1 0.499960 0.000000 0.938160 0.957235
Cu8   Cu    Cu3+1 0.938190 0.000000 0.938110 0.954570
Cu9   Cu    Cu3+1 0.438190 0.500000 0.938110 0.954816
Cu10  Cu    Cu3+1 0.061790 0.000000 0.061790 0.957933
Cu11  Cu    Cu3+1 0.561790 0.500000 0.061790 0.943764
Cu12  Cu    Cu3+1 0.500000 0.561790 0.499990 0.935821
H1    H     H_    0.196011 0.547194 0.339566 0.197853
H2    H     H_    0.311910 0.068399 0.943608 0.189550
H3    H     H_    0.021925 0.274220 0.849357 0.257895
H4    H     H_    0.946402 0.308845 0.771613 0.199173
H5    H     H_    0.965394 0.255717 0.851223 0.252480
H6    H     H_    0.551358 0.355423 0.901240 0.159346
H7    H     H_    0.550808 0.338090 0.818741 0.144095
H8    H     H_    0.522515 0.231382 0.810264 0.239553
H9    H     H_    0.589772 0.251120 0.922347 0.198322
H10   H     H_    0.515186 0.246019 0.884324 0.265505
H11   H     H_    0.355809 0.332648 0.688915 0.186981
H12   H     H_    0.333961 0.362756 0.592275 0.131002
H13   H     H_    0.530094 0.596087 0.723524 0.165046
H14   H     H_    0.271519 0.443291 0.581430 0.231432
H15   H     H_    0.248416 0.366982 0.582186 0.197674
H16   H     H_    0.294716 0.414123 0.679056 0.270483
H17   H     H_    0.872116 0.974170 0.079879 0.243604
H18   H     H_    0.786770 0.920631 0.958272 0.218562
H19   H     H_    0.814397 0.875214 0.049600 0.218986
H20   H     H_    0.832476 0.853960 0.988504 0.244716
H21   H     H_    0.952984 0.850757 0.087856 0.255016
H22   H     H_    0.937673 0.752327 0.105990 0.223377
H23   H     H_    0.888302 0.788343 0.112680 0.238771
H24   H     H_    0.023032 0.901549 0.717193 0.161983
H25   H     H_    0.967876 0.772245 0.210346 0.231772
H26   H     H_    0.308894 0.477148 0.008282 0.251405
H27   H     H_    0.324843 0.581816 0.017330 0.214385
H28   H     H_    0.406045 0.572533 0.094577 0.239783
H29   H     H_    0.366050 0.560740 0.126962 0.218173
H30   H     H_    0.405473 0.383748 0.047294 0.245009
H31   H     H_    0.334240 0.304856 0.011780 0.252975
H32   H     H_    0.295294 0.376272 0.958110 0.217948
H33   H     H_    0.314005 0.353908 0.055095 0.235365
H34   H     H_    0.167391 0.823251 0.244683 0.254972
H35   H     H_    0.467715 0.353208 0.662254 0.183266
H36   H     H_    0.085812 0.822495 0.241297 0.245147
H37   H     H_    0.115573 0.746939 0.255796 0.208004
H38   H     H_    0.042879 0.770661 0.150405 0.240564
H39   H     H_    0.829412 0.145822 0.845646 0.262016
H40   H     H_    0.804340 0.185180 0.720875 0.218327
H41   H     H_    0.885945 0.172664 0.806791 0.271890
H42   H     H_    0.854712 0.249646 0.783477 0.207838
H43   H     H_    0.336642 0.284568 0.773343 0.252582
H44   H     H_    0.245925 0.334784 0.716930 0.222022
H45   H     H_    0.280348 0.347466 0.825633 0.234162
H46   H     H_    0.406259 0.412901 0.599072 0.224795
H47   H     H_    0.258962 0.270142 0.780647 0.229288
H48   H     H_    0.291380 0.717056 0.792547 0.246478
H49   H     H_    0.285585 0.635745 0.717022 0.202067
H50   H     H_    0.326805 0.606362 0.823936 0.227934
H51   H     H_    0.367554 0.631099 0.795388 0.246648
H52   H     H_    0.168401 0.639586 0.140670 0.259327
H53   H     H_    0.189511 0.674935 0.060398 0.224000
H54   H     H_    0.146521 0.743787 0.031558 0.215526
H55   H     H_    0.107342 0.670009 0.987537 0.231272
H56   H     H_    0.876205 0.359371 0.986184 0.257514
H57   H     H_    0.917878 0.090919 0.605297 0.214254
H58   H     H_    0.923617 0.317857 0.123399 0.215738
H59   H     H_    0.980132 0.322166 0.119469 0.238119
H60   H     H_    0.943823 0.249481 0.102160 0.213731
H61   H     H_    0.382015 0.146251 0.976090 0.263264
H62   H     H_    0.425179 0.202324 0.105080 0.222425
H63   H     H_    0.444927 0.264477 0.074425 0.218654
H64   H     H_    0.482088 0.190806 0.103337 0.232630
H65   H     H_    0.390952 0.849350 0.996567 0.261772
H66   H     H_    0.439668 0.786401 0.123201 0.218098
H67   H     H_    0.492421 0.802903 0.114514 0.233929
H68   H     H_    0.982240 0.146329 0.673430 0.197345
H69   H     H_    0.455023 0.728605 0.081827 0.212185
H70   H     H_    0.338508 0.494403 0.562722 0.207780
H71   H     H_    0.264123 0.531342 0.495526 0.121047
H72   H     H_    0.316049 0.632268 0.560045 0.242702
H73   H     H_    0.343344 0.577310 0.643563 0.212864
H74   H     H_    0.390092 0.595883 0.623967 0.260870
H75   H     H_    0.257035 0.400977 0.319095 0.165148
H76   H     H_    0.246419 0.381949 0.389507 0.150939
H77   H     H_    0.345608 0.328070 0.489618 0.232295
H78   H     H_    0.296895 0.298416 0.380530 0.199329
H79   H     H_    0.036014 0.093802 0.228223 0.136494
H80   H     H_    0.359550 0.349892 0.424323 0.269831
H81   H     H_    0.752260 0.123562 0.387263 0.155983
H82   H     H_    0.777171 0.099588 0.335902 0.164495
H83   H     H_    0.883245 0.139633 0.468639 0.276642
H84   H     H_    0.823718 0.197300 0.406005 0.206148
H85   H     H_    0.850727 0.170399 0.506561 0.225865
H86   H     H_    0.890344 0.966469 0.546845 0.157935
H87   H     H_    0.862869 0.905902 0.468566 0.157780
H88   H     H_    0.837524 0.841958 0.536261 0.254539
H89   H     H_    0.918189 0.859378 0.609225 0.199007
H90   H     H_    0.576314 0.565972 0.269681 0.154414
H91   H     H_    0.872138 0.900680 0.618819 0.246578
H92   H     H_    0.901380 0.806219 0.920911 0.170548
H93   H     H_    0.187993 0.464593 0.312372 0.169857
H94   H     H_    0.092840 0.193172 0.052963 0.170603
H95   H     H_    0.599961 0.306472 0.089582 0.170335
H96   H     H_    0.599256 0.693473 0.085003 0.175257
H97   H     H_    0.575226 0.566850 0.382198 0.150717
H98   H     H_    0.036915 0.093789 0.342423 0.160761
H99   H     H_    0.372208 0.471413 0.185778 0.161546
H100  H     H_    0.397189 0.389925 0.202851 0.198401
H101  H     H_    0.898937 0.920498 0.208195 0.169568
H102  H     H_    0.955872 0.856610 0.261930 0.196972
H103  H     H_    0.147761 0.804266 0.119861 0.129681
H104  H     H_    0.689472 0.046299 0.309794 0.149719
H105  H     H_    0.886942 0.193099 0.979828 0.119903
H106  H     H_    0.386198 0.312789 0.950297 0.152444
H107  H     H_    0.384723 0.686222 0.950270 0.145425
H108  H     H_    0.117464 0.689389 0.168625 0.133301
H109  H     H_    0.856883 0.309710 0.873449 0.120194
H110  H     H_    0.349960 0.190980 0.850296 0.129316
H111  H     H_    0.353010 0.812664 0.863873 0.119615
H112  H     H_    0.194678 0.474533 0.098021 0.171182
H113  H     H_    0.696136 0.022903 0.098666 0.162085
H114  H     H_    0.307478 0.472375 0.211776 0.137339
H115  H     H_    0.687094 0.964665 0.331419 0.203887
H116  H     H_    0.809113 0.023709 0.214176 0.137375
H117  H     H_    0.859698 0.707812 0.914983 0.254222
H118  H     H_    0.838186 0.705440 0.781297 0.223773
H119  H     H_    0.811348 0.639255 0.797020 0.237870
H120  H     H_    0.881221 0.634095 0.822758 0.242308
H121  H     H_    0.128701 0.292071 0.048023 0.252821
H122  H     H_    0.168558 0.294695 0.194820 0.222172
H123  H     H_    0.125894 0.365706 0.161122 0.230526
H124  H     H_    0.187427 0.361055 0.167335 0.228582
H125  H     H_    0.645874 0.206391 0.106750 0.250956
H126  H     H_    0.806493 0.453540 0.716890 0.163784
H127  H     H_    0.654518 0.210117 0.227829 0.224199
H128  H     H_    0.680318 0.138536 0.220280 0.213496
H129  H     H_    0.606193 0.142027 0.182157 0.247153
H130  H     H_    0.646243 0.793428 0.104815 0.254301
H131  H     H_    0.650539 0.785972 0.223398 0.221331
H132  H     H_    0.610320 0.858968 0.183924 0.244461
H133  H     H_    0.685720 0.853643 0.225570 0.237348
H134  H     H_    0.642302 0.467008 0.531075 0.250103
H135  H     H_    0.663991 0.368851 0.511552 0.224480
H136  H     H_    0.664174 0.360733 0.594501 0.235256
H137  H     H_    0.306501 0.954425 0.717237 0.168462
H138  H     H_    0.736027 0.366782 0.624160 0.218995
H139  H     H_    0.142403 0.965512 0.531578 0.253326
H140  H     H_    0.164386 0.865579 0.517041 0.226763
H141  H     H_    0.165251 0.861513 0.600969 0.228347
H142  H     H_    0.236735 0.865945 0.629487 0.223682
H143  H     H_    0.720451 0.442187 0.857099 0.150172
H144  H     H_    0.639725 0.461020 0.764654 0.148245
H145  H     H_    0.627297 0.466708 0.867435 0.259760
H146  H     H_    0.650894 0.391709 0.864100 0.193512
H147  H     H_    0.706290 0.442946 0.954692 0.244217
H148  H     H_    0.808168 0.520482 0.951680 0.172754
H149  H     H_    0.612074 0.590781 0.724782 0.162910
H150  H     H_    0.627061 0.650537 0.684428 0.164592
H151  H     H_    0.651472 0.723875 0.793537 0.251558
H152  H     H_    0.575056 0.691932 0.724531 0.195906
H153  H     H_    0.636469 0.663798 0.834382 0.255203
H154  H     H_    0.231711 0.921599 0.817750 0.136141
H155  H     H_    0.151521 0.908714 0.751385 0.182318
H156  H     H_    0.173350 0.883396 0.882391 0.253292
H157  H     H_    0.216350 0.834983 0.873288 0.202268
H158  H     H_    0.254302 0.897821 0.950484 0.246276
H159  H     H_    0.815458 0.596458 0.918730 0.200884
H160  H     H_    0.108805 0.072505 0.740151 0.181801
H161  H     H_    0.140872 0.126781 0.716863 0.154767
H162  H     H_    0.158138 0.201571 0.820311 0.245195
H163  H     H_    0.078339 0.181774 0.729426 0.192738
H164  H     H_    0.120662 0.148187 0.834977 0.265059
H165  H     H_    0.990534 0.852419 0.784421 0.250006
H166  H     H_    0.103056 0.855788 0.892823 0.214562
H167  H     H_    0.072860 0.824809 0.933463 0.216009
H168  H     H_    0.100646 0.902841 0.959310 0.256181
H169  H     H_    0.570316 0.634376 0.863864 0.256832
H170  H     H_    0.305256 0.983105 0.934996 0.168582
H171  H     H_    0.462079 0.666404 0.749625 0.224668
H172  H     H_    0.500003 0.688114 0.858020 0.237732
H173  H     H_    0.449513 0.622252 0.806895 0.230900
H174  H     H_    0.880981 0.017212 0.639756 0.169869
H175  H     H_    0.834519 0.086536 0.583379 0.191646
H176  H     H_    0.787313 0.068485 0.638522 0.233836
H177  H     H_    0.775718 0.004121 0.575412 0.222300
H178  H     H_    0.832576 0.999259 0.692573 0.256195
H179  H     H_    0.899366 0.205472 0.709072 0.167779
H180  H     H_    0.951823 0.227046 0.700511 0.133537
N1    N     N_2   0.887218 0.684915 0.911344 -0.440891
N2    N     N_2   0.954635 0.846701 0.136805 -0.420260
N3    N     N_2   0.354349 0.489837 0.048887 -0.402415
N4    N     N_2   0.389031 0.383852 0.075387 -0.437782
N5    N     N_2   0.122808 0.810625 0.189951 -0.412273
N6    N     N_2   0.841770 0.190402 0.847185 -0.425169
N7    N     N_2   0.337761 0.306892 0.816400 -0.404801
N8    N     N_2   0.332670 0.702196 0.815814 -0.441883
N9    N     N_2   0.158069 0.684664 0.119803 -0.418596
N10   N     N_2   0.887828 0.313381 0.998011 -0.420373
N11   N     N_2   0.389754 0.192943 0.980395 -0.415012
N12   N     N_2   0.106629 0.314970 0.061187 -0.417926
N13   N     N_2   0.398215 0.803081 0.996262 -0.426468
N14   N     N_2   0.613955 0.185055 0.102890 -0.430993
N15   N     N_2   0.614918 0.814524 0.102216 -0.434566
N16   N     N_2   0.685456 0.449176 0.582076 -0.427198
N17   N     N_2   0.185731 0.948349 0.583282 -0.420708
N18   N     N_2   0.015149 0.886883 0.830570 -0.440900
N19   N     N_2   0.535592 0.609763 0.850326 -0.427735
N20   N     N_2   0.880721 0.930662 0.071463 -0.412606
O1    O     O_R   0.090190 0.500000 0.142390 -0.590988
O2    O     O_R   0.552170 0.500000 0.142340 -0.585649
O3    O     O_R   0.499940 0.552220 0.409760 -0.587458
O4    O     O_R   0.499940 0.447780 0.409760 -0.582942
O5    O     O_R   0.999940 0.052220 0.409760 -0.590074
O6    O     O_R   0.999940 0.947780 0.409760 -0.578140
O7    O     O_R   0.409830 0.552190 0.409810 -0.575282
O8    O     O_R   0.409830 0.447810 0.409810 -0.584045
O9    O     O_R   0.909830 0.052190 0.409810 -0.578417
O10   O     O_R   0.909830 0.947810 0.409810 -0.599877
O11   O     O_R   0.500050 0.552150 0.590200 -0.607006
O12   O     O_R   0.590190 0.000000 0.142390 -0.594113
O13   O     O_R   0.500050 0.447850 0.590200 -0.580139
O14   O     O_R   0.000050 0.052150 0.590200 -0.593036
O15   O     O_R   0.000050 0.947850 0.590200 -0.606443
O16   O     O_R   0.590170 0.552180 0.590150 -0.613172
O17   O     O_R   0.590170 0.447820 0.590150 -0.585802
O18   O     O_R   0.090170 0.052180 0.590150 -0.606122
O19   O     O_R   0.090170 0.947820 0.590150 -0.590970
O20   O     O_R   0.090130 0.500000 0.037950 -0.584939
O21   O     O_R   0.590130 0.000000 0.037950 -0.585382
O22   O     O_R   0.000030 0.590170 0.052220 -0.584379
O23   O     O_R   0.052180 0.909820 0.052170 -0.571296
O24   O     O_R   0.000030 0.409830 0.052220 -0.602772
O25   O     O_R   0.500030 0.090170 0.052220 -0.603560
O26   O     O_R   0.500030 0.909830 0.052220 -0.602179
O27   O     O_R   0.999970 0.590160 0.947780 -0.593829
O28   O     O_R   0.999970 0.409840 0.947780 -0.575768
O29   O     O_R   0.499970 0.090160 0.947780 -0.582129
O30   O     O_R   0.499970 0.909840 0.947780 -0.582123
O31   O     O_R   0.909850 0.500000 0.962050 -0.583541
O32   O     O_R   0.409850 0.000000 0.962050 -0.594962
O33   O     O_R   0.909790 0.500000 0.857610 -0.601667
O34   O     O_R   0.052180 0.090180 0.052170 -0.596052
O35   O     O_R   0.409790 1.000000 0.857610 -0.592584
O36   O     O_R   0.947810 0.000000 0.857560 -0.567638
O37   O     O_R   0.447810 0.500000 0.857560 -0.560644
O38   O     O_R   0.052190 0.000000 0.962010 -0.596297
O39   O     O_R   0.552190 0.500000 0.962010 -0.589127
O40   O     O_R   0.947800 0.909830 0.947720 -0.599411
O41   O     O_R   0.947800 0.090170 0.947720 -0.586172
O42   O     O_R   0.447800 0.409830 0.947720 -0.567533
O43   O     O_R   0.447800 0.590170 0.947720 -0.607256
O44   O     O_3   0.692882 0.531120 0.854945 -0.595184
O45   O     O_R   0.552180 0.409820 0.052170 -0.599909
O46   O     O_3   0.704428 0.622336 0.807833 -0.601587
O47   O     O_3   0.184681 0.985597 0.829133 -0.592115
O48   O     O_3   0.202507 0.092215 0.842046 -0.588486
O49   O     O_3   0.901398 0.092002 0.717641 -0.610972
O50   O     O_3   0.985021 0.160283 0.794119 -0.583259
O51   O     O_3   0.465014 0.338889 0.777965 -0.611310
O52   O     O_3   0.391706 0.419280 0.702289 -0.586081
O53   O     O_3   0.313417 0.551399 0.464508 -0.590384
O54   O     O_3   0.315118 0.445948 0.440281 -0.622183
O55   O     O_3   0.815137 0.051762 0.449067 -0.630896
O56   O     O_R   0.552180 0.590180 0.052170 -0.582938
O57   O     O_3   0.796808 0.948066 0.457282 -0.600485
O58   O     O_R   0.947790 0.000000 0.037880 -0.581652
O59   O     O_R   0.447790 0.500000 0.037880 -0.574877
O60   O     O_R   0.052170 0.000000 0.142340 -0.579668

loop_
_geom_bond_atom_site_label_1
_geom_bond_atom_site_label_2
_ccdc_geom_bond_type
Cu2   O8    S    
C13   C79   A    
Cu12  O11   S    
C62   H58   S    
C113  O43   A    
C48   O51   S    
C52   H20   S    
C76   C79   A    
C107  C129  S    
Cu3   O18   S    
C109  O23   A    
C4    C87   S    
C66   H72   S    
C68   C75   A    
H56   N10   S    
C55   H32   S    
Cu1   O31   S    
Cu7   O35   S    
C119  O5    A    
C125  O16   A    
C99   C143  S    
C42   H171  S    
C63   H63   S    
C58   H41   S    
C50   H11   S    
H130  N15   S    
C29   H131  S    
C99   N6    S    
Cu3   O9    S    
C81   C83   S    
C49   H10   S    
H26   N3    S    
C45   H180  S    
Cu9   O42   S    
C159  C161  A    
Cu3   O5    S    
C73   H88   S    
C124  O14   A    
Cu9   Cu11  S    
C101  C103  S    
C68   H113  S    
C104  O47   S    
C63   N11   S    
C88   N5    S    
C94   H126  S    
C32   O44   S    
C161  C163  S    
C57   H112  S    
C118  O3    A    
C45   C47   S    
Cu8   O40   S    
Cu7   O21   S    
C27   H123  S    
C124  C137  S    
C82   O55   S    
H34   N5    S    
C157  H98   S    
C34   O46   S    
C22   C139  A    
Cu12  O16   S    
C53   H25   S    
C19   C23   A    
C37   H154  S    
C37   C38   S    
C55   H33   S    
C49   H8    S    
C31   H141  S    
C90   C92   A    
C16   C20   A    
C54   H29   S    
C61   N9    S    
C92   C94   A    
C61   H54   S    
C33   H145  S    
H52   N9    S    
C37   O47   S    
C108  O39   A    
C30   N16   S    
C94   C96   A    
C41   H166  S    
C51   H14   S    
C123  O13   A    
C99   H105  S    
C82   C84   S    
C26   N1    S    
C2    N13   S    
C118  C158  S    
H30   N4    S    
H43   N7    S    
C145  C148  S    
C146  C147  S    
C2    C121  S    
C39   O48   S    
C135  C137  A    
C23   C110  S    
C72   H87   S    
C90   C105  S    
C72   C73   S    
C17   C109  S    
C46   C77   S    
C50   O52   S    
C95   C97   A    
Cu8   O41   S    
C70   O55   S    
C122  O9    A    
C59   H44   S    
C121  N8    S    
C24   C46   A    
C156  C158  A    
C24   C84   S    
C114  O31   A    
C163  H102  S    
C60   H50   S    
C151  C153  A    
H165  N18   S    
C88   H103  S    
C6    C163  S    
C119  C159  S    
C146  H68   S    
C155  C156  A    
C85   C164  S    
C25   C121  S    
C5    C89   S    
C2    H111  S    
C58   N6    S    
C77   O12   A    
C31   H140  S    
C65   H70   S    
C66   H74   S    
C44   H177  S    
Cu7   O29   S    
C47   H5    S    
C50   H12   S    
C12   H92   S    
C64   H67   S    
Cu12  O7    S    
C76   C120  S    
C28   N14   S    
C113  O56   A    
C100  C126  S    
C52   N20   S    
H17   N20   S    
C27   N12   S    
C13   C35   A    
C149  C151  A    
C20   C113  S    
C78   C80   A    
Cu1   O22   S    
C71   H83   S    
C54   H27   S    
C107  O38   A    
C33   H147  S    
C41   H168  S    
C126  O18   A    
C87   O25   A    
C123  O11   A    
C6    C149  S    
C162  H100  S    
C154  N11   S    
C70   H81   S    
Cu2   O4    S    
H121  N12   S    
H134  N16   S    
C85   O22   A    
C105  H148  S    
C38   H157  S    
C30   H135  S    
C108  C130  S    
C8    C12   A    
C115  O35   A    
C153  H79   S    
C21   C88   S    
H139  N17   S    
Cu5   Cu7   S    
C26   H120  S    
Cu11  O45   S    
C82   O57   S    
C148  O52   S    
Cu8   Cu10  S    
C69   H78   S    
H61   N11   S    
C43   O49   S    
C111  O34   A    
C56   N5    S    
C53   H23   S    
C23   C140  A    
C103  O46   S    
C80   C82   S    
C8    C164  A    
C39   C40   S    
Cu4   O10   S    
C163  H101  S    
C109  O40   A    
C147  O49   S    
C160  C162  S    
Cu5   O12   S    
C127  C129  A    
C28   H127  S    
C46   C68   A    
C47   H4    S    
C3    C9    A    
C7    C150  S    
C111  O41   A    
C132  N9    S    
C45   O50   S    
C120  O8    A    
C103  O44   S    
C103  C105  S    
C137  C144  A    
C42   N19   S    
C3    C139  A    
Cu9   O59   S    
C97   C100  A    
C51   H15   S    
C31   N17   S    
C62   H59   S    
C18   C22   A    
C75   H116  S    
C115  O32   A    
C110  H106  S    
Cu1   O24   S    
C11   N15   S    
C114  O33   A    
C72   H86   S    
C107  O36   A    
C36   H151  S    
Cu5   O32   S    
C81   O54   S    
C58   H42   S    
C72   O57   S    
C84   H104  S    
C6    N20   S    
C106  H170  S    
C154  H110  S    
C34   C36   S    
C89   O26   A    
Cu10  O38   S    
Cu4   O19   S    
C49   H9    S    
C39   H161  S    
C45   H179  S    
C88   C132  S    
C26   H118  S    
C121  H107  S    
C106  H2    S    
C116  C151  S    
C69   H80   S    
C145  H35   S    
C104  O48   S    
C62   N10   S    
C53   N2    S    
C104  C106  S    
Cu5   O25   S    
C118  O4    A    
C15   C19   A    
C34   H149  S    
C1    O20   A    
C150  C160  A    
Cu6   O27   S    
C134  H13   S    
C5    C11   A    
C7    N4    S    
C64   H66   S    
C20   C25   A    
C132  C138  S    
C136  C142  A    
C64   N13   S    
C65   O53   S    
C32   H143  S    
C12   C17   A    
C61   H53   S    
C70   C71   S    
C112  O42   A    
C67   H76   S    
Cu12  O3    S    
C146  H57   S    
C157  C159  A    
H21   N2    S    
C3    C86   S    
C158  C160  A    
C142  C145  S    
C52   H19   S    
C29   H133  S    
C21   C138  A    
C30   H138  S    
C16   H96   S    
C42   H172  S    
C77   O21   A    
C36   H153  S    
C83   H1    S    
C119  O6    A    
C144  C146  S    
C87   O29   A    
C63   H64   S    
C128  C148  S    
C145  H46   S    
C127  C147  S    
C122  O10   A    
C117  O59   A    
C29   H132  S    
C9    C14   A    
C116  O58   A    
C91   C93   A    
C42   H173  S    
C11   C16   A    
C152  C155  A    
C50   C51   S    
Cu9   O43   S    
C120  O7    A    
C18   C111  S    
C143  N10   S    
C156  H97   S    
C73   H89   S    
C48   C49   S    
C132  H108  S    
C143  H109  S    
C133  C134  A    
C130  C133  A    
C149  C161  A    
C67   O54   S    
C135  H24   S    
C43   H174  S    
C55   H31   S    
Cu1   Cu6   S    
C22   C99   S    
C44   H178  S    
C27   H124  S    
C25   C141  A    
C128  C130  A    
C48   H7    S    
C14   H94   S    
C41   N18   S    
C98   C101  A    
C13   C83   S    
C35   C57   A    
C32   C33   S    
C9    N12   S    
C37   H155  S    
Cu6   O28   S    
H117  N1    S    
C40   H163  S    
C54   H28   S    
C61   H55   S    
C33   H146  S    
C127  C144  A    
C153  C157  A    
C41   H167  S    
C17   C21   A    
C126  O19   A    
C155  H90   S    
C54   N3    S    
C70   H82   S    
C110  N7    S    
C7    N3    S    
C38   H158  S    
C30   H136  S    
C59   N7    S    
C10   N14   S    
C71   H85   S    
C117  O2    A    
C44   H176  S    
C28   H129  S    
C14   C18   A    
Cu11  O56   S    
C31   H142  S    
C43   C44   S    
Cu6   O33   S    
C63   H62   S    
C27   H122  S    
C69   H77   S    
C19   C112  S    
Cu10  O23   S    
H39   N6    S    
C53   H22   S    
C89   O30   A    
C56   H36   S    
C131  C135  A    
C10   C15   A    
C116  O60   A    
Cu10  O34   S    
Cu4   O15   S    
Cu6   O20   S    
Cu8   O36   S    
Cu10  O60   S    
Cu9   O37   S    
C74   H114  S    
C60   H49   S    
C93   C115  S    
Cu8   O58   S    
C83   H93   S    
C40   H164  S    
C28   H128  S    
C47   H3    S    
C73   H91   S    
C124  O15   A    
H125  N14   S    
C24   C80   A    
C64   H69   S    
C85   O27   A    
C86   O28   A    
C59   H45   S    
C39   H160  S    
C65   H71   S    
C66   H73   S    
Cu3   Cu4   S    
C81   O53   S    
C91   C106  S    
Cu7   O30   S    
C139  C143  S    
C133  N19   S    
C15   H95   S    
C112  O45   A    
C6    N2    S    
C97   N17   S    
C7    C162  S    
C1    O1    A    
C62   H60   S    
H169  N19   S    
C52   H18   S    
C95   H137  S    
C79   C81   S    
C96   N16   S    
C134  C136  A    
C71   H84   S    
C36   H152  S    
C96   C98   A    
C67   C69   S    
C57   C74   A    
C90   C101  A    
C110  C154  S    
C4    C140  A    
C162  H99   S    
C5    C141  A    
C100  C102  A    
H48   N8    S    
C86   O24   A    
C38   H156  S    
C102  C104  S    
C56   H37   S    
C59   H47   S    
Cu2   O17   S    
H65   N13   S    
C150  C152  A    
C26   H119  S    
C74   C76   A    
C91   C102  A    
C4    C10   A    
C148  O51   S    
C1    C35   S    
Cu11  O2    S    
C56   H38   S    
Cu3   O14   S    
C43   H175  S    
C105  H159  S    
C131  N18   S    
C8    N1    S    
C34   H150  S    
Cu2   Cu12  S    
C60   N8    S    
C147  O50   S    
C123  C136  S    
C60   H51   S    
Cu4   O6    S    
C29   N15   S    
Cu11  O39   S    
C48   H6    S    
C84   H115  S    
C128  C142  A    
Cu1   O1    S    
C117  C152  S    
C78   C122  S    
C75   C78   A    
Cu5   O26   S    
C40   H162  S    
C32   H144  S    
C93   C95   A    
C65   C66   S    
Cu2   O13   S    
C140  C154  S    
C2    C141  S    
C138  C164  A    
C108  O37   A    
C98   C125  S    
C125  O17   A    
C92   C114  S    
C55   N4    S    
C51   H16   S    
C67   H75   S    
C129  C131  A    
C58   H40   S    
