data_mof_unit_32790.cif
_audit_creation_date              2013-03-05T16:42:23-0500
_audit_creation_method            fapswitch 2.2
_symmetry_space_group_name_H-M    P1
_symmetry_Int_Tables_number       1
_space_group_crystal_system       triclinic
_cell_length_a                    9.862251
_cell_length_b                    10.654303
_cell_length_c                    15.355312
_cell_angle_alpha                 90.197116
_cell_angle_beta                  67.759821
_cell_angle_gamma                 89.616538
_cell_volume                      1493.36801798

loop_
_atom_site_label
_atom_site_type_symbol
_atom_site_description
_atom_site_fract_x
_atom_site_fract_y
_atom_site_fract_z
_atom_type_partial_charge
O1    O     O_R   0.385310 0.683210 0.499990 -0.616030
O2    O     O_R   0.614650 0.683240 0.500000 -0.583949
C1    C     C_R   0.504329 0.739794 0.492407 0.908954
O3    O     O_R   0.319830 0.499970 0.632240 -0.621003
O4    O     O_R   0.549170 0.500000 0.632250 -0.570578
C2    C     C_R   0.408328 0.493919 0.676458 0.911765
Zn1   Zn    Zn3+2 0.346870 0.499980 0.499990 0.955301
Zn2   Zn    Zn3+2 0.653130 0.500020 0.500010 1.045784
O5    O     O_R   0.385350 0.316760 0.500000 -0.628450
O6    O     O_R   0.614690 0.316790 0.500010 -0.604574
O7    O     O_R   0.450830 0.500000 0.367750 -0.625407
O8    O     O_R   0.680170 0.500030 0.367760 -0.568592
C3    C     C_R   0.502424 0.259794 0.496465 0.922755
C4    C     C_R   0.591487 0.497313 0.323541 0.878560
C5    C     C_R   0.347283 0.477883 0.779023 -0.167843
C6    C     C_R   0.644620 0.465609 0.223728 -0.020017
C7    C     C_R   0.155645 0.529840 0.928142 -0.125224
C8    C     C_R   0.206548 0.523780 0.830881 -0.247571
C9    C     C_R   0.430315 0.420173 0.825386 0.269652
C10   C     C_R   0.379709 0.426708 0.925301 -0.059790
C11   C     C_R   0.246540 0.493503 0.975421 -0.010825
C12   C     C_R   0.464000 0.381157 0.976176 0.072084
C13   C     C_R   0.442127 0.436241 0.064043 0.008684
C14   C     C_R   0.309151 0.499941 0.113041 -0.280370
C15   C     C_R   0.208951 0.524690 0.071160 0.300396
C16   C     C_R   0.568272 0.282787 0.943745 -0.093228
C17   C     C_R   0.669608 0.260231 0.985164 -0.216129
C18   C     C_R   0.666584 0.333067 0.061532 0.151660
C19   C     C_R   0.552296 0.422139 0.101385 0.111545
C20   C     C_R   0.771780 0.314476 0.101585 -0.209536
C21   C     C_R   0.758610 0.378356 0.184049 -0.144173
C22   C     C_R   0.551464 0.494574 0.177561 -0.235162
H1    H     H_    0.472129 0.569096 0.206722 0.157906
H2    H     H_    0.830362 0.353141 0.220043 0.173872
H3    H     H_    0.750978 0.186525 0.956909 0.159645
H4    H     H_    0.047683 0.569451 0.965038 0.199830
H5    H     H_    0.138574 0.562028 0.795944 0.174703
H6    H     H_    0.278882 0.529286 0.185363 0.186391
H7    H     H_    0.571078 0.220760 0.887353 0.192061
H8    H     H_    0.858574 0.245381 0.072446 0.156675
C23   C     C_R   0.389784 0.936951 0.478490 0.122071
C24   C     C_R   0.516480 0.870539 0.469748 -0.239286
C25   C     C_R   0.651670 0.935017 0.441674 0.297190
C26   C     C_R   0.647563 0.065609 0.448610 -0.264562
H9    H     H_    0.748309 0.116794 0.433961 0.196408
C27   C     C_R   0.512342 0.128608 0.478112 -0.163726
C28   C     C_R   0.388118 0.064700 0.481916 0.121022
C29   C     C_3   0.235334 0.071102 0.553544 -0.429866
C30   C     C_3   0.237032 0.929077 0.550098 -0.457894
H10   H     H_    0.229342 0.109991 0.622243 0.210091
H11   H     H_    0.157797 0.113996 0.525010 0.216913
H12   H     H_    0.232444 0.885669 0.616911 0.194916
H13   H     H_    0.160370 0.890400 0.519426 0.234357
C31   C     C_R   0.909588 0.602852 0.531181 0.310355
N1    N     N_R   0.856900 0.500860 0.500610 -0.099990
C32   C     C_R   0.952343 0.404285 0.459951 -0.055100
H14   H     H_    0.916801 0.325936 0.429171 0.141260
C33   C     C_R   0.096540 0.404541 0.459580 -0.117347
H15   H     H_    0.169768 0.326561 0.428229 0.152817
N2    N     N_R   0.142540 0.500820 0.500610 -0.110940
C34   C     C_R   0.050810 0.601376 0.533422 0.226941
C35   C     C_3   0.994177 0.651690 0.631758 -0.524194
C36   C     C_3   0.843924 0.660661 0.626508 -0.475564
H16   H     H_    0.000211 0.581029 0.683336 0.231507
H17   H     H_    0.038879 0.744529 0.638246 0.203482
H18   H     H_    0.760623 0.601316 0.678122 0.265179
H19   H     H_    0.807539 0.758962 0.623377 0.218303
N3    N     N_R   0.076936 0.592581 0.124774 0.202428
O9    O     O_R   0.004043 0.562656 0.212116 -0.375464
O10   O     O_R   0.048978 0.699868 0.094589 -0.370485
N4    N     N_R   0.790800 0.870862 0.409243 0.217174
O11   O     O_R   0.818337 0.782417 0.346070 -0.315319
O12   O     O_R   0.897676 0.914106 0.430418 -0.422391
N5    N     N_R   0.570007 0.365129 0.769807 0.185728
O13   O     O_R   0.690223 0.411689 0.772160 -0.427066
O14   O     O_R   0.577409 0.271119 0.713752 -0.408721

loop_
_geom_bond_atom_site_label_1
_geom_bond_atom_site_label_2
_geom_bond_distance
_ccdc_geom_bond_type
C5    C8    1.396871 A    
N1    C32   1.368315 A    
C1    C24   1.431734 S    
C23   C24   1.393010 A    
C9    C10   1.423713 A    
C6    C21   1.401018 A    
Zn1   O7    1.896975 S    
C16   C17   1.392856 A    
N5    O14   1.301895 A    
C13   C19   1.414877 A    
C18   C19   1.416011 A    
C8    H5    1.083222 S    
C19   C22   1.396540 A    
C20   C21   1.397102 A    
O7    C4    1.293238 A    
C16   H7    1.079347 S    
C31   C36   1.487360 S    
C33   N2    1.368624 A    
C32   H14   1.081513 S    
O5    C3    1.283510 A    
C35   H16   1.112090 S    
C2    C5    1.468842 S    
C27   C28   1.387535 A    
C29   H11   1.111712 S    
N3    O9    1.301286 A    
C14   H6    1.079606 S    
C13   C14   1.408624 A    
C7    H4    1.080966 S    
C29   H10   1.112404 S    
C36   H18   1.104697 S    
C15   N3    1.438051 S    
O3    Zn1   1.945530 S    
Zn2   N1    2.013216 S    
C23   C30   1.494645 S    
C26   C27   1.400999 A    
C12   C13   1.408513 A    
C36   H19   1.111915 S    
N5    O13   1.301235 A    
C14   C15   1.392260 A    
O3    C2    1.294244 A    
N4    O12   1.301499 A    
C17   H3    1.083771 S    
C33   H15   1.081490 S    
C7    C11   1.403729 A    
N2    C34   1.363207 A    
O1    C1    1.288915 A    
C5    C9    1.411746 A    
C25   C26   1.394216 A    
C35   C36   1.516583 S    
C28   C29   1.492771 S    
Zn2   O8    1.945527 S    
C30   H12   1.112159 S    
C7    C8    1.384918 A    
C23   C28   1.361663 A    
C21   H2    1.083031 S    
C20   H8    1.083610 S    
N3    O10   1.301404 A    
C29   C30   1.513672 S    
C10   C12   1.423263 A    
C4    C6    1.457342 S    
C24   C25   1.419376 A    
Zn1   N2    2.011529 S    
C26   H9    1.083568 S    
Zn1   O5    1.986145 S    
C11   C15   1.411198 A    
C31   N1    1.363783 A    
C25   N4    1.437291 S    
C35   H17   1.105034 S    
O1    Zn1   1.991146 S    
C9    N5    1.437353 S    
O2    Zn2   1.986145 S    
O8    C4    1.294819 A    
O6    C3    1.285301 A    
O4    Zn2   1.896975 S    
C31   C34   1.406135 A    
C6    C22   1.390180 A    
C22   H1    1.080324 S    
C18   C20   1.405323 A    
O2    C1    1.283805 A    
N4    O11   1.301372 A    
O4    C2    1.296969 A    
C30   H13   1.111590 S    
C32   C33   1.419978 A    
C34   C35   1.493775 S    
C10   C11   1.429059 A    
Zn2   O6    1.991146 S    
C12   C16   1.413601 A    
C17   C18   1.394687 A    
C3    C27   1.420257 S    
