data_mof_unit_16161.cif
_audit_creation_date              2013-03-05T16:03:51-0500
_audit_creation_method            fapswitch 2.2
_symmetry_space_group_name_H-M    P1
_symmetry_Int_Tables_number       1
_space_group_crystal_system       triclinic
_cell_length_a                    6.946463
_cell_length_b                    17.754953
_cell_length_c                    19.378649
_cell_angle_alpha                 108.777902
_cell_angle_beta                  90.071087
_cell_angle_gamma                 90.150263
_cell_volume                      2262.82146178

loop_
_atom_site_label
_atom_site_type_symbol
_atom_site_description
_atom_site_fract_x
_atom_site_fract_y
_atom_site_fract_z
_atom_type_partial_charge
O1    O     O_R   0.505700 0.440210 0.561730 -0.579574
O2    O     O_R   0.169350 0.406300 0.412660 -0.576232
O3    O     O_R   0.005650 0.559790 0.438270 -0.575867
C1    C     C_R   0.339612 0.384690 0.383805 0.986389
O4    O     O_R   0.175560 0.430650 0.559600 -0.557737
O5    O     O_R   0.011900 0.584320 0.586250 -0.583995
C2    C     C_R   0.343530 0.416155 0.581482 0.967593
O6    O     O_R   0.499450 0.415680 0.413750 -0.596000
O7    O     O_3   0.341370 0.550390 0.508570 -0.259205
V1    V     V_3+5 0.063940 0.490650 0.498410 1.225672
O8    O     O_R   0.682570 0.593700 0.587340 -0.590429
C3    C     C_R   0.850919 0.611845 0.618106 0.994180
O9    O     O_R   0.676370 0.569350 0.440400 -0.573712
C4    C     C_R   0.845075 0.583366 0.418359 0.903056
V2    V     V_3+5 0.564750 0.509350 0.501590 1.215678
O10   O     O_3   0.837190 0.449610 0.491430 -0.252942
C5    C     C_R   0.855133 0.636671 0.243178 -0.025064
H1    H     H_    0.843355 0.608410 0.184746 0.135364
C6    C     C_R   0.839653 0.590655 0.290208 -0.030891
C7    C     C_R   0.855898 0.628659 0.366459 -0.167754
C8    C     C_R   0.889762 0.710875 0.393406 -0.109999
H2    H     H_    0.904823 0.740430 0.451274 0.094778
C9    C     C_R   0.902942 0.755896 0.346224 -0.066885
H3    H     H_    0.925278 0.819562 0.368684 0.119819
C10   C     C_R   0.883089 0.719450 0.270815 0.104501
C11   C     C_R   0.731543 0.767359 0.172701 -0.017575
C12   C     C_R   0.747757 0.811652 0.123534 -0.103798
C13   C     C_R   0.911607 0.860888 0.125923 -0.144647
C14   C     C_R   0.061716 0.860685 0.174330 -0.123700
H4    H     H_    0.188769 0.897042 0.177001 0.122243
C15   C     C_R   0.049241 0.815082 0.220939 -0.129958
H5    H     H_    0.168164 0.816447 0.257526 0.158027
C16   C     C_R   0.886291 0.768197 0.220963 0.074739
H6    H     H_    0.937027 0.633673 0.948363 0.154881
C17   C     C_R   0.979967 0.895296 0.742597 -0.224306
C18   C     C_R   0.001883 0.903941 0.673835 0.307350
C19   C     C_R   0.952513 0.842170 0.611723 -0.163444
C20   C     C_R   0.896105 0.769260 0.617016 -0.191635
C21   C     C_R   0.892961 0.755597 0.685129 0.121848
C22   C     C_R   0.925991 0.820921 0.749469 0.076629
C23   C     C_R   0.865238 0.677664 0.688628 -0.264486
C24   C     C_R   0.879095 0.663621 0.757667 0.013570
C25   C     C_R   0.917922 0.730468 0.821974 0.108457
C26   C     C_R   0.919161 0.809760 0.818468 -0.229889
C27   C     C_R   0.863410 0.585783 0.766272 0.048271
C28   C     C_R   0.867343 0.578407 0.836700 0.252481
C29   C     C_R   0.912831 0.643065 0.896414 -0.154341
C30   C     C_R   0.961514 0.715244 0.888114 -0.150914
H7    H     H_    0.017952 0.945407 0.789745 0.134032
H8    H     H_    0.965509 0.849763 0.558725 0.142575
H9    H     H_    0.863605 0.722829 0.566545 0.105974
H10   H     H_    0.188364 0.462343 0.159876 0.154813
C31   C     C_R   0.502393 0.235885 0.383155 -0.091024
C32   C     C_R   0.580629 0.164929 0.386228 -0.178374
C33   C     C_R   0.601801 0.100127 0.323017 0.009397
C34   C     C_R   0.547316 0.107649 0.255910 -0.170468
C35   C     C_R   0.470641 0.179719 0.251192 0.079066
C36   C     C_R   0.443592 0.244918 0.316288 0.112397
C37   C     C_R   0.417857 0.186676 0.183022 -0.273252
C38   C     C_R   0.341633 0.259679 0.179872 0.120746
C39   C     C_R   0.325125 0.327518 0.244513 0.054322
C40   C     C_R   0.362046 0.317760 0.313895 -0.298013
C41   C     C_R   0.287530 0.266803 0.111829 -0.167840
C42   C     C_R   0.225042 0.338535 0.106078 -0.115685
C43   C     C_R   0.224808 0.405941 0.166820 -0.029908
C44   C     C_R   0.278827 0.402452 0.235222 0.079490
H11   H     H_    0.488701 0.283403 0.434340 0.127238
H12   H     H_    0.622977 0.160497 0.438623 0.153209
H13   H     H_    0.565572 0.056595 0.207531 0.144593
H14   H     H_    0.295331 0.217330 0.061728 0.108325
H15   H     H_    0.184942 0.342652 0.053393 0.139060
C45   C     C_R   0.407213 0.368846 0.757415 -0.064390
H16   H     H_    0.447429 0.400491 0.813177 0.155373
C46   C     C_R   0.403769 0.409509 0.706258 -0.092332
H17   H     H_    0.440699 0.472119 0.723830 0.143683
C47   C     C_R   0.347584 0.370789 0.633750 -0.165622
C48   C     C_R   0.281365 0.291496 0.614638 0.189208
C49   C     C_R   0.292293 0.250264 0.665276 -0.142350
H18   H     H_    0.247829 0.188508 0.648758 0.169133
C50   C     C_R   0.354747 0.288378 0.737224 0.028087
C51   C     C_R   0.205202 0.198063 0.801241 -0.008162
C52   C     C_R   0.229713 0.147079 0.843231 -0.110475
H19   H     H_    0.108832 0.111251 0.849675 0.169413
C53   C     C_R   0.406948 0.141696 0.876806 -0.199937
C54   C     C_R   0.557625 0.191977 0.870835 -0.076115
H20   H     H_    0.693512 0.191681 0.898203 0.136308
C55   C     C_R   0.534976 0.242855 0.828869 -0.021114
H21   H     H_    0.654924 0.279793 0.823980 0.134803
C56   C     C_R   0.362803 0.243835 0.790867 -0.004981
O11   O     O_R   0.273230 0.084330 0.086440 -0.592456
O12   O     O_R   0.596660 0.069390 0.940470 -0.591181
O13   O     O_R   0.760270 0.915710 0.913690 -0.568512
C57   C     C_R   0.426173 0.086782 0.920881 0.937426
O14   O     O_R   0.603330 0.093680 0.087390 -0.590233
O15   O     O_R   0.766990 0.940160 0.061660 -0.605730
C58   C     C_R   0.433722 0.116661 0.115124 0.914729
O16   O     O_R   0.266510 0.059870 0.938470 -0.606690
O17   O     O_3   0.431050 0.949630 0.991510 -0.246204
V3    V     V_3+5 0.708490 0.009340 0.001580 1.193453
O18   O     O_R   0.096270 0.930570 0.059390 -0.604776
C59   C     C_R   0.926452 0.913789 0.079654 0.901326
O19   O     O_R   0.089600 0.906290 0.912460 -0.562623
C60   C     C_R   0.921588 0.880992 0.886257 0.926086
V4    V     V_3+5 0.207670 0.990600 0.998190 1.199438
O20   O     O_3   0.935250 0.050360 0.008480 -0.277593
I1    I     I_    0.132167 0.005115 0.660072 -0.364547
I2    I     I_    0.856929 0.473660 0.681012 -0.347244
I3    I     I_    0.846096 0.469226 0.860407 -0.460139
C61   C     C_2   0.106213 0.760402 0.941199 0.593231
H22   H     H_    0.087659 0.768691 0.998637 -0.029886
O21   O     O_2   0.258639 0.779617 0.920254 -0.517002
C62   C     C_2   0.808773 0.503339 0.259153 0.530298
H23   H     H_    0.808345 0.466369 0.294136 0.014289
O22   O     O_2   0.781905 0.471456 0.193915 -0.582185
C63   C     C_2   0.680619 0.024800 0.328146 0.510580
H24   H     H_    0.726874 0.021159 0.380513 0.033374
O23   O     O_2   0.693898 0.965854 0.274320 -0.606307
I4    I     I_    0.321795 0.518583 0.310763 -0.361884
I5    I     I_    0.149154 0.231738 0.513007 -0.424633
C64   C     C_2   0.012934 0.204560 0.770317 0.481173
H25   H     H_    0.979073 0.254485 0.751749 0.058317
O24   O     O_2   0.889802 0.153826 0.764821 -0.567582
C65   C     C_2   0.547971 0.724325 0.175354 0.442862
H26   H     H_    0.457999 0.702117 0.127253 0.058878
O25   O     O_2   0.490802 0.715931 0.231996 -0.568500
C66   C     C_2   0.592600 0.805802 0.069671 0.454094
H27   H     H_    0.487118 0.852931 0.078848 0.072398
O26   O     O_2   0.581901 0.747636 0.015017 -0.567797

loop_
_geom_bond_atom_site_label_1
_geom_bond_atom_site_label_2
_geom_bond_distance
_ccdc_geom_bond_type
C36   C40   1.427605 A    
C55   H21   1.081984 S    
C66   H27   1.084637 S    
C23   C24   1.440798 A    
O2    C1    1.313239 A    
C17   C18   1.398001 A    
C1    O6    1.289149 A    
C62   O22   1.221338 D    
C51   C52   1.408989 A    
C65   H26   1.084250 S    
C21   C23   1.419616 A    
C6    C62   1.486230 S    
C51   C64   1.483080 S    
C11   C12   1.421664 A    
C19   C20   1.386629 A    
C46   C47   1.405210 A    
C38   C41   1.415036 A    
C18   C19   1.384312 A    
C61   O21   1.220879 D    
C54   H20   1.083003 S    
C20   C21   1.416952 A    
C12   C66   1.479450 S    
C49   C50   1.406990 A    
C65   O25   1.220993 D    
C32   H12   1.083728 S    
V2    O10   2.149966 S    
C1    C40   1.495616 S    
O18   V4    1.988238 S    
C34   C35   1.417100 A    
C42   H15   1.082935 S    
C50   C56   1.496195 S    
C62   H23   1.084855 S    
O13   C60   1.308599 A    
C28   C29   1.377940 A    
O8    V2    2.015453 S    
C39   C44   1.436051 A    
C15   H5    1.083097 S    
C63   O23   1.220567 D    
C28   I3    2.136035 S    
C17   H7    1.082061 S    
C9    H3    1.083267 S    
C15   C16   1.403396 A    
O1    V2    1.988226 S    
O7    V1    2.175232 S    
C51   C56   1.414365 A    
C9    C10   1.401245 A    
C30   C61   1.474315 S    
C37   C38   1.420767 A    
O9    C4    1.298411 A    
C39   C40   1.432787 A    
C13   C59   1.496216 S    
V4    O20   2.149843 S    
C26   C60   1.501911 S    
C64   O24   1.219972 D    
C54   C55   1.405527 A    
C8    C9    1.397729 A    
V3    O20   1.720543 S    
C46   H17   1.082632 S    
C18   I1    2.101795 S    
C4    C7    1.477997 S    
C47   C48   1.411115 A    
C45   C46   1.401935 A    
C21   C22   1.421025 A    
O4    C2    1.295403 A    
C49   H18   1.082643 S    
C20   H9    1.080081 S    
C48   C49   1.402590 A    
O11   C58   1.292699 A    
C38   C39   1.436232 A    
C24   C27   1.448199 A    
O14   C58   1.306276 A    
C25   C26   1.431153 A    
C14   H4    1.083364 S    
O12   C57   1.310818 A    
C11   C16   1.420877 A    
C29   C30   1.383171 A    
C41   H14   1.080942 S    
C63   H24   1.085709 S    
C31   C36   1.415794 A    
C33   C34   1.401091 A    
C5    H1    1.083694 S    
C53   C54   1.402787 A    
O19   V4    2.015585 S    
O11   V4    2.015779 S    
C11   C65   1.494276 S    
O3    C4    1.293692 A    
C52   H19   1.083475 S    
O6    V2    2.010169 S    
C52   C53   1.409559 A    
C55   C56   1.406840 A    
C24   C25   1.442104 A    
O2    V1    1.986693 S    
C57   O16   1.295222 A    
C64   H25   1.084784 S    
C3    C23   1.487981 S    
C25   C30   1.424780 A    
C32   C33   1.392795 A    
C13   C14   1.402508 A    
C66   O26   1.220252 D    
O1    C2    1.304503 A    
C45   H16   1.081175 S    
C48   I5    2.119696 S    
O5    V1    1.994054 S    
O8    C3    1.303629 A    
C31   C32   1.392069 A    
C2    C47   1.483515 S    
C5    C10   1.405752 A    
C42   C43   1.382357 A    
C6    C7    1.417302 A    
O9    V2    1.988295 S    
C17   C22   1.418746 A    
O7    V2    1.702944 S    
O4    V1    1.989328 S    
C14   C15   1.396269 A    
O3    V1    1.987870 S    
V1    O10   1.720528 S    
C61   H22   1.082692 S    
O5    C3    1.296439 A    
C19   H8    1.081856 S    
C35   C36   1.424171 A    
C33   C63   1.479073 S    
O14   V3    1.986652 S    
O17   V4    1.702783 S    
O18   C59   1.307345 A    
C5    C6    1.410263 A    
C37   C58   1.495582 S    
O15   V3    1.987829 S    
C53   C57   1.494819 S    
C43   C44   1.397658 A    
O19   C60   1.292527 A    
C31   H11   1.080089 S    
O16   V4    1.983402 S    
C35   C37   1.413852 A    
C27   I2    2.139313 S    
C41   C42   1.384581 A    
C27   C28   1.412636 A    
C22   C26   1.414224 A    
C7    C8    1.402140 A    
C45   C50   1.401473 A    
O17   V3    2.175169 S    
C44   I4    2.129777 S    
C12   C13   1.424918 A    
C34   H13   1.081901 S    
H6    C29   1.085040 S    
O12   V3    1.989355 S    
C8    H2    1.079089 S    
H10   C43   1.083081 S    
O15   C59   1.294095 A    
O13   V3    1.993894 S    
C10   C16   1.490337 S    
