data_mof_unit_28782.cif
_audit_creation_date              2012-10-26T19:04:45-0400
_audit_creation_method            fapswitch 2.2
_symmetry_space_group_name_H-M    P1
_symmetry_Int_Tables_number       1
_space_group_crystal_system       triclinic
_cell_length_a                    9.619355
_cell_length_b                    10.8371
_cell_length_c                    13.455463
_cell_angle_alpha                 92.504711
_cell_angle_beta                  72.707681
_cell_angle_gamma                 88.832075
_cell_volume                      1337.17830521

loop_
_atom_site_label
_atom_site_type_symbol
_atom_type_description
_atom_site_fract_x
_atom_site_fract_y
_atom_site_fract_z
_atom_type_partial_charge
C1    C     C_R   0.499521 0.737883 0.495651 0.555933
C2    C     C_R   0.385618 0.453071 0.809242 -0.008114
C3    C     C_R   0.234075 0.896169 0.493312 -0.099167
C4    C     C_R   0.424055 0.486084 0.698485 0.541436
C5    C     C_R   0.101849 0.963170 0.527367 -0.155872
C6    C     C_R   0.092891 0.076170 0.582034 -0.047786
C7    C     C_R   0.218436 0.128284 0.594566 0.276176
C8    C     C_R   0.357372 0.069019 0.544459 0.011620
C9    C     C_R   0.361834 0.943726 0.510341 -0.006017
C10   C     C_R   0.494506 0.873341 0.493895 -0.001439
C11   C     C_R   0.623464 0.934474 0.488307 -0.155008
C12   C     C_R   0.448203 0.438770 0.972873 0.034487
C13   C     C_R   0.622926 0.061883 0.497454 -0.167000
C14   C     C_R   0.491364 0.130471 0.522702 -0.022371
C15   C     C_R   0.916541 0.335401 0.361696 -0.091059
C16   C     C_R   0.497126 0.263506 0.508870 0.528959
C17   C     C_R   0.017886 0.253855 0.294162 -0.180104
C18   C     C_R   0.161216 0.252941 0.294147 -0.179532
C19   C     C_R   0.204304 0.333852 0.361372 -0.082784
C20   C     C_R   0.104742 0.418572 0.431899 0.137535
C21   C     C_R   0.955233 0.418925 0.431978 0.131177
C22   C     C_R   0.895591 0.576321 0.564982 0.055602
C23   C     C_R   0.493242 0.438401 0.862419 0.028628
C24   C     C_R   0.041852 0.577269 0.565959 0.327030
C25   C     C_R   0.577959 0.499475 0.300231 0.534507
C26   C     C_R   0.807031 0.491660 0.019409 -0.129596
C27   C     C_R   0.622331 0.492474 0.186130 -0.001989
C28   C     C_R   0.238959 0.436967 0.864127 -0.130092
C29   C     C_R   0.198767 0.413522 0.969566 -0.141499
C30   C     C_R   0.299977 0.419791 0.024543 -0.120795
C31   C     C_R   0.553979 0.456388 0.026630 0.029676
C32   C     C_R   0.702884 0.463456 0.969075 0.052888
C33   C     C_R   0.746985 0.439091 0.861946 -0.134028
C34   C     C_R   0.644065 0.421117 0.810062 -0.119239
C35   C     C_R   0.516177 0.472340 0.135465 -0.138090
C36   C     C_R   0.767859 0.504019 0.127571 -0.140261
Cu1   Cu    Cu3+1 0.359340 0.500010 0.500010 0.950956
Cu2   Cu    Cu3+1 0.640660 0.499990 0.499990 0.903785
H1    H     H_    0.850932 0.522848 0.165131 0.132139
H2    H     H_    0.918305 0.505282 0.974263 0.110406
H3    H     H_    0.404243 0.470731 0.182473 0.122222
H4    H     H_    0.087902 0.392585 0.010480 0.117128
H5    H     H_    0.726552 0.883982 0.473670 0.136550
H6    H     H_    0.234394 0.810728 0.449162 0.164272
H7    H     H_    0.286745 0.236157 0.687075 0.317381
H8    H     H_    0.861670 0.432843 0.818035 0.134158
H9    H     H_    0.173357 0.655599 0.631430 0.386420
H10   H     H_    0.155456 0.440134 0.825121 0.159259
H11   H     H_    0.259535 0.405102 0.106684 0.110445
H12   H     H_    0.004980 0.925137 0.514566 0.119768
H13   H     H_    0.686660 0.388965 0.729578 0.161012
H14   H     H_    0.987777 0.123139 0.615658 0.133539
H15   H     H_    0.726223 0.106625 0.483472 0.137421
H16   H     H_    0.815561 0.638745 0.618198 0.153184
H17   H     H_    0.809397 0.329109 0.355610 0.187622
H18   H     H_    0.984736 0.190996 0.241313 0.123836
H19   H     H_    0.240188 0.189432 0.241158 0.124202
H20   H     H_    0.317064 0.325732 0.354043 0.181425
N1    N     N_R   0.852480 0.498790 0.499000 -0.289676
N2    N     N_R   0.148360 0.498710 0.498970 -0.246501
O1    O     O_R   0.381190 0.680360 0.500010 -0.530106
O2    O     O_3   0.069822 0.660107 0.637428 -0.729050
O3    O     O_R   0.618760 0.680340 0.500000 -0.500004
O4    O     O_R   0.323240 0.499990 0.650990 -0.492936
O5    O     O_R   0.560820 0.499960 0.650980 -0.516692
O6    O     O_R   0.381240 0.319660 0.500000 -0.483780
O7    O     O_R   0.618810 0.319640 0.499990 -0.535099
O8    O     O_R   0.439180 0.500040 0.349020 -0.532492
O9    O     O_R   0.676760 0.500010 0.349010 -0.518547
O10   O     O_3   0.199893 0.231001 0.662044 -0.686064

loop_
_geom_bond_atom_site_label_1
_geom_bond_atom_site_label_2
_ccdc_geom_bond_type
C19   H20   S    
Cu1   O1    S    
C13   H15   S    
C11   H5    S    
Cu1   Cu2   S    
C3    C9    A    
C27   C36   A    
C20   N2    A    
C29   C30   A    
C2    C28   A    
C9    C10   A    
C4    O4    A    
C18   H19   S    
C2    C4    S    
C31   C32   A    
C12   C23   A    
Cu2   O5    S    
C24   N2    A    
C23   C34   A    
C27   C35   A    
C32   C33   A    
C7    O10   S    
C17   C18   A    
Cu2   O9    S    
C7    C8    A    
C22   H16   S    
C16   O7    A    
C13   C14   A    
Cu1   O6    S    
C26   C32   A    
C33   H8    S    
C11   C13   A    
C17   H18   S    
C26   H2    S    
C34   H13   S    
C6    C7    A    
C25   O8    A    
H9    O2    S    
C35   H3    S    
C1    O3    A    
C22   C24   A    
C26   C36   A    
C28   C29   A    
C30   H11   S    
C33   C34   A    
C22   N1    A    
C21   N1    A    
C31   C35   A    
C12   C31   A    
C5    C6    A    
C29   H4    S    
C14   C16   S    
C3    H6    S    
Cu1   N2    S    
C25   O9    A    
C10   C11   A    
Cu2   N1    S    
Cu2   O7    S    
Cu1   O8    S    
C5    H12   S    
C15   C21   A    
Cu1   O4    S    
C16   O6    A    
C20   C21   A    
Cu2   O3    S    
C2    C23   A    
C15   C17   A    
C4    O5    A    
C18   C19   A    
C24   O2    S    
C8    C14   A    
C6    H14   S    
H7    O10   S    
C12   C30   A    
C36   H1    S    
C28   H10   S    
C1    C10   S    
C19   C20   A    
C15   H17   S    
C8    C9    A    
C3    C5    A    
C25   C27   S    
C1    O1    A    
