data_mof_unit_29061.cif
_audit_creation_date              2012-12-11T15:08:58-0500
_audit_creation_method            fapswitch 2.2
_symmetry_space_group_name_H-M    P1
_symmetry_Int_Tables_number       1
_space_group_crystal_system       triclinic
_cell_length_a                    19.324475
_cell_length_b                    11.398242
_cell_length_c                    18.681611
_cell_angle_alpha                 90.000029
_cell_angle_beta                  89.470502
_cell_angle_gamma                 90.000022
_cell_volume                      4114.73012669

loop_
_atom_site_label
_atom_site_type_symbol
_atom_type_description
_atom_site_fract_x
_atom_site_fract_y
_atom_site_fract_z
_atom_type_partial_charge
C1    C     C_R   0.272127 0.043337 0.854084 0.539671
C2    C     C_R   0.727873 0.043337 0.145916 0.539670
C3    C     C_R   0.772127 0.543337 0.854084 0.539671
C4    C     C_R   0.227873 0.543337 0.145916 0.539670
C5    C     C_3   0.520310 0.723597 0.964506 -0.112034
C6    C     C_3   0.479692 0.723597 0.035493 -0.112032
C7    C     C_3   0.020309 0.223597 0.964506 -0.112034
C8    C     C_3   0.979692 0.223597 0.035493 -0.112033
C9    C     C_3   0.312347 0.528208 0.042759 -0.237683
C10   C     C_3   0.687654 0.528208 0.957241 -0.237682
C11   C     C_3   0.812346 0.028208 0.042759 -0.237683
C12   C     C_3   0.187654 0.028208 0.957241 -0.237682
C13   C     C_3   0.321769 0.554440 0.962422 -0.234695
C14   C     C_3   0.678231 0.554439 0.037578 -0.234696
C15   C     C_3   0.821769 0.054440 0.962422 -0.234695
C16   C     C_3   0.178231 0.054439 0.037578 -0.234695
C17   C     C_3   0.179902 0.522574 0.026470 -0.211337
C18   C     C_3   0.820098 0.522573 0.973530 -0.211337
C19   C     C_3   0.679902 0.022573 0.026470 -0.211337
C20   C     C_3   0.320098 0.022573 0.973530 -0.211337
C21   C     C_3   0.240395 0.706188 0.056738 -0.254070
C22   C     C_3   0.759605 0.706187 0.943262 -0.254070
C23   C     C_3   0.740395 0.206187 0.056738 -0.254070
C24   C     C_3   0.259605 0.206187 0.943262 -0.254070
C25   C     C_3   0.241337 0.574038 0.070156 0.063832
C26   C     C_3   0.758663 0.574038 0.929844 0.063833
C27   C     C_3   0.741337 0.074038 0.070156 0.063832
C28   C     C_3   0.258663 0.074038 0.929844 0.063833
C29   C     C_3   0.254800 0.610227 0.932113 0.051497
C30   C     C_3   0.745201 0.610227 0.067887 0.051497
C31   C     C_3   0.754799 0.110227 0.932113 0.051497
C32   C     C_3   0.245201 0.110226 0.067887 0.051497
C33   C     C_3   0.195004 0.524582 0.945412 -0.251121
C34   C     C_3   0.804996 0.524582 0.054588 -0.251121
C35   C     C_3   0.695004 0.024582 0.945412 -0.251121
C36   C     C_3   0.304997 0.024582 0.054588 -0.251122
C37   C     C_3   0.238128 0.724572 0.974868 -0.228295
C38   C     C_3   0.761872 0.724572 0.025132 -0.228294
C39   C     C_3   0.738128 0.224572 0.974868 -0.228294
C40   C     C_3   0.261872 0.224572 0.025132 -0.228294
C41   C     C_3   0.498591 0.700498 0.459928 -0.231509
C42   C     C_3   0.501409 0.700498 0.540072 -0.231510
C43   C     C_3   0.998592 0.200497 0.459928 -0.231510
C44   C     C_3   0.001409 0.200498 0.540072 -0.231510
C45   C     C_R   0.445134 0.817266 0.862305 0.533012
C46   C     C_R   0.554869 0.817265 0.137695 0.533010
C47   C     C_R   0.945134 0.317266 0.862305 0.533013
C48   C     C_R   0.054867 0.317265 0.137695 0.533013
C49   C     C_3   0.565360 0.896357 0.468870 -0.223551
C50   C     C_3   0.434639 0.896356 0.531130 -0.223550
C51   C     C_3   0.065361 0.396355 0.468870 -0.223549
C52   C     C_3   0.934639 0.396354 0.531130 -0.223549
C53   C     C_3   0.440792 0.892352 0.448127 -0.261188
C54   C     C_3   0.559208 0.892353 0.551873 -0.261188
C55   C     C_3   0.940792 0.392351 0.448127 -0.261186
C56   C     C_3   0.059207 0.392354 0.551873 -0.261188
C57   C     C_3   0.507617 0.827848 0.430043 0.053356
C58   C     C_3   0.492383 0.827848 0.569957 0.053356
C59   C     C_3   0.007617 0.327847 0.430043 0.053355
C60   C     C_3   0.992382 0.327848 0.569957 0.053355
C61   C     C_3   0.184401 0.665461 0.455729 -0.238401
C62   C     C_3   0.815599 0.665460 0.544271 -0.238402
C63   C     C_3   0.684401 0.165459 0.455729 -0.238402
C64   C     C_3   0.315599 0.165458 0.544271 -0.238401
C65   C     C_3   0.187230 0.672348 0.536226 -0.250587
C66   C     C_3   0.812770 0.672348 0.463774 -0.250586
C67   C     C_3   0.687230 0.172347 0.536226 -0.250586
C68   C     C_3   0.312770 0.172347 0.463774 -0.250587
C69   C     C_3   0.241559 0.471554 0.480075 -0.254066
C70   C     C_3   0.758441 0.471553 0.519924 -0.254067
C71   C     C_3   0.741559 0.971553 0.480077 -0.254068
C72   C     C_3   0.258441 0.971552 0.519924 -0.254067
C73   C     C_3   0.311711 0.633458 0.433705 -0.252807
C74   C     C_3   0.688290 0.633458 0.566295 -0.252806
C75   C     C_3   0.811710 0.133457 0.433705 -0.252806
C76   C     C_3   0.188290 0.133457 0.566295 -0.252806
C77   C     C_3   0.240840 0.577645 0.428692 0.037348
C78   C     C_3   0.759160 0.577645 0.571308 0.037346
C79   C     C_3   0.740840 0.077643 0.428693 0.037346
C80   C     C_3   0.259160 0.077643 0.571307 0.037347
C81   C     C_3   0.261890 0.636043 0.561990 0.043712
C82   C     C_3   0.738110 0.636044 0.438010 0.043713
C83   C     C_3   0.761890 0.136044 0.561990 0.043712
C84   C     C_3   0.238110 0.136044 0.438010 0.043712
C85   C     C_3   0.269410 0.500686 0.555546 0.001563
C86   C     C_3   0.730590 0.500686 0.444454 0.001564
C87   C     C_3   0.769410 0.000686 0.555547 0.001564
C88   C     C_3   0.230589 0.000686 0.444453 0.001564
C89   C     C_R   0.261889 0.642091 0.854982 0.551416
C90   C     C_R   0.738111 0.642091 0.145018 0.551416
C91   C     C_R   0.761889 0.142091 0.854982 0.551416
C92   C     C_R   0.238111 0.142091 0.145018 0.551417
C93   C     C_3   0.315911 0.688080 0.508726 -0.283375
C94   C     C_3   0.684089 0.688080 0.491274 -0.283375
C95   C     C_3   0.815910 0.188081 0.508726 -0.283378
C96   C     C_3   0.184090 0.188081 0.491274 -0.283378
C97   C     C_R   0.274736 0.040097 0.644728 0.550225
C98   C     C_R   0.725264 0.040096 0.355272 0.550222
C99   C     C_R   0.774736 0.540097 0.644728 0.550223
C100  C     C_R   0.225264 0.540098 0.355271 0.550224
C101  C     C_R   0.471601 0.822921 0.646987 0.542354
C102  C     C_R   0.528399 0.822921 0.353013 0.542354
C103  C     C_R   0.971601 0.322921 0.646988 0.542354
C104  C     C_R   0.028399 0.322921 0.353013 0.542355
C105  C     C_R   0.272261 0.679181 0.636334 0.543281
C106  C     C_R   0.727738 0.679182 0.363666 0.543282
C107  C     C_R   0.772262 0.179182 0.636334 0.543281
C108  C     C_R   0.227738 0.179182 0.363666 0.543281
C109  C     C_3   0.479224 0.915482 0.035730 -0.108820
C110  C     C_3   0.520779 0.915482 0.964269 -0.108823
C111  C     C_3   0.979223 0.415482 0.035730 -0.108822
C112  C     C_3   0.020778 0.415482 0.964270 -0.108823
C113  C     C_3   0.431140 0.818532 0.006511 -0.157394
C114  C     C_3   0.568862 0.818531 0.993489 -0.157396
C115  C     C_3   0.931139 0.318532 0.006510 -0.157394
C116  C     C_3   0.068862 0.318532 0.993489 -0.157395
C117  C     C_3   0.472693 0.820110 0.935907 0.056279
C118  C     C_3   0.527310 0.820109 0.064092 0.056280
C119  C     C_3   0.972693 0.320110 0.935907 0.056279
C120  C     C_3   0.027308 0.320110 0.064093 0.056280
Cr1   Cr    Cr6+3 0.229620 0.836040 0.749110 1.006727
Cr2   Cr    Cr6+3 0.770380 0.836040 0.250890 1.006728
Cr3   Cr    Cr6+3 0.729620 0.336040 0.749110 1.006727
Cr4   Cr    Cr6+3 0.270380 0.336040 0.250890 1.006727
Cr5   Cr    Cr6+3 0.387630 0.990680 0.750730 1.012984
Cr6   Cr    Cr6+3 0.612370 0.990680 0.249270 1.012984
Cr7   Cr    Cr6+3 0.887630 0.490680 0.750730 1.012984
Cr8   Cr    Cr6+3 0.112370 0.490680 0.249270 1.012984
Cr9   Cr    Cr6+3 0.386020 0.676590 0.749210 1.027054
Cr10  Cr    Cr6+3 0.613980 0.676590 0.250790 1.027054
Cr11  Cr    Cr6+3 0.886020 0.176590 0.749210 1.027054
Cr12  Cr    Cr6+3 0.113980 0.176590 0.250790 1.027054
H1    H     H_    0.375915 0.805866 0.017182 0.092463
H2    H     H_    0.624087 0.805865 0.982817 0.092464
H3    H     H_    0.875914 0.305865 0.017181 0.092463
H4    H     H_    0.124087 0.305865 0.982818 0.092464
H5    H     H_    0.286867 0.745713 0.080970 0.109556
H6    H     H_    0.713134 0.745713 0.919029 0.109555
H7    H     H_    0.786867 0.245713 0.080970 0.109556
H8    H     H_    0.213134 0.245713 0.919030 0.109555
H9    H     H_    0.273354 0.793731 0.958382 0.105811
H10   H     H_    0.726647 0.793731 0.041618 0.105811
H11   H     H_    0.773353 0.293732 0.958382 0.105811
H12   H     H_    0.226647 0.293731 0.041618 0.105811
H13   H     H_    0.184566 0.751156 0.961304 0.130768
H14   H     H_    0.815434 0.751156 0.038696 0.130769
H15   H     H_    0.684566 0.251156 0.961304 0.130768
H16   H     H_    0.315434 0.251156 0.038696 0.130769
H17   H     H_    0.148184 0.553157 0.916126 0.128499
H18   H     H_    0.851816 0.553157 0.083874 0.128499
H19   H     H_    0.648184 0.053157 0.916126 0.128499
H20   H     H_    0.351816 0.053158 0.083874 0.128499
H21   H     H_    0.534979 0.633177 0.440256 0.177575
H22   H     H_    0.465021 0.633177 0.559744 0.177575
H23   H     H_    0.034980 0.133178 0.440257 0.177576
H24   H     H_    0.965021 0.133178 0.559743 0.177576
H25   H     H_    0.448715 0.665445 0.441669 0.121900
H26   H     H_    0.551286 0.665446 0.558331 0.121900
H27   H     H_    0.948715 0.165444 0.441669 0.121901
H28   H     H_    0.051286 0.165446 0.558331 0.121901
H29   H     H_    0.603725 0.846287 0.575144 0.138539
H30   H     H_    0.396275 0.846287 0.424856 0.138539
H31   H     H_    0.103724 0.346291 0.575145 0.138542
H32   H     H_    0.896275 0.346284 0.424856 0.138540
H33   H     H_    0.464194 0.995570 0.065652 0.116184
H34   H     H_    0.535809 0.995570 0.934347 0.116183
H35   H     H_    0.964193 0.495570 0.065652 0.116183
H36   H     H_    0.035808 0.495570 0.934348 0.116182
H37   H     H_    0.442093 0.982506 0.425537 0.128292
H38   H     H_    0.557907 0.982506 0.574463 0.128292
H39   H     H_    0.942092 0.482505 0.425537 0.128293
H40   H     H_    0.057904 0.482509 0.574462 0.128293
H41   H     H_    0.130683 0.641823 0.441624 0.150625
H42   H     H_    0.869317 0.641820 0.558375 0.150625
H43   H     H_    0.630683 0.141819 0.441625 0.150625
H44   H     H_    0.369317 0.141818 0.558375 0.150624
H45   H     H_    0.194995 0.751310 0.431233 0.164329
H46   H     H_    0.805005 0.751308 0.568767 0.164331
H47   H     H_    0.694994 0.251307 0.431233 0.164331
H48   H     H_    0.305006 0.251306 0.568768 0.164332
H49   H     H_    0.687921 0.953365 0.488906 0.095263
H50   H     H_    0.312079 0.953364 0.511094 0.095263
H51   H     H_    0.187920 0.453368 0.488902 0.095264
H52   H     H_    0.812079 0.453366 0.511097 0.095264
H53   H     H_    0.352258 0.565233 0.425999 0.143788
H54   H     H_    0.647743 0.565234 0.574000 0.143787
H55   H     H_    0.852257 0.065233 0.426000 0.143788
H56   H     H_    0.147743 0.065233 0.574000 0.143788
H57   H     H_    0.304648 0.777733 0.499926 0.108031
H58   H     H_    0.695351 0.777733 0.500073 0.108030
H59   H     H_    0.804647 0.277734 0.499925 0.108033
H60   H     H_    0.195354 0.277734 0.500076 0.108034
H61   H     H_    0.367273 0.678499 0.530143 0.132061
H62   H     H_    0.632727 0.678498 0.469857 0.132060
H63   H     H_    0.867273 0.178499 0.530142 0.132060
H64   H     H_    0.132728 0.178501 0.469858 0.132058
H65   H     H_    0.268420 0.398674 0.454572 0.115296
H66   H     H_    0.731578 0.398675 0.545427 0.115297
H67   H     H_    0.768420 0.898673 0.454574 0.115295
H68   H     H_    0.231579 0.898674 0.545426 0.115296
H69   H     H_    0.317546 0.433989 0.052351 0.130247
H70   H     H_    0.682454 0.433989 0.947649 0.130247
H71   H     H_    0.817546 0.933989 0.052351 0.130247
H72   H     H_    0.182454 0.933988 0.947649 0.130247
H73   H     H_    0.354435 0.570369 0.073510 0.112870
H74   H     H_    0.645565 0.570369 0.926490 0.112870
H75   H     H_    0.854435 0.070369 0.073510 0.112870
H76   H     H_    0.145565 0.070369 0.926490 0.112870
H77   H     H_    0.366208 0.614901 0.954581 0.136403
H78   H     H_    0.633792 0.614900 0.045419 0.136403
H79   H     H_    0.866208 0.114901 0.954581 0.136403
H80   H     H_    0.133793 0.114900 0.045419 0.136403
H81   H     H_    0.334309 0.471791 0.933370 0.121980
H82   H     H_    0.665692 0.471790 0.066630 0.121980
H83   H     H_    0.834309 0.971790 0.933370 0.121980
H84   H     H_    0.165692 0.971790 0.066630 0.121980
H85   H     H_    0.665595 0.937152 0.047482 0.098573
H86   H     H_    0.334406 0.937152 0.952518 0.098574
H87   H     H_    0.165595 0.437152 0.047482 0.098574
H88   H     H_    0.834405 0.437152 0.952517 0.098574
H89   H     H_    0.709148 0.936594 0.925642 0.116958
H90   H     H_    0.290853 0.936593 0.074358 0.116958
H91   H     H_    0.209148 0.436594 0.925642 0.116958
H92   H     H_    0.790852 0.436594 0.074358 0.116958
O1    O     O_R   0.214130 0.708570 0.829890 -0.520661
O2    O     O_R   0.785870 0.708570 0.170110 -0.520661
O3    O     O_R   0.714130 0.208570 0.829890 -0.520661
O4    O     O_R   0.285870 0.208570 0.170110 -0.520661
O5    O     O_R   0.446360 0.919990 0.675230 -0.505651
O6    O     O_R   0.553640 0.919990 0.324770 -0.505651
O7    O     O_R   0.946360 0.419990 0.675230 -0.505651
O8    O     O_R   0.053640 0.419990 0.324770 -0.505651
O9    O     O_R   0.457170 0.717300 0.668380 -0.525588
O10   O     O_R   0.542830 0.717300 0.331620 -0.525588
O11   O     O_R   0.957170 0.217300 0.668380 -0.525588
O12   O     O_R   0.042830 0.217300 0.331620 -0.525589
O13   O     O_R   0.320870 0.624890 0.673130 -0.479523
O14   O     O_R   0.679130 0.624890 0.326870 -0.479523
O15   O     O_R   0.820870 0.124890 0.673130 -0.479523
O16   O     O_R   0.179130 0.124890 0.326870 -0.479522
O17   O     O_3   0.334430 0.834430 0.749680 -0.310292
O18   O     O_3   0.665570 0.834430 0.250320 -0.310295
O19   O     O_3   0.834430 0.334430 0.749680 -0.310293
O20   O     O_3   0.165570 0.334430 0.250320 -0.310293
O21   O     O_R   0.236050 0.959150 0.825270 -0.514240
O22   O     O_R   0.763950 0.959150 0.174730 -0.514240
O23   O     O_R   0.736050 0.459150 0.825270 -0.514240
O24   O     O_R   0.263950 0.459150 0.174730 -0.514241
O25   O     O_R   0.332100 0.076650 0.832310 -0.527331
O26   O     O_R   0.667900 0.076650 0.167690 -0.527331
O27   O     O_R   0.832100 0.576650 0.832310 -0.527331
O28   O     O_R   0.167900 0.576650 0.167690 -0.527331
O29   O     O_R   0.446500 0.918620 0.826240 -0.501055
O30   O     O_R   0.553500 0.918620 0.173760 -0.501054
O31   O     O_R   0.946500 0.418620 0.826240 -0.501056
O32   O     O_R   0.053500 0.418620 0.173760 -0.501056
O33   O     O_R   0.457310 0.715830 0.831280 -0.521851
O34   O     O_R   0.542690 0.715830 0.168720 -0.521849
O35   O     O_R   0.957310 0.215830 0.831280 -0.521851
O36   O     O_R   0.042690 0.215830 0.168720 -0.521851
O37   O     O_R   0.321000 0.623520 0.824130 -0.510667
O38   O     O_R   0.679000 0.623520 0.175870 -0.510668
O39   O     O_R   0.821000 0.123520 0.824130 -0.510667
O40   O     O_R   0.179000 0.123520 0.175870 -0.510668
O41   O     O_R   0.213990 0.710040 0.667000 -0.516222
O42   O     O_R   0.786010 0.710040 0.333000 -0.516222
O43   O     O_R   0.713990 0.210040 0.667000 -0.516223
O44   O     O_R   0.286010 0.210040 0.333000 -0.516222
O45   O     O_R   0.235920 0.960520 0.674260 -0.521087
O46   O     O_R   0.764080 0.960520 0.325740 -0.521085
O47   O     O_R   0.735920 0.460520 0.674260 -0.521087
O48   O     O_R   0.264080 0.460520 0.325740 -0.521087
O49   O     O_R   0.331960 0.078120 0.669410 -0.520308
O50   O     O_R   0.668040 0.078120 0.330590 -0.520306
O51   O     O_R   0.831960 0.578120 0.669410 -0.520307
O52   O     O_R   0.168040 0.578120 0.330590 -0.520307
H93   H     H_    0.194510 0.748761 0.082123 0.132789
H94   H     H_    0.805491 0.748761 0.917877 0.132789
H95   H     H_    0.694510 0.248761 0.082123 0.132789
H96   H     H_    0.305490 0.248761 0.917877 0.132789
H97   H     H_    0.632465 0.076172 0.036176 0.139365
H98   H     H_    0.367535 0.076172 0.963824 0.139365
H99   H     H_    0.132465 0.576172 0.036176 0.139365
H100  H     H_    0.867535 0.576172 0.963824 0.139365
H101  H     H_    0.612982 0.860037 0.447221 0.099927
H102  H     H_    0.387018 0.860035 0.552779 0.099926
H103  H     H_    0.112982 0.360029 0.447224 0.099924
H104  H     H_    0.887018 0.360030 0.552779 0.099924
H105  H     H_    0.436328 0.989613 0.547682 0.135124
H106  H     H_    0.563671 0.989614 0.452319 0.135124
H107  H     H_    0.936325 0.489611 0.547682 0.135124
H108  H     H_    0.063674 0.489612 0.452317 0.135125
H109  H     H_    0.167848 0.758728 0.553528 0.147318
H110  H     H_    0.832153 0.758728 0.446472 0.147318
H111  H     H_    0.667848 0.258727 0.553528 0.147318
H112  H     H_    0.332152 0.258727 0.446472 0.147318
H113  H     H_    0.148464 0.611173 0.559563 0.138056
H114  H     H_    0.851536 0.611173 0.440437 0.138056
H115  H     H_    0.648464 0.111172 0.559564 0.138056
H116  H     H_    0.351536 0.111172 0.440436 0.138057
C121  C     C_1   0.730185 0.941470 0.613714 0.176916
N1    N     N_1   0.700715 0.898362 0.661071 -0.320169
C122  C     C_1   0.269814 0.941469 0.386287 0.176915
N2    N     N_1   0.299284 0.898361 0.338929 -0.320169
C123  C     C_1   0.230184 0.441469 0.613712 0.176912
N3    N     N_1   0.200714 0.398361 0.661068 -0.320172
C124  C     C_1   0.769816 0.441470 0.386287 0.176915
N4    N     N_1   0.799286 0.398362 0.338930 -0.320169
H117  H     H_    0.319486 0.699673 0.391129 0.146470
H118  H     H_    0.680516 0.699673 0.608871 0.146471
H119  H     H_    0.819484 0.199671 0.391129 0.146471
H120  H     H_    0.180516 0.199671 0.608872 0.146472
H121  H     H_    0.535735 0.643125 0.935167 0.124163
H122  H     H_    0.464266 0.643125 0.064833 0.124164
H123  H     H_    0.035735 0.143126 0.935167 0.124163
H124  H     H_    0.964266 0.143125 0.064833 0.124163
C125  C     C_1   0.342264 0.460580 0.561669 0.184490
N5    N     N_1   0.398977 0.428982 0.566380 -0.329360
C126  C     C_1   0.657736 0.460581 0.438330 0.184490
N6    N     N_1   0.601023 0.428982 0.433619 -0.329360
C127  C     C_1   0.842265 0.960581 0.561670 0.184490
N7    N     N_1   0.898977 0.928983 0.566380 -0.329360
C128  C     C_1   0.157735 0.960582 0.438330 0.184490
N8    N     N_1   0.101022 0.928984 0.433619 -0.329360

loop_
_geom_bond_atom_site_label_1
_geom_bond_atom_site_label_2
_ccdc_geom_bond_type
C61   H45   S    
C82   C94   S    
C55   C59   S    
C73   C93   S    
C42   C58   S    
C29   C89   S    
C75   C95   S    
C48   C120  S    
Cr5   O49   S    
C121  N1    T    
C24   H8    S    
C57   C102  S    
C59   C104  S    
C35   H89   S    
C5    C6    S    
Cr3   O3    S    
C22   C38   S    
C29   C33   S    
Cr1   O1    S    
C30   C38   S    
C77   C100  S    
C13   H81   S    
C9    C13   S    
Cr4   O4    S    
C11   C15   S    
C12   C16   S    
C65   H113  S    
C19   H85   S    
C21   H5    S    
Cr4   O20   S    
C60   C103  S    
C41   H21   S    
C76   H56   S    
Cr2   O22   S    
Cr8   O8    S    
C113  H1    S    
C8    H124  S    
C109  C118  S    
C93   H61   S    
C50   C53   S    
C128  N8    T    
C7    C119  S    
C4    O28   A    
C15   H83   S    
Cr11  O35   S    
Cr1   O41   S    
C62   C66   S    
C24   H96   S    
Cr11  O11   S    
Cr4   O44   S    
C43   C44   S    
C94   H58   S    
C21   H93   S    
C66   C82   S    
C122  N2    T    
C11   C27   S    
C58   C101  S    
C45   O33   A    
Cr12  O12   S    
C92   O40   A    
C100  O52   A    
C102  O10   A    
Cr8   O20   S    
C89   O37   A    
C91   O39   A    
C87   C127  S    
C51   H103  S    
C48   O36   A    
Cr9   O13   S    
C94   H62   S    
C90   O2    A    
C3    C26   S    
C84   C88   S    
Cr7   O51   S    
C17   C25   S    
Cr5   O25   S    
C1    O21   A    
C76   C96   S    
C32   C92   S    
C85   C125  S    
C61   C65   S    
C127  N7    T    
Cr9   O9    S    
C78   C99   S    
C102  O6    A    
C105  O13   A    
C19   C35   S    
C75   C79   S    
C99   O51   A    
C46   O34   A    
C67   C83   S    
C80   C97   S    
C71   H49   S    
C69   C77   S    
C111  C112  S    
C18   H88   S    
Cr3   O19   S    
C4    C25   S    
C7    C8    S    
Cr12  O36   S    
Cr1   O17   S    
C68   H116  S    
C46   C118  S    
Cr7   O31   S    
C64   C68   S    
C42   H22   S    
C3    O27   A    
C83   C107  S    
C43   H27   S    
C1    O25   A    
C66   H110  S    
C105  O41   A    
C49   C57   S    
C108  O44   A    
C38   H14   S    
C52   C60   S    
Cr12  O20   S    
C61   C77   S    
Cr6   O18   S    
C64   H44   S    
C110  C114  S    
C5    H121  S    
C75   H119  S    
Cr6   O50   S    
C70   H66   S    
C49   H106  S    
C11   H75   S    
C12   H72   S    
Cr10  O34   S    
Cr11  O39   S    
C103  O7    A    
C19   H97   S    
C81   C105  S    
C30   C34   S    
C44   H24   S    
C13   H77   S    
Cr7   O19   S    
C10   C14   S    
C23   H95   S    
C36   H20   S    
C66   H114  S    
C116  C120  S    
C20   C36   S    
C7    C116  S    
Cr4   O24   S    
C114  H2    S    
C21   C37   S    
Cr6   O30   S    
C50   H105  S    
C88   C128  S    
C69   H51   S    
C113  C117  S    
C70   H52   S    
C31   C91   S    
C22   C26   S    
C87   C121  S    
C52   H107  S    
C67   H111  S    
Cr1   O45   S    
C112  C116  S    
C69   C85   S    
Cr2   O42   S    
C45   C117  S    
C3    O23   A    
C21   C25   S    
Cr4   O48   S    
C103  O11   A    
C67   H115  S    
C62   C78   S    
C76   C80   S    
C17   H87   S    
C52   H104  S    
C73   H53   S    
C22   H94   S    
C15   C31   S    
C93   H57   S    
C16   C32   S    
C115  C119  S    
C96   H60   S    
Cr12  O16   S    
C72   C80   S    
Cr10  O18   S    
C97   O45   A    
C115  H3    S    
C99   O47   A    
Cr8   O32   S    
C82   C106  S    
C54   H29   S    
C90   O38   A    
C104  O12   A    
C81   C85   S    
C83   C87   S    
C41   C42   S    
C74   C94   S    
C18   C26   S    
C30   C90   S    
C34   H18   S    
C9    C25   S    
C17   C33   S    
C37   H9    S    
C12   C28   S    
C13   C29   S    
C81   C93   S    
C43   H23   S    
C53   H30   S    
Cr3   O47   S    
Cr2   O2    S    
C14   H82   S    
C55   H39   S    
C16   H84   S    
C73   C77   S    
C76   H120  S    
C47   O35   A    
C1    C28   S    
C2    C27   S    
C73   H117  S    
C52   C55   S    
C53   H37   S    
Cr12  O40   S    
Cr1   O21   S    
C56   H40   S    
C64   C80   S    
C42   H26   S    
C20   H98   S    
Cr9   O37   S    
C110  C117  S    
C71   C79   S    
C106  O42   A    
C40   H16   S    
C124  N4    T    
C68   C84   S    
C24   C28   S    
C53   C57   S    
C82   C86   S    
C107  O15   A    
Cr10  O10   S    
C56   C60   S    
C50   C58   S    
C47   O31   A    
C6    H122  S    
C65   C81   S    
C11   H71   S    
Cr10  O38   S    
C109  H33   S    
C41   H25   S    
C33   H91   S    
C86   C124  S    
C101  O9    A    
C44   H28   S    
C31   C35   S    
C32   C36   S    
C100  O48   A    
C95   H63   S    
C91   O3    A    
C20   H86   S    
C75   H55   S    
C89   O1    A    
C112  C119  S    
C71   H67   S    
C116  H4    S    
C20   C28   S    
C22   H6    S    
Cr5   O5    S    
Cr6   O26   S    
C2    O22   A    
C41   C57   S    
C51   H108  S    
C109  C110  S    
Cr9   O17   S    
C44   C60   S    
C7    H123  S    
C84   C108  S    
C33   H17   S    
C10   H74   S    
Cr2   O46   S    
C126  N6    T    
C17   H99   S    
Cr3   O43   S    
C96   H64   S    
C18   H100  S    
C92   O4    A    
C123  N3    T    
C106  O14   A    
C29   C37   S    
C101  O5    A    
C46   O30   A    
C74   H54   S    
C62   H42   S    
C5    C114  S    
C70   C78   S    
C79   C98   S    
Cr2   O18   S    
C63   C79   S    
C98   O46   A    
C56   H31   S    
C49   H101  S    
Cr8   O28   S    
C12   H76   S    
C23   H7    S    
Cr6   O6    S    
C55   H32   S    
C2    O26   A    
C64   H48   S    
C104  O8    A    
C49   C54   S    
C112  H36   S    
C63   H47   S    
C51   C56   S    
C84   C96   S    
C35   H19   S    
C4    O24   A    
C15   H79   S    
C8    C115  S    
Cr8   O52   S    
C108  O16   A    
Cr11  O15   S    
Cr5   O17   S    
C23   C27   S    
C48   O32   A    
C98   O50   A    
C74   C78   S    
C109  C113  S    
C10   C26   S    
C47   C119  S    
C50   H102  S    
C69   H65   S    
C38   H10   S    
C88   C122  S    
C14   C30   S    
C72   C88   S    
C34   H92   S    
C63   C67   S    
C14   H78   S    
C16   H80   S    
C61   H41   S    
C5    C117  S    
C111  C120  S    
C6    C113  S    
C74   H118  S    
C72   H68   S    
C10   H70   S    
C9    H73   S    
C83   C95   S    
Cr7   O7    S    
Cr5   O29   S    
C18   C34   S    
C114  C118  S    
C9    H69   S    
C39   H11   S    
C40   H12   S    
C107  O43   A    
C71   C87   S    
C51   C59   S    
C70   C86   S    
C36   H90   S    
C19   C27   S    
C8    C120  S    
C85   C123  S    
C54   C58   S    
Cr10  O14   S    
C95   H59   S    
Cr9   O33   S    
C62   H46   S    
C63   H43   S    
C43   C59   S    
C72   H50   S    
Cr11  O19   S    
Cr3   O23   S    
C110  H34   S    
C86   C126  S    
C23   C39   S    
C68   H112  S    
C24   C40   S    
C31   C39   S    
Cr7   O27   S    
C32   C40   S    
C125  N5    T    
C65   H109  S    
C111  H35   S    
C39   H15   S    
C54   H38   S    
C111  C115  S    
C37   H13   S    
C97   O49   A    
C6    C118  S    
C45   O29   A    
