data_mof_unit_57830.cif
_audit_creation_date              2012-10-26T19:04:21-0400
_audit_creation_method            fapswitch 2.2
_symmetry_space_group_name_H-M    P1
_symmetry_Int_Tables_number       1
_space_group_crystal_system       triclinic
_cell_length_a                    15.00789
_cell_length_b                    15.64151
_cell_length_c                    9.572355
_cell_angle_alpha                 89.802173
_cell_angle_beta                  90.426669
_cell_angle_gamma                 89.782132
_cell_volume                      2246.98047078

loop_
_atom_site_label
_atom_site_type_symbol
_atom_type_description
_atom_site_fract_x
_atom_site_fract_y
_atom_site_fract_z
_atom_type_partial_charge
C1    C     C_R   0.385421 0.877255 0.501034 0.544757
C2    C     C_R   0.712472 0.223554 0.379518 -0.161903
C3    C     C_R   0.212099 0.276392 0.380405 -0.157694
C4    C     C_R   0.213458 0.722610 0.379763 -0.162426
C5    C     C_R   0.680229 0.809191 0.500590 0.012551
C6    C     C_R   0.677999 0.193798 0.506106 -0.004465
C7    C     C_R   0.181256 0.308571 0.507597 -0.005643
C8    C     C_R   0.177370 0.694119 0.505901 -0.005240
C9    C     C_R   0.664126 0.001520 0.145891 -0.090033
C10   C     C_R   0.164181 0.501788 0.145880 -0.100248
C11   C     C_R   0.744167 0.003040 0.074313 -0.178909
C12   C     C_R   0.386976 0.123692 0.500096 0.550922
C13   C     C_R   0.244208 0.503954 0.074265 -0.176162
C14   C     C_R   0.744081 0.002527 0.930437 -0.163093
C15   C     C_R   0.244099 0.504163 0.930402 -0.160156
C16   C     C_R   0.663944 0.000678 0.857344 -0.080691
C17   C     C_R   0.163956 0.502003 0.857360 -0.091475
C18   C     C_R   0.580634 0.000535 0.925957 0.144741
C19   C     C_R   0.080645 0.501122 0.925964 0.135659
C20   C     C_R   0.580644 0.000750 0.075693 0.153982
C21   C     C_R   0.080666 0.501066 0.075698 0.146458
C22   C     C_R   0.423310 0.999152 0.073071 -0.008411
C23   C     C_R   0.885697 0.377091 0.500728 0.539656
C24   C     C_R   0.923321 0.498499 0.073065 0.005586
C25   C     C_R   0.614613 0.122786 0.501185 0.531182
C26   C     C_R   0.617229 0.879832 0.500340 0.527177
C27   C     C_R   0.114364 0.622896 0.501097 0.539728
C28   C     C_R   0.115697 0.377952 0.501727 0.537332
C29   C     C_R   0.423347 0.999232 0.924995 -0.013976
C30   C     C_R   0.923354 0.498453 0.924992 -0.000432
C31   C     C_R   0.358498 0.234165 0.750063 -0.085364
C32   C     C_R   0.339400 0.778277 0.762659 -0.085705
C33   C     C_R   0.709033 0.586864 0.636185 -0.104732
C34   C     C_R   0.879617 0.617070 0.499586 0.540401
C35   C     C_R   0.844831 0.274318 0.758400 -0.080600
C36   C     C_R   0.325227 0.258043 0.880349 0.101307
C37   C     C_R   0.299395 0.757419 0.889974 0.104362
C38   C     C_R   0.627535 0.573445 0.702801 0.106492
C39   C     C_R   0.806216 0.254189 0.887181 0.103317
C40   C     C_R   0.563305 0.638027 0.702252 -0.071842
C41   C     C_R   0.717525 0.228588 0.890272 -0.086629
C42   C     C_R   0.237034 0.284537 0.890646 -0.075781
C43   C     C_R   0.211005 0.731118 0.890217 -0.084072
C44   C     C_R   0.580086 0.715742 0.635879 -0.136985
C45   C     C_R   0.281346 0.218242 0.378230 -0.150036
C46   C     C_R   0.671287 0.214140 0.765881 -0.130732
C47   C     C_R   0.185534 0.295793 0.770086 -0.135778
C48   C     C_R   0.166616 0.716541 0.764397 -0.125483
C49   C     C_R   0.662443 0.731227 0.570467 0.022126
C50   C     C_R   0.713299 0.224967 0.634800 0.012609
C51   C     C_R   0.221990 0.281427 0.635669 0.015591
C52   C     C_R   0.210634 0.726704 0.634803 0.015903
C53   C     C_R   0.303637 0.237354 0.628951 0.007295
C54   C     C_R   0.292064 0.770992 0.634300 0.003487
C55   C     C_R   0.727735 0.665745 0.570049 0.005131
C56   C     C_R   0.282090 0.781120 0.379912 -0.159041
C57   C     C_R   0.794956 0.268772 0.632362 0.000407
C58   C     C_R   0.326446 0.196800 0.501864 -0.009284
C59   C     C_R   0.322044 0.806306 0.505575 -0.014572
C60   C     C_R   0.808627 0.680041 0.498850 0.003886
C61   C     C_R   0.822862 0.305742 0.504140 -0.014411
C62   C     C_R   0.822701 0.755877 0.425147 -0.147364
C63   C     C_R   0.781221 0.282004 0.378958 -0.160799
C64   C     C_R   0.759045 0.819986 0.426141 -0.151332
Cu1   Cu    Cu3+1 0.499990 0.000000 0.640660 0.898464
Cu2   Cu    Cu3+1 0.999990 0.500000 0.640660 0.894455
Cu3   Cu    Cu3+1 0.500010 1.000000 0.359340 0.925849
Cu4   Cu    Cu3+1 0.000010 0.500000 0.359340 0.921619
H1    H     H_    0.299129 0.189699 0.279258 0.156893
H2    H     H_    0.860566 0.497120 0.868790 0.120251
H3    H     H_    0.427590 0.214641 0.744918 0.131758
H4    H     H_    0.408224 0.797196 0.766508 0.132989
H5    H     H_    0.756096 0.534350 0.634738 0.130919
H6    H     H_    0.914444 0.291632 0.758080 0.135700
H7    H     H_    0.499563 0.627682 0.751761 0.129419
H8    H     H_    0.684900 0.217545 0.989250 0.123360
H9    H     H_    0.208676 0.298278 0.991902 0.130510
H10   H     H_    0.177156 0.719798 0.988083 0.124949
H11   H     H_    0.527388 0.762664 0.633399 0.124076
H12   H     H_    0.304165 0.806477 0.280860 0.174615
H13   H     H_    0.601962 0.197169 0.775090 0.141007
H14   H     H_    0.116595 0.312505 0.785852 0.143415
H15   H     H_    0.097162 0.699512 0.771176 0.154398
H16   H     H_    0.772077 0.879106 0.370687 0.108454
H17   H     H_    0.685567 0.202510 0.280119 0.141216
H18   H     H_    0.181525 0.294836 0.281864 0.139899
H19   H     H_    0.188025 0.700421 0.280102 0.141714
H20   H     H_    0.360498 0.998523 0.127751 0.126383
H21   H     H_    0.860519 0.497251 0.127749 0.125479
H22   H     H_    0.672234 0.000650 0.255956 0.182613
H23   H     H_    0.884278 0.766215 0.369189 0.124702
H24   H     H_    0.172330 0.500365 0.255961 0.190268
H25   H     H_    0.806785 0.004089 0.131253 0.114279
H26   H     H_    0.306846 0.504824 0.131146 0.129779
H27   H     H_    0.402084 0.189676 0.013865 0.229722
H28   H     H_    0.435606 0.291355 0.987944 0.232618
H29   H     H_    0.410935 0.788907 0.003420 0.233037
H30   H     H_    0.353939 0.704188 0.062317 0.228167
H31   H     H_    0.614766 0.445241 0.694840 0.233580
H32   H     H_    0.658074 0.482783 0.845662 0.229301
H33   H     H_    0.919284 0.285374 0.996888 0.225110
H34   H     H_    0.801997 0.308391 0.279791 0.171840
H35   H     H_    0.862382 0.201311 0.058634 0.226876
H36   H     H_    0.806612 0.003361 0.874709 0.123524
H37   H     H_    0.306623 0.505063 0.874642 0.135264
H38   H     H_    0.671694 0.999615 0.747394 0.191105
H39   H     H_    0.171721 0.500197 0.747437 0.194935
H40   H     H_    0.360559 0.998648 0.868786 0.135269
N1    N     N_R   0.501200 1.000000 0.147910 -0.245541
N2    N     N_R   0.001200 0.500000 0.147910 -0.245368
N3    N     N_R   0.501270 1.000000 0.852040 -0.256618
N4    N     N_R   0.001270 0.500000 0.852040 -0.254717
N5    N     N_3   0.379761 0.252775 0.003278 -0.646119
N6    N     N_3   0.346650 0.765571 0.020010 -0.655638
N7    N     N_3   0.608981 0.493556 0.769486 -0.639418
N8    N     N_3   0.855067 0.262539 0.015776 -0.655399
O1    O     O_R   0.409820 0.909830 0.618810 -0.511876
O2    O     O_R   0.590170 0.909830 0.618760 -0.526636
O3    O     O_R   0.090170 0.590170 0.618760 -0.529403
O4    O     O_R   0.090170 0.409830 0.618760 -0.536090
O5    O     O_R   0.590190 0.090180 0.381190 -0.526168
O6    O     O_R   0.590190 0.909820 0.381190 -0.513269
O7    O     O_R   0.090190 0.590180 0.381190 -0.523221
O8    O     O_R   0.090190 0.409820 0.381190 -0.521846
O9    O     O_R   0.409820 0.090170 0.618810 -0.509343
O10   O     O_R   0.909820 0.409830 0.618810 -0.520774
O11   O     O_R   0.909820 0.590170 0.618810 -0.504586
O12   O     O_R   0.409840 0.909830 0.381240 -0.494008
O13   O     O_R   0.409840 0.090170 0.381240 -0.500902
O14   O     O_R   0.909840 0.409830 0.381240 -0.498610
O15   O     O_R   0.909840 0.590170 0.381240 -0.496022
O16   O     O_R   0.590170 0.090170 0.618760 -0.538756

loop_
_geom_bond_atom_site_label_1
_geom_bond_atom_site_label_2
_ccdc_geom_bond_type
C44   C49   A    
C33   C55   A    
Cu2   Cu4   S    
C35   H6    S    
C22   C29   A    
C5    C26   S    
C36   C42   A    
C1    O12   A    
C4    C8    A    
C24   H21   S    
Cu4   O8    S    
C21   N2    A    
C32   H4    S    
C4    H19   S    
C2    C6    A    
C19   N4    A    
C43   H10   S    
C19   C21   A    
C3    C7    A    
C1    C59   S    
H31   N7    S    
C11   C14   A    
H30   N6    S    
C6    C25   S    
Cu2   O11   S    
C2    H17   S    
C60   C62   A    
C47   H14   S    
C61   C63   A    
C56   C59   A    
Cu1   N3    S    
C62   C64   A    
Cu3   N1    S    
C64   H16   S    
C34   O11   A    
Cu1   Cu3   S    
Cu1   O2    S    
C29   H40   S    
C22   H20   S    
C43   C48   A    
C8    C52   A    
C40   C44   A    
C16   H38   S    
C12   C58   S    
C11   H25   S    
C31   H3    S    
C10   H24   S    
Cu2   O4    S    
C55   C60   A    
C4    C56   A    
C3    H18   S    
C34   C60   S    
C5    C49   A    
Cu3   O13   S    
H32   N7    S    
C63   H34   S    
C36   N5    S    
Cu3   O5    S    
Cu4   O7    S    
C32   C54   A    
C30   H2    S    
C52   C54   A    
C54   C59   A    
C10   C21   A    
C45   C58   A    
C12   O13   A    
C45   H1    S    
C24   N2    A    
C18   N3    A    
C39   C41   A    
C28   O4    A    
C27   O7    A    
C47   C51   A    
C37   N6    S    
C49   C55   A    
C3    C45   A    
C31   C53   A    
C7    C28   S    
Cu2   O10   S    
C23   O14   A    
C30   N4    A    
C51   C53   A    
Cu1   O9    S    
C37   C43   A    
Cu4   O15   S    
C35   C39   A    
C46   H13   S    
C9    C20   A    
C14   H36   S    
C23   C61   S    
C41   C46   A    
C22   N1    A    
C62   H23   S    
C28   O8    A    
Cu4   N2    S    
C32   C37   A    
C6    C50   A    
Cu4   O14   S    
C9    C11   A    
C23   O10   A    
C33   H5    S    
C34   O15   A    
Cu2   O3    S    
C13   C15   A    
C14   C16   A    
H28   N5    S    
Cu3   O6    S    
Cu1   O16   S    
C2    C63   A    
C15   C17   A    
H33   N8    S    
C50   C57   A    
C29   N3    A    
C44   H11   S    
C26   O2    A    
C10   C13   A    
C9    H22   S    
C53   C58   A    
C40   H7    S    
C57   C61   A    
C12   O9    A    
C27   O3    A    
C46   C50   A    
C33   C38   A    
C56   H12   S    
C48   H15   S    
C13   H26   S    
C35   C57   A    
C15   H37   S    
C17   H39   S    
H35   N8    S    
C7    C51   A    
Cu3   O12   S    
C41   H8    S    
C38   C40   A    
C38   N7    S    
H27   N5    S    
C17   C19   A    
C18   C20   A    
C42   C47   A    
C24   C30   A    
C20   N1    A    
C48   C52   A    
C5    C64   A    
C42   H9    S    
C16   C18   A    
C39   N8    S    
C8    C27   S    
Cu1   O1    S    
C31   C36   A    
C26   O6    A    
Cu2   N4    S    
H29   N6    S    
C1    O1    A    
C25   O16   A    
C25   O5    A    
