data_mof_unit_33141.cif
_audit_creation_date              2012-12-10T19:57:33-0500
_audit_creation_method            fapswitch 2.2
_symmetry_space_group_name_H-M    P1
_symmetry_Int_Tables_number       1
_space_group_crystal_system       triclinic
_cell_length_a                    26.093343
_cell_length_b                    26.141915
_cell_length_c                    18.276537
_cell_angle_alpha                 89.850415
_cell_angle_beta                  134.635064
_cell_angle_gamma                 90.282038
_cell_volume                      8871.33718295

loop_
_atom_site_label
_atom_site_type_symbol
_atom_type_description
_atom_site_fract_x
_atom_site_fract_y
_atom_site_fract_z
_atom_type_partial_charge
C1    C     C_R   0.891062 0.748894 0.501975 0.907450
C2    C     C_R   0.890230 0.250804 0.500908 0.914755
C3    C     C_R   0.390240 0.250060 0.500253 0.906329
C4    C     C_R   0.390550 0.751022 0.501617 0.904960
C5    C     C_R   0.460190 0.798292 0.945668 -0.094030
C6    C     C_R   0.462337 0.199745 0.945507 -0.128822
C7    C     C_R   0.952056 0.295583 0.947302 -0.090189
C8    C     C_R   0.966418 0.698212 0.944727 -0.114761
C9    C     C_R   0.443185 0.752118 0.891304 -0.080848
C10   C     C_R   0.448291 0.245215 0.890727 -0.080969
C11   C     C_R   0.945697 0.253280 0.892383 -0.090151
C12   C     C_R   0.947211 0.744580 0.889807 -0.096862
C13   C     C_R   0.478427 0.707176 0.945722 0.080133
C14   C     C_R   0.492941 0.286892 0.947199 -0.007446
C15   C     C_R   0.997949 0.215149 0.946103 0.077976
C16   C     C_R   0.986703 0.787412 0.945022 -0.039596
C17   C     C_3   0.512372 0.669451 0.929099 -0.500724
C18   C     C_3   0.505969 0.340647 0.935425 -0.346360
C19   C     C_3   0.042864 0.200125 0.926990 -0.519386
C20   C     C_3   0.991089 0.841945 0.927990 -0.357319
C21   C     C_3   0.580080 0.676113 0.043615 0.196603
C22   C     C_3   0.569984 0.340550 0.054693 0.155195
C23   C     C_3   0.108163 0.208762 0.042077 0.201751
C24   C     C_3   0.057178 0.843451 0.046300 0.131543
C25   C     C_R   0.485821 0.762761 0.419228 -0.047072
C26   C     C_R   0.490587 0.230407 0.425308 0.046921
C27   C     C_R   0.985090 0.258786 0.417355 0.003134
C28   C     C_R   0.993557 0.724524 0.430820 0.058338
C29   C     C_R   0.557764 0.752428 0.506746 -0.155647
C30   C     C_R   0.559542 0.247551 0.510252 -0.125913
C31   C     C_R   0.057648 0.252553 0.506433 -0.134383
C32   C     C_R   0.059286 0.748197 0.509666 -0.141122
C33   C     C_R   0.577069 0.745022 0.600969 -0.105881
C34   C     C_R   0.574557 0.266784 0.596211 -0.120237
C35   C     C_R   0.077324 0.249959 0.601529 -0.111850
C36   C     C_R   0.073149 0.769767 0.593413 -0.112828
C37   C     C_R   0.522731 0.746082 0.601987 -0.110296
C38   C     C_R   0.519466 0.266618 0.594589 -0.088936
C39   C     C_R   0.022667 0.252074 0.602082 -0.119928
C40   C     C_R   0.019673 0.766983 0.594821 -0.087592
C41   C     C_R   0.449349 0.753877 0.508187 -0.050984
C42   C     C_R   0.448000 0.251407 0.503273 -0.078939
C43   C     C_R   0.948764 0.253972 0.506900 -0.051055
C44   C     C_R   0.950048 0.747130 0.507583 -0.104617
C45   C     C_R   0.610628 0.750139 0.500931 0.858857
C46   C     C_R   0.612063 0.248729 0.503680 0.871262
C47   C     C_R   0.110647 0.250159 0.500932 0.883482
C48   C     C_R   0.111769 0.749139 0.503097 0.862498
C49   C     C_R   0.434534 0.762493 0.420272 -0.062222
C50   C     C_R   0.433792 0.238180 0.416004 0.027068
C51   C     C_R   0.933503 0.257796 0.417764 -0.029989
C52   C     C_R   0.937598 0.727149 0.424834 0.012455
C53   C     C_3   0.373064 0.769539 0.307047 -0.391150
C54   C     C_3   0.394677 0.192039 0.348428 -0.483580
C55   C     C_3   0.872193 0.260126 0.303496 -0.393554
C56   C     C_3   0.913200 0.673821 0.380986 -0.447510
C57   C     C_3   0.431506 0.769785 0.304421 0.556872
C58   C     C_3   0.464806 0.177397 0.379823 0.497553
C59   C     C_3   0.931216 0.261142 0.302095 0.598395
C60   C     C_3   0.979970 0.669182 0.399546 0.495843
C61   C     C_R   0.777779 0.526087 0.473335 -0.047994
C62   C     C_R   0.781456 0.474123 0.479625 -0.016118
C63   C     C_R   0.279105 0.027845 0.476329 -0.096754
C64   C     C_R   0.287639 0.975497 0.487469 -0.011484
C65   C     C_R   0.742372 0.554234 0.491512 -0.111550
C66   C     C_R   0.744793 0.445528 0.495184 -0.091859
C67   C     C_R   0.242726 0.054568 0.493648 -0.047073
C68   C     C_R   0.249319 0.946049 0.500560 -0.058845
C69   C     C_R   0.699760 0.526888 0.500680 -0.121925
C70   C     C_R   0.700206 0.472115 0.501081 -0.122887
C71   C     C_R   0.210025 0.026771 0.518816 -0.126160
C72   C     C_R   0.211870 0.972319 0.519965 -0.121869
C73   C     C_3   0.851915 0.472009 0.509193 0.113987
C74   C     C_3   0.842365 0.531291 0.488868 0.132881
C75   C     C_3   0.307450 0.974273 0.426622 0.082131
C76   C     C_3   0.275813 0.029234 0.390855 0.141530
C77   C     C_R   0.811043 0.973360 0.539199 -0.071237
C78   C     C_R   0.810013 0.025896 0.537191 -0.030475
C79   C     C_R   0.311268 0.473969 0.539525 -0.058747
C80   C     C_R   0.308575 0.526842 0.532404 -0.035713
C81   C     C_R   0.752901 0.944901 0.508680 -0.102760
C82   C     C_R   0.749689 0.053472 0.500485 -0.087736
C83   C     C_R   0.252503 0.445450 0.507942 -0.067884
C84   C     C_R   0.247567 0.553650 0.494037 -0.079024
C85   C     C_R   0.695971 0.971222 0.485664 -0.122483
C86   C     C_R   0.691522 0.024925 0.473134 -0.152229
C87   C     C_R   0.192892 0.471948 0.477167 -0.133426
C88   C     C_R   0.187372 0.525141 0.459917 -0.133957
C89   C     C_R   0.750728 0.889570 0.500907 0.858520
C90   C     C_R   0.749847 0.109891 0.498763 0.882910
C91   C     C_R   0.250674 0.389737 0.501359 0.912338
C92   C     C_R   0.249432 0.609968 0.497511 0.890568
C93   C     C_3   0.862867 0.030030 0.527610 0.422087
C94   C     C_3   0.863227 0.969047 0.528452 0.416231
C95   C     C_3   0.348717 0.528489 0.500558 0.384786
C96   C     C_3   0.360104 0.468937 0.522798 0.456951
C97   C     C_R   0.748574 0.610012 0.498462 0.921661
C98   C     C_R   0.750222 0.389939 0.500261 0.893648
C99   C     C_R   0.246876 0.110187 0.496985 0.885177
C100  C     C_R   0.250684 0.890076 0.500558 0.859661
C101  C     C_R   0.890328 0.748543 0.779192 0.839682
C102  C     C_R   0.890032 0.250864 0.779932 0.827914
C103  C     C_R   0.390423 0.248958 0.779581 0.877729
C104  C     C_R   0.389587 0.750602 0.779559 0.849286
C105  C     C_R   0.611083 0.750896 0.220055 0.914127
C106  C     C_R   0.611614 0.248870 0.220327 0.867257
C107  C     C_R   0.112133 0.251905 0.220296 0.889045
C108  C     C_R   0.111537 0.748958 0.219980 0.890640
C109  C     C_R   0.536422 0.708465 0.051451 0.050685
C110  C     C_R   0.547578 0.286489 0.050640 -0.034179
C111  C     C_R   0.056040 0.217893 0.052190 -0.035207
C112  C     C_R   0.041883 0.787942 0.048286 -0.007993
C113  C     C_R   0.555983 0.753257 0.107599 -0.072558
C114  C     C_R   0.559823 0.245006 0.108955 -0.120182
C115  C     C_R   0.059678 0.256523 0.108325 -0.068890
C116  C     C_R   0.060220 0.744998 0.108044 -0.117047
C117  C     C_R   0.516945 0.798901 0.054379 -0.075504
C118  C     C_R   0.518200 0.199676 0.055175 -0.138888
C119  C     C_R   0.010486 0.298039 0.055368 -0.062710
C120  C     C_R   0.024698 0.697863 0.054616 -0.147509
H1    H     H_    0.518015 0.683836 0.877721 0.236416
H2    H     H_    0.521839 0.341806 0.892739 0.204359
H3    H     H_    0.038252 0.227945 0.876549 0.211003
H4    H     H_    0.004036 0.846676 0.881968 0.224749
H5    H     H_    0.346511 0.807000 0.289320 0.225907
H6    H     H_    0.376493 0.166689 0.374861 0.211742
H7    H     H_    0.841989 0.296465 0.279413 0.233148
H8    H     H_    0.913304 0.647859 0.429148 0.246057
O1    O     O_3   0.750030 0.750030 0.500000 -0.542935
O2    O     O_3   0.750030 0.249970 0.500000 -0.557983
O3    O     O_3   0.250030 0.250030 0.500000 -0.550489
O4    O     O_3   0.250030 0.749970 0.500000 -0.560073
O5    O     O_R   0.689310 0.865830 0.439290 -0.654329
O6    O     O_R   0.689310 0.134170 0.439290 -0.612612
O7    O     O_R   0.189310 0.365830 0.439290 -0.645936
O8    O     O_R   0.189310 0.634170 0.439290 -0.599156
O9    O     O_R   0.750020 0.634220 0.439270 -0.611347
O10   O     O_R   0.750020 0.365780 0.439270 -0.575320
O11   O     O_R   0.250020 0.134220 0.439270 -0.569581
O12   O     O_R   0.250020 0.865780 0.439270 -0.547256
O13   O     O_R   0.896170 0.780390 0.560700 -0.591525
O14   O     O_R   0.896170 0.219610 0.560700 -0.607431
O15   O     O_R   0.396170 0.280390 0.560700 -0.593735
O16   O     O_R   0.396170 0.719610 0.560700 -0.590888
O17   O     O_R   0.664610 0.719670 0.560740 -0.634215
O18   O     O_R   0.664610 0.280330 0.560740 -0.647145
O19   O     O_R   0.164610 0.219670 0.560740 -0.631012
O20   O     O_R   0.164610 0.780330 0.560740 -0.648625
O21   O     O_R   0.835440 0.719660 0.439260 -0.614822
O22   O     O_R   0.835440 0.280340 0.439260 -0.589467
O23   O     O_R   0.335440 0.219660 0.439260 -0.608595
O24   O     O_R   0.335440 0.780340 0.439260 -0.606643
O25   O     O_R   0.603880 0.780390 0.439300 -0.575974
O26   O     O_R   0.603880 0.219610 0.439300 -0.560344
O27   O     O_R   0.103880 0.280390 0.439300 -0.604658
O28   O     O_R   0.103880 0.719610 0.439300 -0.566405
O29   O     O_R   0.810750 0.865830 0.560720 -0.572141
O30   O     O_R   0.810750 0.134170 0.560720 -0.560541
O31   O     O_R   0.310750 0.365830 0.560720 -0.572052
O32   O     O_R   0.310750 0.634170 0.560720 -0.587275
O33   O     O_R   0.750030 0.634230 0.560720 -0.623002
O34   O     O_R   0.750030 0.365770 0.560720 -0.635001
O35   O     O_R   0.250030 0.134230 0.560720 -0.646315
O36   O     O_R   0.250030 0.865770 0.560720 -0.650737
O37   O     O_R   0.896190 0.780400 0.731600 -0.657120
O38   O     O_R   0.896190 0.219600 0.731600 -0.637247
O39   O     O_R   0.396190 0.280400 0.731600 -0.645808
O40   O     O_R   0.396190 0.719600 0.731600 -0.645688
O41   O     O_R   0.664570 0.719650 0.268390 -0.604733
O42   O     O_R   0.664570 0.280350 0.268390 -0.606685
O43   O     O_R   0.164570 0.219650 0.268390 -0.581926
O44   O     O_R   0.164570 0.780350 0.268390 -0.587460
O45   O     O_R   0.835480 0.719680 0.731610 -0.623350
O46   O     O_R   0.835480 0.280320 0.731610 -0.627371
O47   O     O_R   0.335480 0.219680 0.731610 -0.628070
O48   O     O_R   0.335480 0.780320 0.731610 -0.628155
O49   O     O_R   0.603860 0.780380 0.268400 -0.602159
O50   O     O_R   0.603860 0.219620 0.268400 -0.617083
O51   O     O_R   0.103860 0.280380 0.268400 -0.602150
O52   O     O_R   0.103860 0.719620 0.268400 -0.605095
Zn1   Zn    Zn3+2 0.663280 0.793400 0.413250 1.096393
Zn2   Zn    Zn3+2 0.663280 0.206600 0.413250 1.129666
Zn3   Zn    Zn3+2 0.163280 0.293400 0.413250 1.094389
Zn4   Zn    Zn3+2 0.163280 0.706600 0.413250 1.143859
Zn5   Zn    Zn3+2 0.836780 0.793410 0.586750 1.080635
Zn6   Zn    Zn3+2 0.836780 0.206590 0.586750 1.107916
Zn7   Zn    Zn3+2 0.336780 0.293410 0.586750 1.102179
Zn8   Zn    Zn3+2 0.336780 0.706590 0.586750 1.111719
Zn9   Zn    Zn3+2 0.750030 0.706650 0.586760 1.088829
Zn10  Zn    Zn3+2 0.750030 0.293350 0.586760 1.075480
Zn11  Zn    Zn3+2 0.250030 0.206650 0.586760 1.080778
Zn12  Zn    Zn3+2 0.250030 0.793350 0.586760 1.066642
Zn13  Zn    Zn3+2 0.750010 0.706640 0.413230 1.094677
Zn14  Zn    Zn3+2 0.750010 0.293360 0.413230 1.137791
Zn15  Zn    Zn3+2 0.250010 0.206640 0.413230 1.134681
Zn16  Zn    Zn3+2 0.250010 0.793360 0.413230 1.143922
C121  C     C_2   0.541968 0.848525 0.110140 0.964611
O53   O     O_2   0.604777 0.861640 0.165326 -0.605031
O54   O     O_R   0.494076 0.880049 0.099726 -0.702932
H9    H     H_    0.517805 0.912633 0.141694 0.367296
C122  C     C_2   0.537081 0.151227 0.112019 0.975547
O55   O     O_2   0.597175 0.133060 0.164513 -0.605027
O56   O     O_R   0.486925 0.127172 0.107390 -0.695257
H10   H     H_    0.506388 0.094699 0.149822 0.394955
C123  C     C_2   0.026078 0.347172 0.109506 0.980321
O57   O     O_2   0.086751 0.365509 0.168007 -0.589498
O58   O     O_R   0.971453 0.373057 0.091787 -0.704191
H11   H     H_    0.988941 0.406161 0.132180 0.375887
C124  C     C_2   0.053685 0.648025 0.110460 0.974300
O59   O     O_2   0.118725 0.642147 0.181768 -0.576252
O60   O     O_R   0.007272 0.607074 0.078694 -0.743846
H12   H     H_    0.033836 0.573699 0.112682 0.379124
C125  C     C_2   0.319203 0.726038 0.252517 1.067758
O61   O     O_2   0.324897 0.690023 0.300701 -0.547374
O62   O     O_R   0.261456 0.727942 0.145712 -0.706704
H13   H     H_    0.228179 0.697266 0.117126 0.361680
C126  C     C_2   0.335024 0.206390 0.236427 1.144712
O63   O     O_2   0.326935 0.250849 0.209095 -0.477745
O64   O     O_R   0.293927 0.167564 0.163397 -0.730713
H14   H     H_    0.261756 0.180261 0.090278 0.386848
C127  C     C_2   0.822987 0.214041 0.255348 1.050570
O65   O     O_2   0.831920 0.179611 0.308674 -0.544028
O66   O     O_R   0.766405 0.211244 0.148436 -0.715714
H15   H     H_    0.736646 0.178882 0.124424 0.358276
C128  C     C_2   0.843721 0.672827 0.268612 1.151485
O67   O     O_2   0.823402 0.710960 0.215424 -0.479675
O68   O     O_R   0.808127 0.626157 0.223395 -0.669942
H16   H     H_    0.768312 0.627608 0.145877 0.409288
S1    S     S_3+6 0.437613 0.831085 0.266077 0.139159
O69   O     O_2   0.364796 0.845336 0.163656 -0.154410
O70   O     O_2   0.461369 0.870770 0.344366 -0.287017
O71   O     O_3   0.496440 0.829178 0.255290 -0.453269
H17   H     H_    0.515806 0.864407 0.270480 0.398576
S2    S     S_3+6 0.513840 0.128917 0.480240 0.099744
O72   O     O_2   0.593177 0.139750 0.555053 -0.207196
O73   O     O_2   0.493148 0.130821 0.538904 -0.242200
O74   O     O_3   0.497853 0.069338 0.433324 -0.451195
H18   H     H_    0.453251 0.071321 0.359377 0.368840
S3    S     S_3+6 0.932015 0.320963 0.254342 0.132140
O75   O     O_2   0.858614 0.330546 0.149012 -0.144462
O76   O     O_2   0.950648 0.363618 0.324860 -0.315783
O77   O     O_3   0.992252 0.319493 0.246320 -0.457486
H19   H     H_    0.022579 0.350400 0.283112 0.396428
S4    S     S_3+6 0.045965 0.627203 0.507209 0.123837
O78   O     O_2   0.115332 0.628644 0.534553 -0.244494
O79   O     O_2   0.060969 0.644546 0.599134 -0.266624
O80   O     O_3   0.014837 0.566764 0.479800 -0.373101
H20   H     H_    0.980072 0.563776 0.404163 0.407718
S5    S     S_3+6 0.429987 0.717113 0.239196 0.115039
O81   O     O_2   0.365586 0.722312 0.125399 -0.147113
O82   O     O_2   0.496884 0.717575 0.260061 -0.274694
O83   O     O_3   0.424780 0.660788 0.278452 -0.485305
H21   H     H_    0.466789 0.660439 0.353935 0.340869
S6    S     S_3+6 0.459501 0.165149 0.276515 0.059005
O84   O     O_2   0.529895 0.146120 0.318151 -0.244317
O85   O     O_2   0.403252 0.125196 0.204327 -0.259345
O86   O     O_3   0.438253 0.219507 0.210857 -0.522815
H22   H     H_    0.439362 0.210495 0.159370 0.407092
S7    S     S_3+6 0.936583 0.206405 0.247825 0.085634
O87   O     O_2   0.870965 0.204471 0.133933 -0.190814
O88   O     O_2   0.002570 0.210349 0.266711 -0.292517
O89   O     O_3   0.941439 0.152430 0.302733 -0.543718
H23   H     H_    0.944454 0.124465 0.269441 0.411022
S8    S     S_3+6 0.964768 0.656862 0.287339 0.069032
O90   O     O_2   0.034050 0.645970 0.318220 -0.240173
O91   O     O_2   0.916022 0.611322 0.228971 -0.264879
O92   O     O_3   0.926978 0.708327 0.209818 -0.510979
H24   H     H_    0.922670 0.699358 0.153044 0.399008
C129  C     C_2   0.651779 0.555549 0.502763 0.967939
O93   O     O_2   0.655884 0.549210 0.573022 -0.501315
O94   O     O_R   0.603557 0.591277 0.425660 -0.772602
H25   H     H_    0.575180 0.609405 0.436678 0.355566
C130  C     C_2   0.651621 0.442647 0.501531 0.970678
O95   O     O_2   0.656790 0.446882 0.573092 -0.496066
O96   O     O_R   0.601771 0.408426 0.421441 -0.777161
H26   H     H_    0.572775 0.389643 0.431096 0.365546
C131  C     C_2   0.166239 0.054200 0.530365 0.974338
O97   O     O_2   0.178364 0.048338 0.607741 -0.502590
O98   O     O_R   0.112161 0.087712 0.453254 -0.769097
H27   H     H_    0.086879 0.104835 0.470407 0.375305
C132  C     C_2   0.167374 0.943214 0.528820 0.987350
O99   O     O_2   0.182320 0.944225 0.608934 -0.496510
O100  O     O_R   0.109724 0.913411 0.446104 -0.759897
H28   H     H_    0.084314 0.894541 0.461786 0.368513
S9    S     S_3+6 0.850055 0.431113 0.428021 0.158936
O101  O     O_2   0.869939 0.378058 0.471450 -0.274169
O102  O     O_2   0.776453 0.429883 0.320099 -0.164732
O103  O     O_3   0.911701 0.450334 0.428240 -0.413108
H29   H     H_    0.897995 0.432928 0.368472 0.421099
S10   S     S_3+6 0.811502 0.553830 0.370055 0.134484
O104  O     O_2   0.866033 0.543589 0.366233 -0.152089
O105  O     O_2   0.741299 0.528742 0.279322 -0.197987
O106  O     O_3   0.799455 0.617212 0.362773 -0.552746
H30   H     H_    0.749482 0.623464 0.296573 0.402238
S11   S     S_3+6 0.268914 0.928747 0.326543 0.174470
O107  O     O_2   0.192735 0.916639 0.270902 -0.182959
O108  O     O_2   0.271131 0.949815 0.252193 -0.134756
O109  O     O_3   0.318414 0.875207 0.377981 -0.501905
H31   H     H_    0.359634 0.881902 0.386209 0.369903
S12   S     S_3+6 0.181521 0.035516 0.269191 0.114422
O110  O     O_2   0.169987 0.018845 0.179930 -0.148120
O111  O     O_2   0.134698 0.003843 0.272012 -0.268158
O112  O     O_3   0.155326 0.096693 0.249871 -0.525773
H32   H     H_    0.103758 0.096571 0.184253 0.383347
C133  C     C_2   0.915292 0.457512 0.621334 0.888602
O113  O     O_2   0.906089 0.444117 0.675636 -0.611940
O114  O     O_R   0.984933 0.459322 0.662180 -0.672233
H33   H     H_    0.022915 0.448787 0.737138 0.377146
C134  C     C_2   0.903655 0.564118 0.579188 0.883686
O115  O     O_2   0.901112 0.582935 0.637731 -0.648329
O116  O     O_R   0.964541 0.571737 0.596605 -0.651259
H34   H     H_    0.002368 0.593682 0.659458 0.390862
C135  C     C_2   0.389309 0.971770 0.500491 0.853058
O117  O     O_2   0.427456 0.959858 0.590662 -0.566799
O118  O     O_R   0.420777 0.981589 0.463861 -0.708321
H35   H     H_    0.475157 0.978368 0.519365 0.395518
C136  C     C_2   0.322157 0.066616 0.396363 0.975075
O119  O     O_2   0.361712 0.096626 0.467955 -0.583602
O120  O     O_R   0.320493 0.064572 0.318363 -0.697870
H36   H     H_    0.356204 0.088149 0.330026 0.354122
C137  C     C_2   0.644534 0.942961 0.482609 0.968537
O121  O     O_2   0.579505 0.947113 0.409191 -0.541160
O122  O     O_R   0.671509 0.910407 0.563892 -0.782970
H37   H     H_    0.631935 0.892471 0.552778 0.370682
C138  C     C_2   0.624717 0.049539 0.429068 1.054460
O123  O     O_2   0.624912 0.076795 0.483048 -0.501422
O124  O     O_R   0.561122 0.039300 0.326928 -0.723933
H38   H     H_    0.516591 0.052248 0.307955 0.400327
C139  C     C_2   0.135441 0.443904 0.460499 0.999630
O125  O     O_2   0.073160 0.444217 0.376241 -0.569551
O126  O     O_R   0.153891 0.415425 0.541037 -0.753947
H39   H     H_    0.110965 0.397026 0.520276 0.377387
C140  C     C_2   0.114652 0.547068 0.388038 1.089828
O127  O     O_2   0.080598 0.548632 0.410808 -0.521899
O128  O     O_R   0.082175 0.560009 0.289185 -0.739673
H40   H     H_    0.028570 0.566100 0.240635 0.392670
S13   S     S_3+6 0.944513 0.062329 0.639773 0.170640
O129  O     O_2   0.954600 0.053359 0.730362 -0.157117
O130  O     O_2   0.009573 0.043526 0.664607 -0.176778
O131  O     O_3   0.940736 0.125694 0.622829 -0.463393
H41   H     H_    0.966084 0.132125 0.601383 0.386719
S14   S     S_3+6 0.947207 0.937608 0.638623 0.179811
O132  O     O_2   0.002901 0.946553 0.636189 -0.134112
O133  O     O_2   0.975017 0.956730 0.738665 -0.200395
O134  O     O_3   0.937331 0.874128 0.635956 -0.456936
H42   H     H_    0.960951 0.864391 0.706215 0.385205
S15   S     S_3+6 0.427425 0.570215 0.581769 0.157201
O135  O     O_2   0.409967 0.621484 0.531943 -0.228224
O136  O     O_2   0.451978 0.578740 0.683676 -0.203313
O137  O     O_3   0.495548 0.546160 0.600770 -0.412892
H43   H     H_    0.476280 0.543192 0.531079 0.384422
S16   S     S_3+6 0.448522 0.447755 0.642190 0.163895
O138  O     O_2   0.500172 0.447507 0.630741 -0.154378
O139  O     O_2   0.477347 0.481410 0.730892 -0.187841
O140  O     O_3   0.444429 0.387887 0.671304 -0.477954
H44   H     H_    0.489980 0.383219 0.744301 0.392776
S17   S     S_3+6 0.824442 0.063145 0.410794 0.107102
O141  O     O_2   0.822341 0.119588 0.423174 -0.286241
O142  O     O_2   0.870371 0.054330 0.390451 -0.182533
O143  O     O_3   0.739431 0.044462 0.308810 -0.475611
H45   H     H_    0.724747 0.063940 0.250021 0.414099
S18   S     S_3+6 0.823387 0.935967 0.410799 0.134245
O144  O     O_2   0.859712 0.952442 0.377634 -0.147220
O145  O     O_2   0.833677 0.879206 0.428700 -0.279760
O146  O     O_3   0.734451 0.946914 0.314797 -0.460657
H46   H     H_    0.710874 0.919325 0.319606 0.367418
S19   S     S_3+6 0.287980 0.549531 0.367028 0.115754
O147  O     O_2   0.273292 0.605730 0.360281 -0.247876
O148  O     O_2   0.321653 0.541109 0.327123 -0.191612
O149  O     O_3   0.208193 0.519158 0.291594 -0.487877
H47   H     H_    0.178804 0.534413 0.222516 0.405475
S20   S     S_3+6 0.327660 0.426394 0.418700 0.108743
O150  O     O_2   0.355527 0.443957 0.373639 -0.203210
O151  O     O_2   0.355552 0.373368 0.459696 -0.263546
O152  O     O_3   0.237331 0.422873 0.325822 -0.510231
H48   H     H_    0.226199 0.400253 0.272722 0.412857
C141  C     C_2   0.426013 0.847121 0.889023 0.982791
O153  O     O_2   0.385605 0.869263 0.890522 -0.511242
O154  O     O_R   0.438577 0.866706 0.831513 -0.772763
H49   H     H_    0.411331 0.899586 0.794657 0.360119
C142  C     C_2   0.423782 0.151501 0.888856 0.972903
O155  O     O_2   0.387209 0.129843 0.898529 -0.514305
O156  O     O_R   0.427972 0.131773 0.822160 -0.782435
H50   H     H_    0.398513 0.099320 0.786438 0.360392
C143  C     C_2   0.904472 0.340654 0.891964 1.009446
O157  O     O_2   0.855197 0.347041 0.885851 -0.530451
O158  O     O_R   0.915638 0.375107 0.845635 -0.747832
H51   H     H_    0.879282 0.403932 0.809018 0.377122
C144  C     C_2   0.930043 0.650049 0.887065 1.002521
O159  O     O_2   0.881107 0.633019 0.875741 -0.517844
O160  O     O_R   0.951122 0.624801 0.844518 -0.762886
H52   H     H_    0.922433 0.592278 0.807215 0.383063
C145  C     C_2   0.476259 0.617192 0.895577 1.011481
O161  O     O_2   0.421499 0.610439 0.876533 -0.512640
O162  O     O_R   0.504588 0.576232 0.884611 -0.640468
H53   H     H_    0.548351 0.586325 0.898572 0.375444
C146  C     C_2   0.445051 0.376993 0.891019 0.958810
O163  O     O_2   0.390377 0.362035 0.867058 -0.572219
O164  O     O_R   0.451570 0.428151 0.876151 -0.684245
H54   H     H_    0.407572 0.449064 0.845080 0.378302
C147  C     C_2   0.026891 0.146402 0.885170 1.132010
O165  O     O_2   0.984108 0.119207 0.875269 -0.491631
O166  O     O_R   0.061008 0.127328 0.857092 -0.615612
H55   H     H_    0.096650 0.152460 0.870911 0.357998
C148  C     C_2   0.924359 0.871307 0.882654 0.987541
O167  O     O_2   0.896020 0.864567 0.913971 -0.569727
O168  O     O_R   0.894413 0.905716 0.802628 -0.727191
H56   H     H_    0.849380 0.922752 0.776902 0.370760
S21   S     S_3+6 0.645745 0.714366 0.061465 0.046160
O169  O     O_2   0.707437 0.726117 0.173528 -0.276439
O170  O     O_2   0.671535 0.686169 0.020906 -0.235399
O171  O     O_3   0.608355 0.769740 0.996753 -0.555241
H57   H     H_    0.647822 0.788883 0.012016 0.418051
S22   S     S_3+6 0.655157 0.343769 0.093176 0.119405
O172  O     O_2   0.664201 0.396232 0.069641 -0.108503
O173  O     O_2   0.716349 0.333939 0.206313 -0.246759
O174  O     O_3   0.657489 0.300570 0.027496 -0.477634
H58   H     H_    0.647889 0.267204 0.041752 0.358435
S23   S     S_3+6 0.154117 0.267107 0.061544 0.042046
O175  O     O_2   0.210728 0.280479 0.173959 -0.268620
O176  O     O_2   0.187780 0.260279 0.021292 -0.242343
O177  O     O_3   0.094955 0.315519 0.996686 -0.555974
H59   H     H_    0.124669 0.346394 0.017097 0.411507
S24   S     S_3+6 0.138747 0.850720 0.075775 0.144508
O178  O     O_2   0.148643 0.906070 0.065759 -0.090350
O179  O     O_2   0.202629 0.832457 0.182615 -0.225039
O180  O     O_3   0.133595 0.816512 0.992870 -0.480331
H60   H     H_    0.129883 0.780392 0.005234 0.358600
C149  C     C_2   0.610318 0.628110 0.108204 0.883363
O181  O     O_2   0.642206 0.597296 0.101992 -0.519344
O182  O     O_R   0.601062 0.618542 0.173696 -0.770648
H61   H     H_    0.623309 0.585005 0.212105 0.375384
C150  C     C_2   0.565207 0.378007 0.112895 0.964997
O183  O     O_2   0.550891 0.363145 0.160392 -0.609653
O184  O     O_R   0.577576 0.430022 0.112231 -0.672271
H62   H     H_    0.573569 0.451396 0.154232 0.368373
C151  C     C_2   0.159826 0.164694 0.108223 0.903903
O185  O     O_2   0.207852 0.170051 0.201346 -0.528245
O186  O     O_R   0.156433 0.119117 0.065253 -0.737177
H63   H     H_    0.196749 0.094676 0.118408 0.431550
C152  C     C_2   0.050342 0.879634 0.103333 1.032320
O187  O     O_2   0.052275 0.863613 0.168180 -0.595641
O188  O     O_R   0.039671 0.931690 0.079089 -0.685702
H64   H     H_    0.029871 0.951591 0.115646 0.393828
C153  C     C_2   0.653939 0.740309 0.698739 0.979447
O189  O     O_2   0.694570 0.776811 0.731324 -0.594463
O190  O     O_R   0.680120 0.693779 0.751510 -0.676493
H65   H     H_    0.733575 0.695180 0.816315 0.379252
C154  C     C_2   0.649192 0.280877 0.692252 1.002913
O191  O     O_2   0.696473 0.248457 0.739277 -0.558685
O192  O     O_R   0.665224 0.331314 0.727772 -0.676023
H66   H     H_    0.717566 0.336102 0.794445 0.403997
C155  C     C_2   0.154519 0.249202 0.699438 0.994227
O193  O     O_2   0.192813 0.286127 0.723904 -0.585073
O194  O     O_R   0.183720 0.205683 0.761695 -0.690599
H67   H     H_    0.237093 0.209545 0.825682 0.376906
C156  C     C_2   0.145937 0.789148 0.685423 1.012943
O195  O     O_2   0.195307 0.759033 0.744349 -0.551007
O196  O     O_R   0.157804 0.841787 0.703458 -0.678911
H68   H     H_    0.209662 0.850359 0.767963 0.396218
C157  C     C_2   0.542943 0.742991 0.700932 0.969159
O197  O     O_2   0.580719 0.708092 0.761112 -0.498132
O198  O     O_R   0.517246 0.779755 0.723975 -0.789203
H69   H     H_    0.533001 0.773040 0.792007 0.376804
C158  C     C_2   0.539486 0.275530 0.692494 0.994744
O199  O     O_2   0.565699 0.316430 0.737417 -0.516197
O200  O     O_R   0.527835 0.236922 0.732638 -0.764600
H70   H     H_    0.542768 0.247597 0.798742 0.357045
C159  C     C_2   0.042327 0.258256 0.700274 0.953004
O201  O     O_2   0.088948 0.231666 0.774702 -0.575125
O202  O     O_R   0.007265 0.295174 0.707233 -0.782289
H71   H     H_    0.025932 0.296799 0.778001 0.365585
C160  C     C_2   0.040342 0.777969 0.692832 0.995346
O203  O     O_2   0.070081 0.818269 0.738466 -0.504288
O204  O     O_R   0.026404 0.741538 0.733301 -0.779187
H72   H     H_    0.042238 0.753362 0.799493 0.356183

loop_
_geom_bond_atom_site_label_1
_geom_bond_atom_site_label_2
_ccdc_geom_bond_type
O180  H60   S    
C75   C76   S    
S17   O141  D    
O1    Zn5   S    
S10   O106  S    
C106  O42   A    
C156  O195  D    
O66   H15   S    
O196  H68   S    
O4    Zn8   S    
S13   O129  D    
C107  O43   A    
C159  O201  D    
C105  O41   A    
C98   O10   A    
C34   C154  S    
C55   C59   S    
C146  O164  S    
C90   O6    A    
C4    C41   S    
O94   H25   S    
C29   C33   A    
S4    O78   D    
C121  O54   S    
C9    C13   A    
O22   Zn14  S    
S6    O85   D    
S22   O174  S    
C37   C157  S    
C12   C16   A    
C154  O192  S    
C119  C123  S    
C126  O64   S    
C149  O182  S    
O54   H9    S    
C70   C130  S    
S22   O173  D    
S2    O73   D    
C41   C49   A    
C98   O34   A    
O11   Zn15  S    
C63   C67   A    
C125  O62   S    
C25   C29   A    
C27   C31   A    
O198  H69   S    
C7    C119  A    
C28   C32   A    
S23   O177  S    
C3    O15   A    
O131  H41   S    
O43   Zn15  S    
C30   C34   A    
S14   O132  D    
O41   Zn13  S    
O2    Zn14  S    
C140  O127  D    
C17   C21   S    
C29   C45   S    
S2    O74   S    
C19   C23   S    
O62   H13   S    
S1    O69   D    
C158  O200  S    
C15   C111  A    
C40   C160  S    
C78   C82   A    
O68   H16   S    
C68   C72   A    
S16   O138  D    
C71   C131  S    
C85   C137  S    
O50   Zn2   S    
C18   H2    S    
C24   S24   S    
C23   C151  S    
S17   O143  S    
C129  O94   S    
C144  O159  D    
O44   Zn16  S    
O109  H31   S    
C57   S5    S    
O156  H50   S    
C110  C114  A    
O34   Zn10  S    
S13   O131  S    
S12   O110  D    
C107  O51   A    
O38   Zn6   S    
O3    Zn15  S    
C84   C88   A    
C105  O49   A    
S7    O88   D    
S14   O134  S    
C4    O16   A    
O152  H48   S    
S20   O152  S    
C89   O29   A    
C61   C74   S    
C83   C91   S    
C145  O161  D    
S4    O80   S    
C92   O32   A    
C26   C50   A    
C160  O203  D    
C79   C96   S    
S9    O102  D    
O146  H46   S    
C46   O18   A    
C49   C53   S    
C58   S6    S    
S19   O149  S    
C51   C55   S    
C56   H8    S    
C69   C70   A    
O128  H40   S    
C61   C65   A    
C137  O121  D    
C63   C76   S    
C22   S22   S    
S21   O169  D    
C148  O167  D    
O52   Zn4   S    
O83   H21   S    
C143  O158  S    
O3    Zn7   S    
C2    O22   A    
C95   S15   S    
C103  O39   A    
C101  O45   A    
S23   O175  D    
C24   C112  S    
O7    Zn3   S    
C73   C133  S    
O149  H47   S    
C104  O48   A    
C66   C70   A    
C149  O181  D    
S20   O150  D    
C19   H3    S    
S5    O81   D    
C127  O65   D    
C45   O17   A    
C64   C68   A    
C105  C113  S    
O171  H57   S    
O29   Zn5   S    
S1    O71   S    
C85   C86   A    
O27   Zn3   S    
C135  O118  S    
S15   O136  D    
S18   O144  D    
C121  O53   D    
O164  H54   S    
S16   O140  S    
C77   C94   S    
C155  O194  S    
O86   H22   S    
O31   Zn7   S    
C138  O124  S    
C94   S18   S    
C13   C109  A    
O21   Zn13  S    
C8    C144  S    
O19   Zn11  S    
S8    O90   D    
C133  O114  S    
O1    Zn9   S    
C62   C73   S    
O4    Zn12  S    
S12   O112  S    
C88   C140  S    
C44   C52   A    
C159  O202  S    
O122  H37   S    
C102  O38   A    
C95   S19   S    
C131  O97   D    
C122  O56   S    
C99   O11   A    
C153  O189  D    
C25   C57   S    
O6    Zn2   S    
C97   O9    A    
O143  H45   S    
C27   C51   A    
C158  O199  D    
C123  O58   S    
C4    O24   A    
C47   O19   A    
C7    C143  S    
C89   O5    A    
C62   C66   A    
C1    O13   A    
O184  H62   S    
C10   C14   A    
C76   C136  S    
S6    O86   S    
C150  O184  S    
C126  O63   D    
C116  C120  A    
C80   C95   S    
O10   Zn14  S    
C68   C100  S    
C5    C9    A    
O106  H30   S    
C73   S9    S    
O182  H61   S    
C8    C12   A    
C124  O59   D    
S3    O76   D    
S21   O171  S    
C75   C135  S    
C53   H5    S    
C42   C50   A    
C99   O35   A    
O5    Zn1   S    
S24   O178  D    
C55   H7    S    
C26   C30   A    
C115  C119  A    
O114  H33   S    
C108  O44   A    
O177  H59   S    
C2    O14   A    
C113  C117  A    
C5    C141  S    
C112  C116  A    
C33   C153  S    
C14   C110  A    
S5    O83   S    
C53   C125  S    
C18   C22   S    
C30   C46   S    
S3    O77   S    
C21   C109  S    
O92   H24   S    
O89   H23   S    
C160  O204  S    
C23   C111  S    
C97   O33   A    
C13   C17   S    
C66   C98   S    
C71   C72   A    
C74   C134  S    
C146  O163  D    
S15   O137  S    
S8    O92   S    
O49   Zn1   S    
C128  O68   S    
C64   C75   S    
S20   O151  D    
C23   S23   S    
C37   C41   A    
C61   C62   A    
C141  O154  S    
C63   C64   A    
O2    Zn10  S    
O118  H35   S    
C154  O191  D    
C93   S17   S    
O100  H28   S    
O35   Zn11  S    
C72   C132  S    
C84   C92   S    
O36   Zn12  S    
C106  O50   A    
C151  O185  D    
C24   C152  S    
O20   Zn12  S    
C83   C87   A    
C87   C88   A    
C3    C42   S    
O40   Zn8   S    
C156  O196  S    
C73   C74   S    
C60   S8    S    
S3    O75   D    
C80   C84   A    
O28   Zn4   S    
O154  H49   S    
C125  O61   D    
C15   C19   S    
C54   H6    S    
C50   C54   S    
C56   C128  S    
C10   C103  S    
S23   O176  D    
O16   Zn8   S    
S14   O133  D    
C152  O188  S    
S10   O104  D    
C139  O125  D    
O23   Zn15  S    
C136  O120  S    
C75   S11   S    
O3    Zn3   S    
C87   C139  S    
S24   O180  S    
C95   C96   S    
C22   C110  S    
S16   O139  D    
O98   H27   S    
C1    O21   A    
C91   O31   A    
C67   C99   S    
C81   C89   S    
C140  O128  S    
C48   O28   A    
O194  H67   S    
S17   O142  D    
C31   C47   S    
C129  O93   D    
C32   C48   S    
C59   S7    S    
C92   O8    A    
O30   Zn6   S    
S13   O130  D    
S12   O111  D    
C147  O165  D    
O137  H43   S    
C151  O186  S    
C38   C158  S    
C46   O26   A    
C142  O156  S    
C60   S4    S    
O58   H11   S    
S11   O108  D    
S11   O107  D    
O42   Zn14  S    
C53   C57   S    
C17   C145  S    
C157  O197  D    
C33   C37   A    
O190  H65   S    
C96   S16   S    
C35   C39   A    
O186  H63   S    
S6    O84   D    
C57   S1    S    
O60   H12   S    
C77   C81   A    
O8    Zn4   S    
C103  O47   A    
O77   H19   S    
C100  O36   A    
C101  O37   A    
C26   C58   S    
O46   Zn10  S    
C17   H1    S    
O25   Zn1   S    
O3    Zn11  S    
S22   O172  D    
C31   C35   A    
C132  O100  S    
S2    O72   D    
C32   C36   A    
O64   H14   S    
C20   C148  S    
C16   C112  A    
C54   C126  S    
C143  O157  D    
C120  C124  S    
O24   Zn16  S    
O158  H51   S    
O17   Zn9   S    
C58   S2    S    
C6    C10   A    
O162  H53   S    
C82   C90   S    
C108  C116  S    
O124  H38   S    
S1    O70   D    
O126  H39   S    
C82   C86   A    
O4    Zn4   S    
C79   C83   A    
C43   C51   A    
C135  O117  D    
S18   O145  D    
C9    C104  S    
C65   C69   A    
O71   H17   S    
C11   C102  S    
C67   C71   A    
C138  O123  D    
C25   C49   A    
C94   S14   S    
C69   C129  S    
O120  H36   S    
C56   C60   S    
C12   C101  S    
C91   O7    A    
S8    O91   D    
C133  O113  D    
C144  O160  S    
C77   C78   A    
C27   C59   S    
S18   O146  S    
O116  H34   S    
C93   C94   S    
C122  O55   D    
C14   C18   S    
O166  H55   S    
O202  H71   S    
S7    O89   S    
O174  H58   S    
O160  H52   S    
C123  O57   D    
C7    C11   A    
C145  O162  S    
C108  O52   A    
S9    O101  D    
C106  C114  S    
C38   C42   A    
S9    O103  S    
C21   C149  S    
C148  O168  S    
O47   Zn11  S    
O48   Zn12  S    
C36   C156  S    
C78   C93   S    
O26   Zn2   S    
C35   C155  S    
C74   S10   S    
C153  O190  S    
C100  O12   A    
C130  O96   S    
C18   C146  S    
O140  H44   S    
C6    C142  S    
S4    O79   D    
C137  O122  S    
O168  H56   S    
S21   O170  D    
C16   C20   S    
C55   C127  S    
S24   O179  D    
O112  H32   S    
C93   S13   S    
C155  O193  D    
C147  O166  S    
S11   O109  S    
O51   Zn3   S    
C157  O198  S    
O14   Zn6   S    
O9    Zn13  S    
S5    O82   D    
C20   H4    S    
C20   C24   S    
C36   C40   A    
O33   Zn9   S    
O2    Zn2   S    
O204  H72   S    
C76   S12   S    
C21   S21   S    
C96   S20   S    
C39   C43   A    
C132  O99   D    
O37   Zn5   S    
O192  H66   S    
C5    C117  A    
C90   O30   A    
C59   S3    S    
C104  O40   A    
S19   O147  D    
C1    C44   S    
O200  H70   S    
C40   C44   A    
C2    C43   S    
O39   Zn7   S    
C128  O67   D    
C139  O126  S    
C19   C147  S    
O12   Zn16  S    
C107  C115  S    
C141  O153  D    
C114  C118  A    
C28   C60   S    
O96   H26   S    
C11   C15   A    
C131  O98   S    
C118  C122  S    
O13   Zn5   S    
O32   Zn8   S    
C86   C138  S    
S7    O87   D    
C117  C121  S    
C8    C120  A    
C54   C58   S    
O1    Zn1   S    
C34   C38   A    
O15   Zn7   S    
O1    Zn13  S    
O80   H20   S    
O2    Zn6   S    
C109  C113  A    
C102  O46   A    
C3    O23   A    
O103  H29   S    
C65   C97   S    
O188  H64   S    
C127  O66   S    
S15   O135  D    
C28   C52   A    
C152  O187  D    
C142  O155  D    
C134  O116  S    
C47   O27   A    
C22   C150  S    
C48   O20   A    
O45   Zn9   S    
C124  O60   S    
C134  O115  D    
S10   O105  D    
S19   O148  D    
C136  O119  D    
C81   C85   A    
C39   C159  S    
C79   C80   A    
C45   O25   A    
C150  O183  D    
O4    Zn16  S    
O18   Zn10  S    
C111  C115  A    
O56   H10   S    
O134  H42   S    
O74   H18   S    
C6    C118  A    
C52   C56   S    
C130  O95   D    
