data_mof_unit_16658.cif
_audit_creation_date              2012-12-10T19:47:25-0500
_audit_creation_method            fapswitch 2.2
_symmetry_space_group_name_H-M    P1
_symmetry_Int_Tables_number       1
_space_group_crystal_system       triclinic
_cell_length_a                    10.96948
_cell_length_b                    10.911781
_cell_length_c                    12.675057
_cell_angle_alpha                 91.720132
_cell_angle_beta                  93.376822
_cell_angle_gamma                 89.810278
_cell_volume                      1513.8422806

loop_
_atom_site_label
_atom_site_type_symbol
_atom_type_description
_atom_site_fract_x
_atom_site_fract_y
_atom_site_fract_z
_atom_type_partial_charge
C1    C     C_R   0.261771 0.499188 0.500167 0.856204
C2    C     C_R   0.738229 0.500809 0.499833 0.856218
C3    C     C_R   0.496267 0.871750 0.495626 -0.088950
C4    C     C_R   0.503730 0.128250 0.504372 -0.088949
C5    C     C_R   0.475620 0.937350 0.401731 -0.008875
C6    C     C_R   0.524375 0.062649 0.598266 -0.008884
C7    C     C_R   0.184217 0.231876 0.789189 -0.173024
C8    C     C_R   0.815779 0.768175 0.210866 -0.173009
C9    C     C_R   0.151387 0.282645 0.691608 -0.183412
C10   C     C_R   0.848622 0.717379 0.308432 -0.183458
C11   C     C_R   0.137481 0.410031 0.683876 0.207173
C12   C     C_R   0.862521 0.589991 0.316137 0.207160
C13   C     C_R   0.163795 0.486369 0.773515 -0.115052
C14   C     C_R   0.836192 0.513677 0.226486 -0.115006
C15   C     C_R   0.198029 0.435316 0.870749 -0.173858
C16   C     C_R   0.801947 0.564757 0.129267 -0.173886
C17   C     C_R   0.205111 0.307906 0.879206 0.433023
C18   C     C_R   0.794870 0.692169 0.120836 0.433030
C19   C     C_R   0.942384 0.462666 0.589903 0.346181
C20   C     C_R   0.057614 0.537316 0.410093 0.346186
C21   C     C_R   0.871776 0.501398 0.499925 -0.234697
C22   C     C_R   0.128224 0.498592 0.500075 -0.234701
C23   C     C_R   0.502399 0.261757 0.501910 0.787976
C24   C     C_R   0.497600 0.738243 0.498090 0.787966
C25   C     C_R   0.930210 0.539886 0.410231 -0.117298
C26   C     C_R   0.069789 0.460108 0.589770 -0.117301
C27   C     C_2   0.482971 0.455337 0.031733 -0.286695
C28   C     C_2   0.517029 0.544670 0.968266 -0.286731
C29   C     C_1   0.518942 0.528798 0.852712 0.289909
C30   C     C_1   0.481057 0.471206 0.147288 0.289934
C31   C     C_R   0.704647 0.208853 0.832269 -0.050827
C32   C     C_R   0.295334 0.791130 0.167741 -0.050848
C33   C     C_R   0.668984 0.173480 0.727893 -0.059437
C34   C     C_R   0.331010 0.826500 0.272115 -0.059433
C35   C     C_R   0.554541 0.118897 0.704354 0.107341
C36   C     C_R   0.445446 0.881103 0.295643 0.107325
C37   C     C_R   0.477313 0.099001 0.786776 -0.139279
C38   C     C_R   0.522653 0.901020 0.213212 -0.139276
C39   C     C_R   0.513332 0.134519 0.890733 -0.137176
C40   C     C_R   0.486620 0.865508 0.109256 -0.137123
C41   C     C_R   0.626809 0.189730 0.913444 -0.142540
C42   C     C_R   0.373152 0.810277 0.086557 -0.142575
C43   C     C_R   0.519963 0.935619 0.592155 -0.221439
C44   C     C_R   0.480033 0.064381 0.407843 -0.221435
Cu1   Cu    Cu3+1 0.492140 0.492110 0.395880 1.020613
Cu2   Cu    Cu3+1 0.507860 0.507890 0.604120 1.020608
H1    H     H_    0.655187 0.216063 0.994169 0.139290
H2    H     H_    0.344764 0.783947 0.005834 0.139291
H3    H     H_    0.151090 0.584606 0.769226 0.149296
H4    H     H_    0.848891 0.415438 0.230754 0.149310
H5    H     H_    0.213721 0.494554 0.940254 0.177312
H6    H     H_    0.786244 0.505538 0.059752 0.177316
H7    H     H_    0.542887 0.633211 0.003167 0.205089
H8    H     H_    0.457112 0.366797 0.996832 0.205079
H9    H     H_    0.793825 0.248293 0.851104 0.193834
H10   H     H_    0.206161 0.751678 0.148914 0.193846
H11   H     H_    0.731769 0.184564 0.666089 0.149928
H12   H     H_    0.268238 0.815398 0.333927 0.149915
H13   H     H_    0.391147 0.052066 0.770782 0.128706
H14   H     H_    0.608813 0.947969 0.229196 0.128721
H15   H     H_    0.454536 0.116716 0.954059 0.185088
H16   H     H_    0.545397 0.883332 0.045922 0.185108
H17   H     H_    0.537859 0.886290 0.664503 0.181637
H18   H     H_    0.462136 0.113710 0.335496 0.181636
H19   H     H_    0.128763 0.222509 0.623788 0.142026
H20   H     H_    0.871256 0.777496 0.376262 0.142027
N1    N     N_1   0.480320 0.480250 0.239400 -0.143025
N2    N     N_1   0.519680 0.519750 0.760600 -0.143027
O1    O     O_R   0.313000 0.493330 0.412070 -0.509590
O2    O     O_R   0.687000 0.506670 0.587930 -0.509596
O3    O     O_R   0.326280 0.506660 0.587930 -0.602338
O4    O     O_R   0.673720 0.493340 0.412070 -0.602338
O5    O     O_R   0.493370 0.312980 0.412070 -0.587449
O6    O     O_R   0.506630 0.687020 0.587930 -0.587451
O7    O     O_R   0.506650 0.326310 0.587930 -0.573706
O8    O     O_R   0.493350 0.673690 0.412070 -0.573713
Cl1   Cl    Cl    0.874822 0.413391 0.705491 -0.645762
Cl2   Cl    Cl    0.125171 0.586564 0.294496 -0.645730
Cl3   Cl    Cl    0.230639 0.243189 0.003662 -0.662523
Cl4   Cl    Cl    0.769327 0.756922 0.996398 -0.662573
H21   H     H_    0.187986 0.133271 0.795643 0.156346
H22   H     H_    0.812011 0.866782 0.204433 0.156350

loop_
_geom_bond_atom_site_label_1
_geom_bond_atom_site_label_2
_ccdc_geom_bond_type
C27   H8    S    
C43   H17   S    
C39   C41   A    
Cu1   Cu2   S    
C44   H18   S    
C3    C43   A    
C1    O3    A    
Cu1   O8    S    
C8    H22   S    
C28   C29   S    
C19   C21   A    
C20   C25   A    
C5    C36   S    
C17   Cl3   S    
C40   H16   S    
C6    C35   S    
Cu1   O5    S    
C19   Cl1   S    
C19   C26   A    
C7    C17   A    
Cu1   N1    S    
C31   C33   A    
C14   C16   A    
C15   H5    S    
C30   N1    T    
C40   C42   A    
C1    C22   S    
C1    O1    A    
C27   C30   S    
C3    C24   S    
C23   O5    A    
C2    O4    A    
Cu2   O7    S    
C10   H20   S    
C39   H15   S    
Cu1   O1    S    
C4    C6    A    
C23   O7    A    
C4    C23   S    
C24   O8    A    
C4    C44   A    
C11   C26   S    
C8    C18   A    
C32   C34   A    
Cu2   N2    S    
C29   N2    T    
C2    C21   S    
C41   H1    S    
C42   H2    S    
C9    C11   A    
Cu2   O3    S    
C37   H13   S    
C10   C12   A    
C38   H14   S    
C16   C18   A    
C7    H21   S    
C5    C44   A    
C20   C22   A    
C6    C43   A    
C13   C15   A    
C13   H3    S    
Cu2   O6    S    
C7    C9    A    
C21   C25   A    
C33   H11   S    
C31   C41   A    
C35   C37   A    
C8    C10   A    
C16   H6    S    
C12   C14   A    
C3    C5    A    
C28   H7    S    
C15   C17   A    
C20   Cl2   S    
C12   C25   S    
C36   C38   A    
C37   C39   A    
C38   C40   A    
C11   C13   A    
C24   O6    A    
C14   H4    S    
C33   C35   A    
C34   C36   A    
C9    H19   S    
Cu2   O2    S    
C18   Cl4   S    
C22   C26   A    
C27   C28   D    
C34   H12   S    
C32   C42   A    
C31   H9    S    
C2    O2    A    
C32   H10   S    
Cu1   O4    S    
