data_mof_unit_39647.cif
_audit_creation_date              2012-12-10T18:31:58-0500
_audit_creation_method            fapswitch 2.2
_symmetry_space_group_name_H-M    P1
_symmetry_Int_Tables_number       1
_space_group_crystal_system       triclinic
_cell_length_a                    10.677391
_cell_length_b                    14.982098
_cell_length_c                    15.467311
_cell_angle_alpha                 81.639897
_cell_angle_beta                  90.337858
_cell_angle_gamma                 103.940666
_cell_volume                      2374.8110813

loop_
_atom_site_label
_atom_site_type_symbol
_atom_type_description
_atom_site_fract_x
_atom_site_fract_y
_atom_site_fract_z
_atom_type_partial_charge
C1    C     C_R   0.485486 0.441441 0.662375 0.879051
C2    C     C_R   0.555410 0.460226 0.895283 0.119122
C3    C     C_R   0.582689 0.373603 0.926528 0.114623
C4    C     C_R   0.742046 0.502721 0.493985 0.870687
C5    C     C_R   0.575360 0.531447 0.949074 0.036095
C6    C     C_R   0.590829 0.506184 0.039444 0.036282
C7    C     C_R   0.620202 0.419699 0.068950 -0.202579
C8    C     C_R   0.619382 0.355566 0.012499 -0.233577
C9    C     C_R   0.584689 0.626876 0.916153 0.026497
C10   C     C_R   0.581418 0.690705 0.974098 0.038167
C11   C     C_R   0.570436 0.660219 0.064371 0.117585
C12   C     C_3   0.121238 0.499540 0.488198 0.083411
C13   C     C_R   0.576015 0.568001 0.097359 0.049791
C14   C     C_R   0.553591 0.720606 0.122515 -0.224139
C15   C     C_R   0.536441 0.689628 0.212206 0.093927
C16   C     C_R   0.518351 0.558805 0.337760 0.848722
C17   C     C_R   0.557128 0.537736 0.187264 -0.302229
C18   C     C_R   0.721935 0.847328 0.619308 -0.350457
C19   C     C_R   0.680742 0.756251 0.601425 0.251339
C20   C     C_R   0.511296 0.796618 0.516233 0.142373
C21   C     C_R   0.562271 0.892118 0.521446 -0.014932
C22   C     C_R   0.662152 0.915841 0.580415 0.090146
C23   C     C_3   0.105207 0.593893 0.437580 -0.480997
C24   C     C_R   0.513680 0.963814 0.472668 0.082656
C25   C     C_R   0.542510 0.053581 0.497505 0.046704
C26   C     C_R   0.638583 0.074311 0.559800 -0.262038
C27   C     C_R   0.701210 0.007499 0.598905 0.125601
C28   C     C_R   0.258731 0.500974 0.494518 0.843275
C29   C     C_R   0.445065 0.949879 0.395944 -0.276048
C30   C     C_R   0.384627 0.015570 0.353251 0.097815
C31   C     C_R   0.394351 0.100124 0.385797 0.153191
C32   C     C_R   0.476623 0.120161 0.457367 -0.068253
C33   C     C_R   0.327816 0.166795 0.347914 0.025896
C34   C     C_3   0.068961 0.490432 0.583398 -0.498626
C35   C     C_R   0.346963 0.250948 0.380028 -0.082596
C36   C     C_R   0.488943 0.206464 0.486642 -0.063311
C37   C     C_3   0.898648 0.424532 0.435784 -0.075676
C38   C     C_3   0.042969 0.418868 0.437402 0.240129
C39   C     C_3   0.962027 0.598157 0.439586 -0.083931
C40   C     C_3   0.924078 0.485877 0.584180 -0.101798
C41   C     C_3   0.879079 0.503443 0.488443 0.071405
C42   C     C_R   0.500590 0.407513 0.755083 -0.129819
C43   C     C_R   0.536973 0.596820 0.244639 -0.058312
C44   C     C_R   0.571816 0.305725 0.871550 -0.194424
C45   C     C_R   0.535048 0.322909 0.785105 0.102893
C46   C     C_R   0.501517 0.470792 0.813151 -0.267156
H1    H     H_    0.642967 0.290258 0.037145 0.144362
H2    H     H_    0.432269 0.774751 0.248742 0.160925
H3    H     H_    0.593045 0.809783 0.262346 0.185809
H4    H     H_    0.673203 0.815869 0.905736 0.184086
H5    H     H_    0.509362 0.789536 0.900333 0.185157
H6    H     H_    0.595255 0.240067 0.895054 0.146387
H7    H     H_    0.602733 0.283698 0.678244 0.205633
H8    H     H_    0.444189 0.232860 0.705645 0.203527
H9    H     H_    0.459680 0.528984 0.792797 0.182594
H10   H     H_    0.838298 0.356477 0.468081 0.167251
H11   H     H_    0.648679 0.401168 0.134904 0.144010
H12   H     H_    0.441777 0.889140 0.365260 0.166020
H13   H     H_    0.701610 0.709178 0.818167 0.179352
H14   H     H_    0.541071 0.694565 0.800472 0.181062
H15   H     H_    0.550431 0.791698 0.098808 0.163736
H16   H     H_    0.829677 0.104087 0.658460 0.179992
H17   H     H_    0.764478 0.003023 0.722168 0.175515
H18   H     H_    0.548128 0.227438 0.539994 0.129116
H19   H     H_    0.301059 0.304105 0.349800 0.127491
H20   H     H_    0.243192 0.933869 0.292493 0.184429
H21   H     H_    0.378770 0.983649 0.230392 0.173925
H22   H     H_    0.802990 0.864533 0.661347 0.167494
H23   H     H_    0.768720 0.459633 0.341067 0.186993
H24   H     H_    0.698630 0.640513 0.680555 0.220010
H25   H     H_    0.838144 0.720851 0.661089 0.136881
H26   H     H_    0.326271 0.728919 0.535781 0.196307
H27   H     H_    0.391432 0.726745 0.434300 0.232185
H28   H     H_    0.114821 0.298402 0.450015 0.203011
H29   H     H_    0.066327 0.321046 0.545979 0.183300
H30   H     H_    0.671425 0.143145 0.576736 0.133243
H31   H     H_    0.151069 0.156557 0.297010 0.178027
H32   H     H_    0.275704 0.203172 0.224454 0.183556
H33   H     H_    0.194754 0.440742 0.344182 0.177890
H34   H     H_    0.835495 0.374836 0.321477 0.185255
H35   H     H_    0.055626 0.374726 0.316766 0.182986
H36   H     H_    0.929857 0.607771 0.370972 0.168059
H37   H     H_    0.141518 0.603872 0.368745 0.178907
H38   H     H_    0.908092 0.542143 0.619444 0.172891
H39   H     H_    0.867577 0.396956 0.699051 0.191117
H40   H     H_    0.877691 0.341330 0.613700 0.190067
H41   H     H_    0.090846 0.430374 0.626527 0.162305
H42   H     H_    0.119563 0.552552 0.612777 0.176284
H43   H     H_    0.989911 0.739308 0.436558 0.186455
H44   H     H_    0.994696 0.681873 0.537729 0.191619
H45   H     H_    0.163721 0.652653 0.466617 0.184474
H46   H     H_    0.552196 0.466338 0.213784 0.166877
N1    N     N_R   0.573860 0.731700 0.552730 -0.116721
N2    N     N_3   0.314949 0.995337 0.276088 -0.429189
N3    N     N_3   0.753312 0.689542 0.632081 -0.398119
N4    N     N_3   0.385939 0.766965 0.483177 -0.486585
N5    N     N_3   0.046078 0.324103 0.479853 -0.493533
N6    N     N_3   0.241892 0.150745 0.277216 -0.431823
N7    N     N_3   0.095160 0.433351 0.346369 -0.449490
N8    N     N_3   0.848685 0.397606 0.632548 -0.481978
N9    N     N_R   0.426060 0.268290 0.447230 -0.106695
N10   N     N_3   0.855211 0.438740 0.344881 -0.458268
N11   N     N_3   0.946492 0.678718 0.478815 -0.420332
N12   N     N_3   0.514273 0.751916 0.269213 -0.455427
N13   N     N_3   0.586699 0.786449 0.941456 -0.482813
N14   N     N_3   0.536403 0.254180 0.729992 -0.472561
N15   N     N_3   0.611959 0.661145 0.825117 -0.487307
N16   N     N_3   0.802314 0.032067 0.659360 -0.466658
O1    O     O_R   0.462770 0.383110 0.605620 -0.616504
O2    O     O_R   0.510160 0.531900 0.639510 -0.615067
O3    O     O_R   0.661510 0.425600 0.483070 -0.637708
O4    O     O_R   0.708900 0.574390 0.516960 -0.570954
O5    O     O_R   0.489840 0.468100 0.360490 -0.637464
O6    O     O_R   0.537230 0.616890 0.394380 -0.589181
O7    O     O_R   0.291100 0.425610 0.483040 -0.634131
O8    O     O_R   0.338490 0.574400 0.516930 -0.641698
Zn1   Zn    Zn3+2 0.468350 0.400660 0.477370 0.911246
Zn2   Zn    Zn3+2 0.531650 0.599340 0.522630 0.945897

loop_
_geom_bond_atom_site_label_1
_geom_bond_atom_site_label_2
_ccdc_geom_bond_type
C20   N1    A    
C40   H38   S    
C4    O4    A    
C16   O5    A    
O2    Zn2   S    
H3    N12   S    
O1    Zn1   S    
C7    C8    A    
C39   C41   S    
H23   N10   S    
C2    C46   A    
C12   C23   S    
C26   C27   A    
C37   C38   S    
C23   H37   S    
C12   C28   S    
C34   C40   S    
C32   C36   A    
H33   N7    S    
C18   C19   A    
C5    C6    A    
C11   C14   A    
H16   N16   S    
C4    C41   S    
C35   H19   S    
C18   H22   S    
H2    N12   S    
H29   N5    S    
C33   N6    S    
C42   C46   A    
C24   C29   A    
C28   O8    A    
C1    O1    A    
C37   H10   S    
H7    N14   S    
O7    Zn1   S    
C46   H9    S    
H32   N6    S    
H21   N2    S    
C26   H30   S    
C31   C33   A    
C15   N12   S    
H40   N8    S    
C9    C10   A    
C19   N1    A    
H20   N2    S    
C44   H6    S    
C25   C32   A    
C20   N4    S    
C21   C22   A    
H43   N11   S    
C37   C41   S    
C17   H46   S    
C38   N5    S    
H28   N5    S    
C3    C44   A    
H8    N14   S    
C24   C25   A    
C3    C8    A    
H35   N7    S    
C25   C26   A    
C14   H15   S    
H13   N15   S    
C37   N10   S    
H34   N10   S    
C36   N9    A    
C42   C45   A    
C17   C43   A    
C5    C9    A    
C29   C30   A    
C28   O7    A    
C1    O2    A    
H4    N13   S    
C31   C32   A    
H5    N13   S    
H31   N6    S    
C34   H42   S    
C29   H12   S    
C16   C43   S    
O6    Zn2   S    
H14   N15   S    
O5    Zn1   S    
C40   C41   S    
C4    O3    A    
C22   C27   A    
C23   H45   S    
C2    C5    A    
N1    Zn2   S    
C12   C34   S    
C19   N3    S    
C45   N14   S    
C18   C22   A    
C44   C45   A    
C39   H36   S    
C38   N7    S    
C35   N9    A    
C16   O6    A    
C40   N8    S    
C39   N11   S    
C6    C7    A    
C9    N15   S    
C13   C17   A    
O3    Zn1   S    
N9    Zn1   S    
C2    C3    A    
C8    H1    S    
C15   C43   A    
C30   N2    S    
H39   N8    S    
C6    C13   A    
O4    Zn2   S    
C11   C13   A    
C30   C31   A    
C27   N16   S    
C23   C39   S    
C33   C35   A    
O8    Zn2   S    
H24   N3    S    
C34   H41   S    
C12   C38   S    
H44   N11   S    
C10   C11   A    
H26   N4    S    
C1    C42   S    
H25   N3    S    
C20   C21   A    
C21   C24   A    
C14   C15   A    
C10   N13   S    
H27   N4    S    
H17   N16   S    
C36   H18   S    
C7    H11   S    
