data_mof_unit_23551.cif
_audit_creation_date              2012-12-11T14:29:26-0500
_audit_creation_method            fapswitch 2.2
_symmetry_space_group_name_H-M    P1
_symmetry_Int_Tables_number       1
_space_group_crystal_system       triclinic
_cell_length_a                    6.930479
_cell_length_b                    14.894725
_cell_length_c                    16.176238
_cell_angle_alpha                 90.512581
_cell_angle_beta                  89.997112
_cell_angle_gamma                 89.985719
_cell_volume                      1669.76700693

loop_
_atom_site_label
_atom_site_type_symbol
_atom_type_description
_atom_site_fract_x
_atom_site_fract_y
_atom_site_fract_z
_atom_type_partial_charge
O1    O     O_R   0.494400 0.416610 0.413880 -0.537741
O2    O     O_R   0.823920 0.406790 0.585520 -0.535811
O3    O     O_R   0.994250 0.583390 0.586120 -0.545008
C1    C     C_R   0.656056 0.387304 0.615125 0.737927
O4    O     O_R   0.824110 0.405730 0.414490 -0.541945
O5    O     O_R   0.994440 0.582310 0.413870 -0.556386
C2    C     C_R   0.654494 0.383751 0.386452 0.773951
O6    O     O_R   0.494210 0.417690 0.586130 -0.549531
O7    O     O_3   0.660810 0.557940 0.500000 -0.371057
V1    V     V_3+5 0.935650 0.489250 0.500000 1.393879
O8    O     O_R   0.324160 0.593210 0.414480 -0.524854
C3    C     C_R   0.156184 0.612665 0.384764 0.742904
O9    O     O_R   0.323970 0.594270 0.585510 -0.539544
C4    C     C_R   0.154775 0.614970 0.615054 0.684360
V2    V     V_3+5 0.435660 0.510750 0.500000 1.421057
O10   O     O_3   0.160630 0.442060 0.500000 -0.381356
C5    C     C_R   0.311236 0.581399 0.779602 -0.249298
C6    C     C_R   0.383289 0.561850 0.858440 0.219033
C7    C     C_R   0.359497 0.623763 0.923387 0.196977
C8    C     C_R   0.269459 0.705942 0.907945 -0.231560
C9    C     C_R   0.204231 0.728876 0.827961 0.036123
C10   C     C_R   0.220768 0.664378 0.762850 0.041528
C11   C     C_R   0.127135 0.815410 0.812204 -0.150134
C12   C     C_R   0.071684 0.837613 0.729949 0.053316
C13   C     C_R   0.055991 0.767946 0.669309 0.013163
C14   C     C_R   0.142516 0.682944 0.683524 -0.135087
C15   C     C_R   0.041712 0.927762 0.703266 0.083719
C16   C     C_R   0.936424 0.943064 0.630663 -0.142112
C17   C     C_R   0.891984 0.872722 0.576873 0.230215
C18   C     C_R   0.962082 0.786809 0.593730 -0.194847
H1    H     H_    0.329504 0.531175 0.731661 0.127063
H2    H     H_    0.252219 0.751883 0.959563 0.119390
H3    H     H_    0.902530 0.010966 0.611962 0.121820
H4    H     H_    0.942232 0.735805 0.546731 0.126911
C19   C     C_2   0.996774 0.716017 0.286881 -0.181793
C20   C     C_2   0.156549 0.669874 0.310443 0.062819
H5    H     H_    0.865348 0.708542 0.322764 0.120358
C21   C     C_2   0.980240 0.773263 0.211923 -0.137771
C22   C     C_2   0.124273 0.825540 0.184322 -0.324434
H6    H     H_    0.840448 0.775858 0.181697 0.141840
H7    H     H_    0.259199 0.829026 0.217589 0.140073
C23   C     C_2   0.776074 0.237914 0.804538 0.196635
C24   C     C_2   0.611885 0.195712 0.830507 -0.054845
C25   C     C_2   0.775036 0.315032 0.744959 0.188973
C26   C     C_2   0.649052 0.318697 0.680405 -0.354724
H8    H     H_    0.540444 0.267127 0.672083 0.146784
C27   C     C_2   0.787390 0.209388 0.216410 0.228438
C28   C     C_2   0.621525 0.182736 0.177269 -0.352097
H9    H     H_    0.485106 0.213488 0.193637 0.125649
C29   C     C_2   0.792228 0.279888 0.282270 -0.112050
C30   C     C_2   0.637400 0.315052 0.320537 -0.372675
H10   H     H_    0.934721 0.302402 0.301363 0.159208
H11   H     H_    0.492865 0.293484 0.304507 0.141562
O11   O     O_R   0.770210 0.079270 0.910680 -0.550623
O12   O     O_R   0.440150 0.091160 0.082270 -0.540802
O13   O     O_R   0.269970 0.914530 0.082860 -0.542945
C31   C     C_R   0.610170 0.113285 0.110733 0.743793
O14   O     O_R   0.440480 0.090100 0.911240 -0.537237
O15   O     O_R   0.270310 0.913460 0.910610 -0.535836
C32   C     C_R   0.609774 0.116785 0.887493 0.711209
O16   O     O_R   0.769870 0.080340 0.082930 -0.543455
O17   O     O_3   0.603660 0.938980 0.996790 -0.365632
V3    V     V_3+5 0.328750 0.007610 0.996740 1.390651
O18   O     O_R   0.940600 0.902510 0.911180 -0.538029
C33   C     C_R   0.110234 0.881919 0.881581 0.704060
O19   O     O_R   0.940270 0.903570 0.082200 -0.539915
C34   C     C_R   0.109119 0.884088 0.111676 0.741413
V4    V     V_3+5 0.828770 0.986010 0.996670 1.392329
O20   O     O_3   0.103730 0.054750 0.996710 -0.380943
N1    N     N_3   0.789649 0.891158 0.501749 -0.670577
H12   H     H_    0.880073 0.929811 0.464515 0.226225
H13   H     H_    0.762020 0.831608 0.469113 0.221779
N2    N     N_3   0.329875 0.667211 0.261462 -0.677291
H14   H     H_    0.416549 0.722339 0.276382 0.225444
H15   H     H_    0.297436 0.665183 0.198417 0.252356
N3    N     N_3   0.960957 0.215433 0.838621 -0.689319
H16   H     H_    0.996307 0.150156 0.821294 0.229099
H17   H     H_    0.956666 0.222020 0.903004 0.236083
N4    N     N_3   0.428515 0.234677 0.810521 -0.700384
H18   H     H_    0.343807 0.185832 0.781447 0.245833
H19   H     H_    0.360373 0.253798 0.865586 0.254790
C35   C     C_3   0.932592 0.385294 0.756641 -0.313867
C36   C     C_3   0.118750 0.358667 0.711366 -0.644535
H20   H     H_    0.123694 0.285760 0.696477 0.227188
H21   H     H_    0.134626 0.396744 0.653496 0.234709
H22   H     H_    0.245355 0.375387 0.749837 0.207945
H23   H     H_    0.884046 0.452813 0.736631 0.147872
H24   H     H_    0.964059 0.392866 0.823760 0.182180
N5    N     N_3   0.972514 0.171737 0.195959 -0.671064
H25   H     H_    0.970473 0.102431 0.205622 0.240058
H26   H     H_    0.006558 0.186293 0.134569 0.248267
N6    N     N_3   0.482453 0.479083 0.872742 -0.682980
H27   H     H_    0.590183 0.471808 0.828037 0.224519
H28   H     H_    0.384102 0.426611 0.865630 0.235551
C37   C     C_3   0.430359 0.603154 0.009602 -0.332169
C38   C     C_3   0.294567 0.538121 0.053100 -0.735936
H29   H     H_    0.149018 0.568639 0.059761 0.219854
H30   H     H_    0.282192 0.474077 0.017884 0.241413
H31   H     H_    0.351585 0.522970 0.115578 0.221950
H32   H     H_    0.578025 0.574178 0.006694 0.202295
H33   H     H_    0.440561 0.665608 0.047542 0.156623
C39   C     C_3   0.164281 0.005410 0.734407 -0.382363
C40   C     C_3   0.377968 0.987442 0.716608 -0.688621
H34   H     H_    0.432174 0.930817 0.754226 0.229026
H35   H     H_    0.399260 0.971107 0.650067 0.232839
H36   H     H_    0.465203 0.047681 0.731498 0.193556
H37   H     H_    0.124927 0.068550 0.702313 0.162714
H38   H     H_    0.141939 0.019636 0.800538 0.181884

loop_
_geom_bond_atom_site_label_1
_geom_bond_atom_site_label_2
_ccdc_geom_bond_type
O19   V4    S    
C37   C38   S    
N2    H15   S    
N2    H14   S    
C7    C8    A    
C12   C15   A    
C1    O6    A    
C28   C31   S    
C22   H7    S    
O11   C32   A    
C26   H8    S    
C17   C18   A    
O18   V4    S    
C16   C17   A    
C19   H5    S    
N3    H17   S    
C25   C35   S    
O5    C3    A    
C21   C22   D    
O11   V4    S    
C24   N4    S    
V2    O10   S    
C38   H31   S    
C13   C18   A    
C6    C7    A    
O8    V2    S    
C36   H20   S    
V4    O20   S    
O12   V3    S    
C29   H10   S    
C11   C12   A    
C39   H38   S    
N1    H12   S    
O1    V2    S    
C3    C20   S    
O7    V1    S    
O19   C34   A    
C9    C10   A    
C27   N5    S    
C23   C25   S    
C5    C6    A    
C27   C29   S    
C1    C26   S    
C9    C11   A    
C18   H4    S    
V3    O20   S    
C19   C21   S    
C12   C13   A    
N4    H19   S    
C37   H32   S    
C13   C14   A    
C38   H30   S    
C30   H11   S    
C19   C20   D    
O2    C1    A    
O17   V3    S    
C27   C28   D    
C38   H29   S    
N6    H28   S    
C29   C30   D    
O13   V3    S    
C39   H37   S    
C40   H35   S    
C4    C14   S    
O3    C4    A    
C24   C32   S    
C28   H9    S    
C36   H21   S    
C16   H3    S    
O6    V2    S    
O12   C31   A    
C5    H1    S    
O15   V3    S    
N5    H26   S    
C23   C24   D    
O2    V1    S    
C40   H34   S    
C7    C37   S    
C25   C26   D    
O4    C2    A    
C17   N1    S    
C8    H2    S    
O14   V3    S    
O1    C2    A    
C22   C34   S    
O5    V1    S    
O8    C3    A    
C31   O16   A    
O13   C34   A    
C15   C39   S    
C23   N3    S    
C5    C10   A    
O17   V4    S    
C6    N6    S    
O18   C33   A    
C11   C33   S    
O9    V2    S    
O7    V2    S    
C2    C30   S    
O4    V1    S    
O3    V1    S    
V1    O10   S    
O15   C33   A    
C21   H6    S    
N3    H16   S    
O16   V4    S    
C35   H24   S    
N6    H27   S    
C40   H36   S    
C39   C40   S    
C20   N2    S    
N4    H18   S    
C37   H33   S    
C36   H22   S    
C8    C9    A    
C35   C36   S    
C10   C14   A    
C15   C16   A    
N1    H13   S    
N5    H25   S    
O9    C4    A    
O14   C32   A    
C35   H23   S    
