data_mof_unit_21652.cif
_audit_creation_date              2012-12-11T14:46:25-0500
_audit_creation_method            fapswitch 2.2
_symmetry_space_group_name_H-M    P1
_symmetry_Int_Tables_number       1
_space_group_crystal_system       triclinic
_cell_length_a                    17.375236
_cell_length_b                    17.740303
_cell_length_c                    6.936013
_cell_angle_alpha                 90.071223
_cell_angle_beta                  90.936997
_cell_angle_gamma                 89.964104
_cell_volume                      2137.68225101

loop_
_atom_site_label
_atom_site_type_symbol
_atom_type_description
_atom_site_fract_x
_atom_site_fract_y
_atom_site_fract_z
_atom_type_partial_charge
O1    O     O_R   0.796490 0.328940 0.373020 -0.540820
O2    O     O_R   0.203510 0.671060 0.626980 -0.517823
O3    O     O_R   0.203510 0.828940 0.626980 -0.537100
O4    O     O_R   0.796490 0.171060 0.373020 -0.502151
O5    O     O_R   0.805560 0.173330 0.702970 -0.531018
O6    O     O_R   0.194440 0.826670 0.297030 -0.535090
O7    O     O_R   0.194440 0.673330 0.297030 -0.532832
O8    O     O_R   0.805560 0.326670 0.702970 -0.527870
O9    O     O_R   0.658440 0.172360 0.870170 -0.543294
O10   O     O_R   0.341560 0.827640 0.129830 -0.541093
O11   O     O_R   0.341560 0.672360 0.129830 -0.541396
O12   O     O_R   0.658440 0.327640 0.870170 -0.543758
C1    C     C_R   0.824044 0.146028 0.535849 0.705420
C2    C     C_R   0.176666 0.853862 0.463408 0.656828
C3    C     C_R   0.176212 0.645829 0.463927 0.688427
C4    C     C_R   0.823950 0.353618 0.536274 0.651949
O13   O     O_3   0.679200 0.250000 0.537050 -0.382749
O14   O     O_3   0.320800 0.750000 0.462950 -0.375374
V1    V     V_3+5 0.736420 0.250000 0.813120 1.540512
V2    V     V_3+5 0.263580 0.750000 0.186880 1.493536
O15   O     O_R   0.649370 0.327980 0.199650 -0.540662
O16   O     O_R   0.350630 0.672020 0.800350 -0.535831
O17   O     O_R   0.350630 0.827980 0.800350 -0.537921
O18   O     O_R   0.649370 0.172020 0.199650 -0.538659
C5    C     C_R   0.630572 0.354430 0.029676 0.719819
C6    C     C_R   0.369455 0.645593 0.970323 0.719379
C7    C     C_R   0.369450 0.854416 0.970468 0.710904
C8    C     C_R   0.630565 0.145574 0.029538 0.730028
V3    V     V_3+5 0.718510 0.250000 0.312740 1.520646
V4    V     V_3+5 0.281490 0.750000 0.687260 1.487631
O19   O     O_3   0.775740 0.250000 0.038930 -0.333388
O20   O     O_3   0.224260 0.750000 0.961070 -0.348591
C9    C     C_1   0.574153 0.083139 0.016769 -0.175332
C10   C     C_1   0.425867 0.916850 0.983250 -0.172688
C11   C     C_1   0.425887 0.583171 0.982912 -0.175930
C12   C     C_1   0.574171 0.416876 0.017076 -0.163160
C13   C     C_1   0.527504 0.030893 0.006223 0.032394
C14   C     C_1   0.472516 0.969097 0.993809 0.035713
C15   C     C_1   0.472547 0.530926 0.993624 0.036942
C16   C     C_1   0.527528 0.469134 0.006352 0.035775
C17   C     C_R   0.879971 0.081642 0.533319 -0.117029
C18   C     C_R   0.118326 0.914769 0.462386 -0.216238
C19   C     C_R   0.117609 0.584033 0.463268 -0.152662
C20   C     C_R   0.878489 0.418370 0.534743 -0.201766
C21   C     C_R   0.065257 0.022964 0.293386 -0.028148
C22   C     C_R   0.930855 0.966728 0.687167 -0.036148
C23   C     C_R   0.921040 0.539420 0.669780 0.004317
C24   C     C_R   0.054569 0.484120 0.278342 0.039434
C25   C     C_R   0.129937 0.979094 0.347566 -0.019947
C26   C     C_R   0.873081 0.022925 0.670417 -0.113504
C27   C     C_R   0.864937 0.481517 0.653887 -0.015398
C28   C     C_R   0.120308 0.528289 0.317426 -0.087503
C29   C     C_R   0.045802 0.903530 0.546485 -0.012264
C30   C     C_R   0.944411 0.082820 0.410179 -0.024912
C31   C     C_R   0.945559 0.415820 0.422871 -0.009696
C32   C     C_R   0.054431 0.585403 0.591346 -0.041900
C33   C     C_R   0.992290 0.964524 0.553099 0.124203
C34   C     C_R   0.000174 0.023837 0.416966 -0.046202
C35   C     C_R   0.996204 0.478695 0.418624 0.086505
C36   C     C_R   0.990514 0.535373 0.562066 -0.007768
C37   C     C_2   0.058439 0.051116 0.090152 0.491943
H1    H     H_    0.002359 0.063836 0.028032 0.093229
O21   O     O_2   0.113647 0.055218 0.984183 -0.494007
C38   C     C_2   0.928654 0.913948 0.854056 0.469427
H2    H     H_    0.874830 0.888098 0.895371 0.112731
O22   O     O_2   0.986720 0.900284 0.949302 -0.545638
C39   C     C_2   0.900433 0.608276 0.777433 0.413844
H3    H     H_    0.899724 0.607670 0.933837 0.108427
O23   O     O_2   0.882768 0.665674 0.690626 -0.491274
C40   C     C_2   0.040977 0.455920 0.076925 0.451136
H4    H     H_    0.087138 0.452953 0.974304 0.133034
O24   O     O_2   0.976259 0.440534 0.018098 -0.549366
C41   C     C_2   0.960514 0.151447 0.297014 0.279171
H5    H     H_    0.013666 0.181777 0.324192 0.124131
O25   O     O_2   0.918745 0.169964 0.162045 -0.503316
C42   C     C_2   0.022767 0.825277 0.594505 0.447006
H6    H     H_    0.065011 0.785657 0.648930 0.021497
O26   O     O_2   0.957107 0.803490 0.563175 -0.501604
C43   C     C_2   0.062169 0.629901 0.771533 0.343069
H7    H     H_    0.027926 0.679814 0.794539 0.089071
O27   O     O_2   0.107523 0.610087 0.897681 -0.538428
C44   C     C_2   0.969215 0.342843 0.336539 0.413204
H8    H     H_    0.927025 0.305627 0.272009 0.104077
O28   O     O_2   0.036719 0.323552 0.339217 -0.513159
C45   C     C_2   0.804801 0.021782 0.798017 0.386140
H9    H     H_    0.747957 0.032881 0.737247 0.035738
O29   O     O_2   0.811764 0.012729 0.971940 -0.528912
C46   C     C_2   0.208866 0.999530 0.284544 0.515995
H10   H     H_    0.254271 0.957736 0.278652 0.004233
O30   O     O_2   0.225319 0.064914 0.249044 -0.480146
C47   C     C_2   0.194568 0.510997 0.220106 0.429221
H11   H     H_    0.241370 0.551101 0.218194 0.058263
O31   O     O_2   0.206760 0.448722 0.151887 -0.514359
C48   C     C_2   0.790400 0.486700 0.757808 0.425991
H12   H     H_    0.738329 0.463680 0.692345 0.026059
O32   O     O_2   0.786729 0.513886 0.919171 -0.531175

loop_
_geom_bond_atom_site_label_1
_geom_bond_atom_site_label_2
_ccdc_geom_bond_type
O10   C7    A    
C31   C35   A    
O13   V3    S    
C41   H5    S    
V1    O19   S    
C1    C17   S    
C27   C48   S    
C45   H9    S    
C32   C43   S    
C42   O26   D    
C18   C29   A    
C30   C34   A    
C19   C28   A    
O6    C2    A    
O4    C1    A    
C37   O21   D    
O18   V3    S    
C26   C45   S    
C23   C36   A    
O9    V1    S    
O10   V2    S    
C40   H4    S    
O14   V4    S    
O17   C7    A    
C4    C20   S    
O5    C1    A    
O4    V3    S    
C2    C18   S    
O7    C3    A    
C35   C36   A    
O8    C4    A    
C41   O25   D    
C25   C46   S    
C48   H12   S    
C23   C39   S    
C45   O29   D    
C7    C10   S    
C21   C34   A    
O11   V2    S    
O8    V1    S    
C39   H3    S    
O17   V4    S    
C12   C16   T    
C42   H6    S    
C15   C16   S    
C43   O27   D    
C29   C33   A    
C23   C27   A    
C5    C12   S    
O11   C6    A    
O15   V3    S    
C9    C13   T    
C32   C36   A    
C22   C38   S    
C39   O23   D    
C38   O22   D    
O3    V4    S    
C11   C15   T    
C13   C14   S    
C47   O31   D    
C30   C41   S    
C19   C32   A    
C21   C25   A    
O1    V3    S    
O1    C4    A    
C31   C44   S    
C48   O32   D    
O2    C3    A    
O3    C2    A    
C20   C27   A    
C46   O30   D    
C8    C9    S    
C44   H8    S    
C44   O28   D    
C22   C33   A    
C29   C42   S    
C17   C26   A    
C47   H11   S    
C24   C35   A    
V2    O20   S    
O15   C5    A    
O16   V4    S    
C10   C14   T    
O18   C8    A    
C24   C40   S    
O5    V1    S    
O6    V2    S    
C22   C26   A    
O12   C5    A    
O2    V4    S    
C38   H2    S    
C3    C19   S    
V3    O19   S    
V4    O20   S    
C20   C31   A    
C33   C34   A    
O12   V1    S    
C21   C37   S    
O13   V1    S    
O14   V2    S    
C37   H1    S    
C17   C30   A    
C18   C25   A    
C43   H7    S    
C6    C11   S    
C24   C28   A    
C46   H10   S    
O7    V2    S    
O16   C6    A    
C28   C47   S    
C40   O24   D    
O9    C8    A    
