data_mof_unit_9993.cif
_audit_creation_date              2012-12-10T22:11:11-0500
_audit_creation_method            fapswitch 2.2
_symmetry_space_group_name_H-M    P1
_symmetry_Int_Tables_number       1
_space_group_crystal_system       triclinic
_cell_length_a                    12.081859
_cell_length_b                    12.301882
_cell_length_c                    23.22059
_cell_angle_alpha                 90.750791
_cell_angle_beta                  91.036739
_cell_angle_gamma                 91.124609
_cell_volume                      3449.72472832

loop_
_atom_site_label
_atom_site_type_symbol
_atom_type_description
_atom_site_fract_x
_atom_site_fract_y
_atom_site_fract_z
_atom_type_partial_charge
C1    C     C_R   0.656571 0.998592 0.579935 0.954754
C2    C     C_R   0.343169 0.001403 0.420274 0.967523
C3    C     C_R   0.891168 0.783870 0.139942 0.483236
C4    C     C_R   0.093618 0.179591 0.880089 0.494912
C5    C     C_R   0.084150 0.903267 0.166155 0.540473
C6    C     C_R   0.912730 0.152165 0.803929 0.558397
C7    C     C_R   0.087646 0.819067 0.125903 0.310001
C8    C     C_R   0.910893 0.231983 0.846526 0.274080
C9    C     C_R   0.902910 0.125588 0.173419 -0.258337
C10   C     C_R   0.098084 0.827675 0.800364 -0.135359
C11   C     C_R   0.905873 0.198249 0.128600 0.432607
C12   C     C_R   0.098811 0.748673 0.842394 0.375105
C13   C     C_R   0.157949 0.908969 0.296539 0.636573
C14   C     C_R   0.901354 0.085006 0.672517 0.503409
C15   C     C_R   0.241549 0.908469 0.339106 0.313443
C16   C     C_R   0.810998 0.091411 0.634640 0.355614
C17   C     C_R   0.839029 0.100514 0.303895 0.451518
C18   C     C_R   0.120099 0.906709 0.674476 0.418292
C19   C     C_R   0.770579 0.102114 0.351126 0.353421
C20   C     C_R   0.188354 0.912354 0.627732 0.361222
C21   C     C_3   0.992506 0.007532 0.246585 0.174020
C22   C     C_3   0.010418 0.992906 0.752889 0.229144
C23   C     C_R   0.656007 0.002067 0.421366 0.995332
C24   C     C_R   0.346988 0.998153 0.579669 0.992465
C25   C     C_R   0.090528 0.001148 0.289485 0.042225
C26   C     C_R   0.914017 0.994473 0.708493 0.033144
C27   C     C_R   0.256752 0.000830 0.375531 -0.326846
C28   C     C_R   0.742388 0.998602 0.625094 -0.333021
C29   C     C_R   0.892174 0.003603 0.286700 -0.169892
C30   C     C_R   0.113425 0.994550 0.714427 -0.229995
C31   C     C_R   0.740022 0.003782 0.376996 -0.409417
C32   C     C_R   0.266336 0.997385 0.624835 -0.446203
C33   C     C_R   0.995945 0.109617 0.209514 -0.102311
C34   C     C_R   0.004708 0.892101 0.791015 -0.119448
C35   C     C_R   0.997805 0.269276 0.124607 -0.372475
C36   C     C_R   0.002014 0.727950 0.873675 -0.368036
C37   C     C_R   0.989441 0.917894 0.200096 -0.182222
C38   C     C_R   0.006809 0.086408 0.797230 -0.214902
C39   C     C_R   0.990735 0.756972 0.113647 -0.463172
C40   C     C_R   0.004770 0.250076 0.882496 -0.490609
C41   C     C_R   0.993057 0.664627 0.073882 0.997310
C42   C     C_R   0.006319 0.338083 0.924633 1.003457
C43   C     C_R   0.998966 0.352015 0.080733 0.968178
C44   C     C_R   0.001115 0.646798 0.918561 0.974554
C45   C     C_R   0.104087 0.088263 0.328854 -0.351454
C46   C     C_R   0.843862 0.903412 0.698475 -0.176114
C47   C     C_R   0.189219 0.092039 0.369611 0.439503
C48   C     C_R   0.756510 0.905531 0.658817 0.392796
C49   C     C_R   0.868211 0.905826 0.316711 0.381937
C50   C     C_R   0.189708 0.084370 0.709189 0.467141
C51   C     C_R   0.791611 0.907095 0.361121 0.436480
C52   C     C_R   0.269674 0.080275 0.666603 0.444640
C53   C     C_R   0.090928 0.177154 0.202359 0.634982
C54   C     C_R   0.909746 0.872547 0.824419 0.440834
C55   C     C_R   0.089506 0.258825 0.161885 0.493068
C56   C     C_R   0.907395 0.789570 0.863805 0.487155
C57   C     C_R   0.889880 0.864347 0.181911 0.411473
C58   C     C_R   0.092691 0.096205 0.839639 0.522160
H1    H     H_    0.828146 0.077446 0.178606 0.242620
H2    H     H_    0.174458 0.842275 0.778112 0.199645
H3    H     H_    0.048195 0.155463 0.327006 0.186386
H4    H     H_    0.857994 0.827642 0.719738 0.196618
O1    O     O_R   0.621380 0.090460 0.561410 -0.622407
O2    O     O_R   0.378620 0.909540 0.438590 -0.619137
O3    O     O_R   0.617150 0.909540 0.438590 -0.552813
O4    O     O_R   0.382850 0.090460 0.561410 -0.578953
O5    O     O_R   0.619720 0.093230 0.440890 -0.609764
O6    O     O_R   0.380280 0.906770 0.559110 -0.611984
O7    O     O_R   0.618800 0.906770 0.559110 -0.576407
O8    O     O_R   0.381200 0.093230 0.440890 -0.602004
O9    O     O_R   0.087590 0.627480 0.058790 -0.621169
O10   O     O_R   0.912410 0.372520 0.941210 -0.628231
O11   O     O_R   0.905660 0.383870 0.059980 -0.586355
O12   O     O_R   0.094340 0.616130 0.940020 -0.617002
O13   O     O_R   0.092570 0.390420 0.063230 -0.565034
O14   O     O_R   0.907430 0.609580 0.936770 -0.565970
O15   O     O_R   0.900680 0.620930 0.055550 -0.555570
O16   O     O_R   0.099320 0.379070 0.944450 -0.569655
Zn1   Zn    Zn3+2 0.501730 0.123520 0.501540 0.984231
Zn2   Zn    Zn3+2 0.498270 0.876480 0.498460 1.035703
Zn3   Zn    Zn3+2 0.125690 0.504390 0.002180 1.034630
Zn4   Zn    Zn3+2 0.874310 0.495610 0.997820 1.065828
O17   O     O_3   0.201176 0.180256 0.407498 -0.628143
C59   C     C_3   0.221470 0.278763 0.377858 0.090325
H5    H     H_    0.216849 0.346119 0.409956 0.156492
H6    H     H_    0.156756 0.295523 0.344761 0.147941
C60   C     C_3   0.337312 0.283132 0.351462 -0.284804
H7    H     H_    0.401312 0.278209 0.386231 0.232331
H8    H     H_    0.347412 0.213469 0.321216 0.266893
C61   C     C_3   0.355959 0.388205 0.318497 -0.887096
H9    H     H_    0.293183 0.395028 0.283234 0.300413
H10   H     H_    0.439536 0.388341 0.299377 0.285815
H11   H     H_    0.350721 0.459543 0.347965 0.235100
O18   O     O_3   0.689603 0.813652 0.649659 -0.605236
C62   C     C_3   0.635332 0.782341 0.700684 0.091647
H12   H     H_    0.544821 0.780084 0.691185 0.166470
H13   H     H_    0.648417 0.839667 0.738028 0.170472
C63   C     C_3   0.671178 0.668198 0.717381 -0.334267
H14   H     H_    0.655723 0.612101 0.680199 0.231508
H15   H     H_    0.761145 0.668339 0.727853 0.227581
C64   C     C_3   0.608176 0.626720 0.769249 -0.927127
H16   H     H_    0.622030 0.682547 0.806732 0.299351
H17   H     H_    0.638302 0.545338 0.781251 0.273751
H18   H     H_    0.518284 0.619739 0.758679 0.255226
O19   O     O_3   0.935202 0.816349 0.309142 -0.638733
C65   C     C_3   0.874859 0.718917 0.295884 0.279025
H19   H     H_    0.886139 0.698559 0.249834 0.152126
H20   H     H_    0.783963 0.722486 0.302549 0.183408
C66   C     C_3   0.924628 0.626839 0.330567 -0.394339
H21   H     H_    0.014592 0.624272 0.321891 0.243392
H22   H     H_    0.913654 0.642452 0.377346 0.260642
C67   C     C_3   0.872189 0.516951 0.313788 -0.890201
H23   H     H_    0.783132 0.514788 0.324863 0.277026
H24   H     H_    0.915433 0.452124 0.337518 0.255277
H25   H     H_    0.880641 0.500869 0.266895 0.283597
O20   O     O_3   0.199099 0.166954 0.750159 -0.597957
C68   C     C_3   0.175235 0.270148 0.727227 0.185392
H26   H     H_    0.087982 0.289216 0.736845 0.176036
H27   H     H_    0.186293 0.275786 0.679774 0.182502
C69   C     C_3   0.249725 0.355641 0.757724 -0.371947
H28   H     H_    0.237669 0.351355 0.805016 0.247985
H29   H     H_    0.337688 0.338173 0.748917 0.252628
C70   C     C_3   0.224088 0.470296 0.737738 -0.869617
H30   H     H_    0.236991 0.477111 0.690672 0.270529
H31   H     H_    0.280091 0.529884 0.760580 0.279434
H32   H     H_    0.137131 0.490423 0.747555 0.277292
F1    F     F_    0.188152 0.162010 0.230912 -0.615908
F2    F     F_    0.818784 0.935016 0.819556 -0.647049
F3    F     F_    0.789804 0.888883 0.203748 -0.654397
F4    F     F_    0.180802 0.029407 0.839381 -0.643388
F5    F     F_    0.176058 0.967336 0.174160 -0.614358
F6    F     F_    0.817339 0.136260 0.773067 -0.660740
F7    F     F_    0.141838 0.818233 0.263806 -0.713619
F8    F     F_    0.975796 0.168575 0.674832 -0.737700
F9    F     F_    0.859681 0.198128 0.279287 -0.676562
F10   F     F_    0.053206 0.817069 0.678020 -0.665800
F11   F     F_    0.775116 0.815596 0.392262 -0.665985
F12   F     F_    0.352444 0.156894 0.666960 -0.657041
F13   F     F_    0.180010 0.325512 0.158100 -0.608575
F14   F     F_    0.813914 0.774240 0.894590 -0.621695
F15   F     F_    0.794343 0.730614 0.126503 -0.598039
F16   F     F_    0.180764 0.189623 0.917711 -0.596804
O21   O     O_3   0.183687 0.803113 0.095479 -0.585971
C71   C     C_3   0.261511 0.750213 0.131110 0.218996
H33   H     H_    0.224242 0.675948 0.150680 0.142024
H34   H     H_    0.292833 0.805865 0.166145 0.215082
C72   C     C_3   0.359370 0.716227 0.094670 -0.384487
H35   H     H_    0.329544 0.660116 0.059550 0.228298
H36   H     H_    0.397426 0.789372 0.074813 0.249537
C73   C     C_3   0.446966 0.659462 0.130958 -0.831192
H37   H     H_    0.479402 0.714831 0.165763 0.287180
H38   H     H_    0.516801 0.635977 0.103269 0.289292
H39   H     H_    0.411213 0.584887 0.150398 0.267326
O22   O     O_3   0.818269 0.296402 0.850324 -0.585304
C74   C     C_3   0.731055 0.238603 0.877430 0.193097
H40   H     H_    0.724882 0.269081 0.922487 0.147204
H41   H     H_    0.742494 0.148758 0.879328 0.164828
C75   C     C_3   0.621991 0.259673 0.845435 -0.374546
H42   H     H_    0.608332 0.348677 0.843571 0.222140
H43   H     H_    0.626596 0.227194 0.800727 0.278105
C76   C     C_3   0.524015 0.204970 0.874813 -0.835037
H44   H     H_    0.535118 0.115612 0.876172 0.272008
H45   H     H_    0.446523 0.221485 0.850260 0.295761
H46   H     H_    0.516074 0.237288 0.919406 0.266249
O23   O     O_3   0.817333 0.202642 0.089741 -0.584908
C77   C     C_3   0.807974 0.105018 0.056538 0.110310
H47   H     H_    0.724355 0.102664 0.035799 0.181521
H48   H     H_    0.812818 0.030468 0.083048 0.145510
C78   C     C_3   0.894364 0.102302 0.008959 -0.465128
H49   H     H_    0.883440 0.173917 0.981205 0.232009
H50   H     H_    0.979231 0.106017 0.028215 0.238198
C79   C     C_3   0.882209 0.999267 0.971937 -0.805594
H51   H     H_    0.894808 0.926141 0.998683 0.275509
H52   H     H_    0.945359 0.000637 0.937799 0.248666
H53   H     H_    0.798774 0.994294 0.951076 0.287923
O24   O     O_3   0.194602 0.691043 0.852187 -0.617561
C80   C     C_3   0.274653 0.757740 0.881997 0.145413
H54   H     H_    0.294927 0.718622 0.923645 0.164711
H55   H     H_    0.246304 0.841446 0.892844 0.182226
C81   C     C_3   0.380176 0.765643 0.846795 -0.406427
H56   H     H_    0.414941 0.683210 0.841944 0.230902
H57   H     H_    0.360529 0.796927 0.803216 0.231348
C82   C     C_3   0.466579 0.841160 0.875976 -0.838179
H58   H     H_    0.433086 0.924047 0.881400 0.284581
H59   H     H_    0.541307 0.846915 0.848976 0.283532
H60   H     H_    0.490906 0.809318 0.918825 0.268910
O25   O     O_3   0.321306 0.827890 0.339881 -0.599041
C83   C     C_3   0.278388 0.721095 0.348876 0.187351
H61   H     H_    0.351204 0.668142 0.354113 0.157684
H62   H     H_    0.233096 0.687357 0.310629 0.188414
C84   C     C_3   0.209034 0.710353 0.403408 -0.429294
H63   H     H_    0.255267 0.748171 0.440299 0.255495
H64   H     H_    0.129046 0.752197 0.397333 0.220421
C85   C     C_3   0.185817 0.591456 0.417922 -0.979992
H65   H     H_    0.150238 0.546113 0.380111 0.258315
H66   H     H_    0.126240 0.586876 0.453709 0.282919
H67   H     H_    0.263651 0.552237 0.431892 0.266814
O26   O     O_3   0.795315 0.184730 0.602794 -0.623839
C86   C     C_3   0.764127 0.272615 0.638890 0.132501
H68   H     H_    0.770800 0.347958 0.613216 0.151955
H69   H     H_    0.821062 0.285145 0.676638 0.210051
C87   C     C_3   0.644100 0.260239 0.659148 -0.309267
H70   H     H_    0.586737 0.253196 0.621373 0.263259
H71   H     H_    0.634985 0.186053 0.685575 0.246546
C88   C     C_3   0.610800 0.358304 0.695068 -0.952460
H72   H     H_    0.671540 0.373791 0.730826 0.276886
H73   H     H_    0.527948 0.343047 0.713503 0.287863
H74   H     H_    0.606479 0.430904 0.667417 0.261097
O27   O     O_3   0.729362 0.200469 0.370470 -0.563244
C89   C     C_3   0.814493 0.264316 0.398190 0.121887
H75   H     H_    0.787183 0.349951 0.398575 0.166036
H76   H     H_    0.894097 0.263570 0.374861 0.158011
C90   C     C_3   0.834332 0.230592 0.460854 -0.361327
H77   H     H_    0.758419 0.244624 0.485982 0.267927
H78   H     H_    0.853873 0.142961 0.462574 0.215902
C91   C     C_3   0.930763 0.295829 0.488374 -0.902061
H79   H     H_    0.007736 0.282733 0.463975 0.271767
H80   H     H_    0.945072 0.269055 0.533291 0.313409
H81   H     H_    0.912144 0.383902 0.489006 0.255052
O28   O     O_3   0.178519 0.831339 0.585893 -0.563304
C92   C     C_3   0.120504 0.870769 0.537096 0.118366
H82   H     H_    0.128173 0.809253 0.502403 0.160814
H83   H     H_    0.157635 0.947796 0.520847 0.107215
C93   C     C_3   0.996512 0.884484 0.547912 -0.352147
H84   H     H_    0.961319 0.808887 0.566574 0.277590
H85   H     H_    0.984522 0.952940 0.578596 0.203525
C94   C     C_3   0.934562 0.908919 0.491986 -0.897104
H86   H     H_    0.969080 0.983824 0.472360 0.245167
H87   H     H_    0.845631 0.920915 0.500850 0.280028
H88   H     H_    0.942261 0.839964 0.461088 0.298303

loop_
_geom_bond_atom_site_label_1
_geom_bond_atom_site_label_2
_ccdc_geom_bond_type
C43   O11   A    
C85   H66   S    
C60   H7    S    
C16   C28   A    
O23   C77   S    
C5    C37   A    
C74   H41   S    
C17   C29   A    
C78   H49   S    
C53   C55   A    
C62   H12   S    
C3    F15   S    
C91   H81   S    
C19   C31   A    
C93   H84   S    
C68   H27   S    
C7    O21   S    
C76   H44   S    
C62   C63   S    
C16   O26   S    
C70   H30   S    
C39   C41   S    
O1    Zn1   S    
C88   H72   S    
C79   H51   S    
O4    Zn1   S    
C90   C91   S    
C64   H16   S    
C87   H71   S    
O19   C65   S    
C46   H4    S    
C83   C84   S    
C57   F3    S    
C72   H36   S    
C59   H6    S    
C92   C93   S    
C82   H59   S    
C4    F16   S    
C56   F14   S    
C63   H14   S    
C70   H31   S    
C85   H67   S    
C21   C33   S    
C65   H19   S    
C25   C45   A    
O21   C71   S    
C22   C38   S    
C55   F13   S    
O20   C68   S    
C83   H62   S    
C23   O5    A    
C44   O14   A    
C94   H86   S    
C32   C52   A    
C53   F1    S    
C75   C76   S    
C38   C58   A    
C15   C27   A    
C11   C35   A    
C72   H35   S    
C79   H52   S    
C49   C51   A    
C73   H39   S    
C17   F9    S    
C1    C28   S    
C52   F12   S    
C6    C38   A    
C18   F10   S    
O26   C86   S    
C18   C30   A    
C47   O17   S    
C12   C36   A    
C8    O22   S    
C18   C20   A    
C69   C70   S    
C24   O4    A    
C41   O9    A    
C45   C47   A    
C85   H65   S    
C30   C50   A    
C3    C39   A    
C86   H68   S    
C64   H17   S    
O3    Zn2   S    
C74   C75   S    
C75   H43   S    
O2    Zn2   S    
C13   C25   A    
C71   C72   S    
C2    O8    A    
C1    O1    A    
C67   H24   S    
O28   C92   S    
C76   H45   S    
C81   H57   S    
C20   O28   S    
C46   C48   A    
C90   H78   S    
C33   C53   A    
C61   H10   S    
C22   C34   S    
C54   C56   A    
C87   H70   S    
C35   C55   A    
C84   H63   S    
C4    C40   A    
C77   H48   S    
O5    Zn1   S    
C59   H5    S    
C2    O2    A    
C71   H34   S    
C68   C69   S    
O14   Zn4   S    
C5    C7    A    
C26   C46   A    
O13   Zn3   S    
C70   H32   S    
C49   O19   S    
C14   F8    S    
C80   H55   S    
C90   H77   S    
C54   F2    S    
C87   C88   S    
C1    O7    A    
C66   C67   S    
C83   H61   S    
C9    H1    S    
C23   C31   S    
C10   H2    S    
C82   H58   S    
C24   C32   S    
C92   H82   S    
C36   C56   A    
C73   H38   S    
C29   C49   A    
C86   C87   S    
C81   C82   S    
C50   C52   A    
O17   C59   S    
C80   C81   S    
C72   C73   S    
C42   O10   A    
O27   C89   S    
C10   C34   A    
C91   H79   S    
C44   O12   A    
C9    C11   A    
C10   C12   A    
O22   C74   S    
C2    C27   S    
C48   O18   S    
C9    C33   A    
C51   F11   S    
C6    F6    S    
O24   C80   S    
C94   H87   S    
C34   C54   A    
C64   H18   S    
C63   H15   S    
C13   C15   A    
C75   H42   S    
C78   C79   S    
C14   C16   A    
C82   H60   S    
O12   Zn3   S    
O6    Zn2   S    
C89   C90   S    
C93   C94   S    
C3    C57   A    
O11   Zn4   S    
C76   H46   S    
C35   C43   S    
C69   H28   S    
C69   H29   S    
C61   H11   S    
C86   H69   S    
C14   C26   A    
C78   H50   S    
C88   H74   S    
C27   C47   A    
C21   C25   S    
C62   H13   S    
C28   C48   A    
C7    C39   A    
C22   C30   S    
O8    Zn1   S    
C19   O27   S    
C13   F7    S    
C31   C51   A    
C40   C42   S    
C93   H85   S    
C21   C29   S    
C6    C8    A    
C79   H53   S    
C42   O16   A    
C59   C60   S    
C63   C64   S    
C67   H23   S    
C89   H76   S    
C12   O24   S    
C71   H33   S    
C23   O3    A    
C66   H22   S    
C84   C85   S    
O25   C83   S    
C92   H83   S    
C20   C32   A    
C68   H26   S    
C84   H64   S    
C41   O15   A    
O16   Zn3   S    
C61   H9    S    
C77   H47   S    
C65   H20   S    
O15   Zn4   S    
C58   F4    S    
O10   Zn4   S    
C45   H3    S    
C17   C19   A    
C50   O20   S    
C89   H75   S    
O18   C62   S    
C37   C57   A    
C36   C44   S    
C24   O6    A    
C5    F5    S    
C94   H88   S    
C21   C37   S    
C77   C78   S    
C80   H54   S    
C22   C26   S    
C60   C61   S    
C4    C58   A    
C74   H40   S    
C11   O23   S    
C60   H8    S    
C43   O13   A    
C73   H37   S    
O7    Zn2   S    
C8    C40   A    
C66   H21   S    
C88   H73   S    
C67   H25   S    
C15   O25   S    
C81   H56   S    
C91   H80   S    
O9    Zn3   S    
C65   C66   S    
