data_mof_unit_65830.cif
_audit_creation_date              2012-12-10T17:55:59-0500
_audit_creation_method            fapswitch 2.2
_symmetry_space_group_name_H-M    P1
_symmetry_Int_Tables_number       1
_space_group_crystal_system       triclinic
_cell_length_a                    18.349704
_cell_length_b                    18.366102
_cell_length_c                    25.97045
_cell_angle_alpha                 90.000515
_cell_angle_beta                  89.998674
_cell_angle_gamma                 90.000033
_cell_volume                      8752.36719556

loop_
_atom_site_label
_atom_site_type_symbol
_atom_type_description
_atom_site_fract_x
_atom_site_fract_y
_atom_site_fract_z
_atom_type_partial_charge
C1    C     C_R   0.140222 0.859792 0.249991 0.511945
C2    C     C_R   0.256072 0.809405 0.216575 -0.132760
C3    C     C_R   0.743379 0.809966 0.782855 -0.135423
C4    C     C_R   0.743386 0.809960 0.217139 -0.135481
C5    C     C_R   0.756614 0.309960 0.282861 -0.135481
C6    C     C_R   0.756621 0.309965 0.717145 -0.135424
C7    C     C_R   0.243929 0.309406 0.283425 -0.132756
C8    C     C_R   0.243771 0.309568 0.716742 -0.132449
C9    C     C_R   0.810015 0.256532 0.282865 -0.135488
C10   C     C_R   0.810021 0.256536 0.717141 -0.135759
C11   C     C_R   0.190550 0.255951 0.283454 -0.121485
C12   C     C_R   0.140224 0.859796 0.750004 0.516878
C13   C     C_R   0.190391 0.256117 0.716716 -0.127204
C14   C     C_R   0.309610 0.756118 0.783283 -0.127208
C15   C     C_R   0.309450 0.755950 0.216546 -0.121486
C16   C     C_R   0.689979 0.756537 0.782859 -0.135759
C17   C     C_R   0.689985 0.756531 0.217135 -0.135486
C18   C     C_R   0.803680 0.196280 0.250025 0.040409
C19   C     C_R   0.803680 0.196281 0.749977 0.040771
C20   C     C_R   0.196386 0.196206 0.250107 0.042534
C21   C     C_R   0.196380 0.196214 0.749905 0.043483
C22   C     C_R   0.303620 0.696215 0.750095 0.043477
C23   C     C_R   0.859772 0.859800 0.250001 0.507182
C24   C     C_R   0.303614 0.696206 0.249893 0.042538
C25   C     C_R   0.696320 0.696281 0.750023 0.040771
C26   C     C_R   0.696320 0.696280 0.249975 0.040410
C27   C     C_R   0.933964 0.000010 0.026837 -0.133905
C28   C     C_R   0.933964 0.000010 0.973166 -0.133818
C29   C     C_R   0.066037 0.999962 0.026834 -0.132706
C30   C     C_R   0.066036 0.999962 0.973163 -0.132866
C31   C     C_R   0.433963 0.499962 0.526837 -0.132863
C32   C     C_R   0.433963 0.499962 0.473166 -0.132703
C33   C     C_R   0.566036 0.500010 0.526834 -0.133817
C34   C     C_R   0.859772 0.859801 0.749998 0.505328
C35   C     C_R   0.566035 0.500010 0.473163 -0.133904
C36   C     C_R   1.000000 0.999987 0.945847 0.037247
C37   C     C_R   0.000001 0.999987 0.054153 0.037124
C38   C     C_R   0.499999 0.499987 0.445847 0.037125
C39   C     C_R   0.500000 0.499987 0.554153 0.037248
C40   C     C_R   0.859780 0.140182 0.250032 0.503817
C41   C     C_R   0.859779 0.140182 0.749969 0.504014
C42   C     C_R   0.140244 0.140155 0.250061 0.518833
C43   C     C_R   0.140244 0.140155 0.749940 0.524613
C44   C     C_R   0.359756 0.640156 0.750060 0.524622
C45   C     C_R   0.640228 0.359801 0.750002 0.505323
C46   C     C_R   0.359755 0.640155 0.249939 0.518845
C47   C     C_R   0.640221 0.640182 0.750031 0.504010
C48   C     C_R   0.640220 0.640182 0.249968 0.503815
C49   C     C_R   0.000001 0.999989 0.110834 0.503899
C50   C     C_R   1.000000 0.999989 0.889166 0.503151
C51   C     C_R   0.500000 0.499989 0.610834 0.503152
C52   C     C_R   0.499999 0.499989 0.389166 0.503899
C53   C     C_R   0.003555 0.999906 0.388722 0.538602
C54   C     C_R   0.000826 0.000193 0.611367 0.567766
C55   C     C_R   0.499177 0.500194 0.888633 0.567834
C56   C     C_R   0.640227 0.359800 0.249999 0.507182
C57   C     C_R   0.496447 0.499903 0.111278 0.538654
C58   C     C_2   0.053425 0.042119 0.529365 -0.047339
C59   C     C_2   0.044898 0.052251 0.472841 -0.050598
C60   C     C_2   0.455049 0.552200 0.027159 -0.050659
C61   C     C_2   0.446520 0.542049 0.970637 -0.047367
C62   C     C_2   0.003715 0.001940 0.555589 -0.071811
C63   C     C_2   0.016679 0.997444 0.444172 -0.085266
C64   C     C_2   0.483333 0.497430 0.055827 -0.085264
C65   C     C_2   0.496289 0.501948 0.944410 -0.071760
C66   C     C_R   0.743386 0.190015 0.217184 -0.135264
C67   C     C_R   0.359776 0.359796 0.749996 0.516885
C68   C     C_R   0.743380 0.190013 0.782814 -0.135316
C69   C     C_R   0.256211 0.190413 0.216797 -0.134901
C70   C     C_R   0.256350 0.190275 0.783070 -0.132728
C71   C     C_R   0.243649 0.690273 0.716930 -0.132728
C72   C     C_R   0.243789 0.690414 0.283203 -0.134901
C73   C     C_R   0.756620 0.690012 0.717186 -0.135315
C74   C     C_R   0.756615 0.690015 0.282815 -0.135264
C75   C     C_R   0.190263 0.743714 0.716913 -0.130680
C76   C     C_R   0.190401 0.743852 0.283218 -0.132858
C77   C     C_R   0.810020 0.743440 0.717182 -0.135511
C78   C     C_R   0.359778 0.359792 0.250009 0.511950
C79   C     C_R   0.810015 0.743443 0.282819 -0.135280
C80   C     C_R   0.689985 0.243442 0.217181 -0.135281
C81   C     C_R   0.689980 0.243441 0.782817 -0.135509
C82   C     C_R   0.309599 0.243851 0.216782 -0.132860
C83   C     C_R   0.309736 0.243716 0.783088 -0.130679
C84   C     C_R   0.196289 0.803659 0.750058 0.041382
C85   C     C_R   0.196282 0.803650 0.249927 0.040213
C86   C     C_R   0.803677 0.803698 0.750015 0.040606
C87   C     C_R   0.803678 0.803697 0.249983 0.040297
C88   C     C_R   0.696322 0.303697 0.250017 0.040297
C89   C     C_R   0.256229 0.809570 0.783257 -0.132450
C90   C     C_R   0.696323 0.303698 0.749985 0.040607
C91   C     C_R   0.303717 0.303650 0.250072 0.040212
C92   C     C_R   0.303711 0.303660 0.749942 0.041383
C93   C     C_2   0.118484 0.075799 0.554809 0.250626
C94   C     C_2   0.071287 0.121871 0.450286 0.239102
C95   C     C_2   0.428598 0.621797 0.049711 0.239031
C96   C     C_2   0.381386 0.575609 0.945208 0.250432
H1    H     H_    0.958866 0.975047 0.536144 0.059436
H2    H     H_    0.238195 0.644715 0.309268 0.138076
H3    H     H_    0.762605 0.643920 0.691513 0.137576
H4    H     H_    0.762595 0.643927 0.308491 0.137588
H5    H     H_    0.144408 0.738056 0.690957 0.139866
H6    H     H_    0.144666 0.738315 0.309293 0.139477
H7    H     H_    0.856153 0.737507 0.691504 0.138180
H8    H     H_    0.856143 0.737513 0.308500 0.138345
H9    H     H_    0.643857 0.237512 0.191500 0.138344
H10   H     H_    0.643847 0.237508 0.808495 0.138181
H11   H     H_    0.355334 0.238314 0.190707 0.139476
H12   H     H_    0.006413 0.944886 0.461891 0.091832
H13   H     H_    0.355590 0.238059 0.809044 0.139867
H14   H     H_    0.261941 0.855393 0.809199 0.137588
H15   H     H_    0.261660 0.855104 0.190510 0.138934
H16   H     H_    0.737395 0.856059 0.808527 0.137410
H17   H     H_    0.737407 0.856049 0.191464 0.137519
H18   H     H_    0.762593 0.356050 0.308537 0.137519
H19   H     H_    0.762605 0.356057 0.691473 0.137407
H20   H     H_    0.238341 0.355105 0.309490 0.138938
H21   H     H_    0.238060 0.355391 0.690800 0.137585
H22   H     H_    0.856143 0.262461 0.308548 0.138649
H23   H     H_    0.493652 0.444885 0.038107 0.091816
H24   H     H_    0.856154 0.262468 0.691463 0.137341
H25   H     H_    0.144834 0.261456 0.309553 0.151903
H26   H     H_    0.144548 0.261756 0.690747 0.139968
H27   H     H_    0.355453 0.761758 0.809252 0.139979
H28   H     H_    0.355166 0.761455 0.190448 0.151885
H29   H     H_    0.643846 0.762470 0.808537 0.137346
H30   H     H_    0.643857 0.762460 0.191453 0.138651
H31   H     H_    0.882216 0.000030 0.046890 0.136190
H32   H     H_    0.882216 0.000030 0.953114 0.136219
H33   H     H_    0.117785 0.999942 0.046886 0.137097
H34   H     H_    0.541187 0.475142 0.963856 0.059393
H35   H     H_    0.117785 0.999942 0.953110 0.136734
H36   H     H_    0.382215 0.499942 0.546890 0.136735
H37   H     H_    0.382215 0.499942 0.453114 0.137098
H38   H     H_    0.617784 0.500030 0.546886 0.136219
H39   H     H_    0.617784 0.500030 0.453110 0.136190
H40   H     H_    0.149031 0.118164 0.535321 0.105419
H41   H     H_    0.060594 0.172626 0.470303 0.083712
H42   H     H_    0.439216 0.672552 0.029678 0.083815
H43   H     H_    0.350667 0.617791 0.964760 0.105565
H44   H     H_    0.737405 0.143926 0.191508 0.137589
H45   H     H_    0.737394 0.143922 0.808487 0.137576
H46   H     H_    0.261804 0.144714 0.190732 0.138077
H47   H     H_    0.262064 0.144453 0.809014 0.137720
H48   H     H_    0.237935 0.644451 0.690987 0.137720
O1    O     O_3   0.000000 0.000000 0.250030 -0.440552
O2    O     O_R   0.585480 0.353820 0.219950 -0.549568
O3    O     O_R   0.414520 0.353820 0.780050 -0.542977
O4    O     O_R   0.414520 0.353820 0.219950 -0.546607
O5    O     O_R   0.914530 0.146170 0.280090 -0.552392
O6    O     O_R   0.914530 0.146170 0.719910 -0.555256
O7    O     O_R   0.085470 0.146170 0.280090 -0.522941
O8    O     O_R   0.085470 0.146170 0.719910 -0.532951
O9    O     O_R   0.414530 0.646170 0.780090 -0.532929
O10   O     O_R   0.414530 0.646170 0.219910 -0.522943
O11   O     O_R   0.585470 0.646170 0.780090 -0.555260
O12   O     O_3   0.000000 0.000000 0.749970 -0.439278
O13   O     O_R   0.585470 0.646170 0.219910 -0.552397
O14   O     O_R   0.146180 0.085440 0.219990 -0.551876
O15   O     O_R   0.146180 0.085440 0.780010 -0.548001
O16   O     O_R   0.853820 0.085440 0.219990 -0.550505
O17   O     O_R   0.853820 0.085440 0.780010 -0.550414
O18   O     O_R   0.646180 0.585440 0.719990 -0.550416
O19   O     O_R   0.646180 0.585440 0.280010 -0.550506
O20   O     O_R   0.353820 0.585440 0.719990 -0.548000
O21   O     O_R   0.353820 0.585440 0.280010 -0.551875
O22   O     O_R   0.853820 0.914550 0.219980 -0.549426
O23   O     O_3   0.500000 0.500000 0.750030 -0.439283
O24   O     O_R   0.853820 0.914550 0.780020 -0.550094
O25   O     O_R   0.146180 0.914550 0.219980 -0.547330
O26   O     O_R   0.146180 0.914550 0.780020 -0.546474
O27   O     O_R   0.353820 0.414550 0.719980 -0.546472
O28   O     O_R   0.353820 0.414550 0.280020 -0.547327
O29   O     O_R   0.646180 0.414550 0.719980 -0.550096
O30   O     O_R   0.646180 0.414550 0.280020 -0.549426
O31   O     O_R   0.060720 0.999990 0.135450 -0.548062
O32   O     O_R   0.060720 0.999990 0.864550 -0.549475
O33   O     O_R   0.939280 0.999990 0.135450 -0.547594
O34   O     O_3   0.500000 0.500000 0.249970 -0.440552
O35   O     O_R   0.939280 0.999990 0.864550 -0.547847
O36   O     O_R   0.560720 0.499990 0.635450 -0.547848
O37   O     O_R   0.560720 0.499990 0.364550 -0.547595
O38   O     O_R   0.439280 0.499990 0.635450 -0.549477
O39   O     O_R   0.439280 0.499990 0.364550 -0.548062
O40   O     O_R   0.000000 0.939270 0.364600 -0.549875
O41   O     O_R   0.000000 0.939270 0.635400 -0.534828
O42   O     O_R   0.500000 0.439270 0.864600 -0.534820
O43   O     O_R   0.500000 0.439270 0.135400 -0.549880
O44   O     O_R   0.000000 0.060730 0.364620 -0.489501
O45   O     O_R   0.085480 0.853820 0.280050 -0.546608
O46   O     O_R   0.000000 0.060730 0.635380 -0.511420
O47   O     O_R   0.500000 0.560730 0.864620 -0.511346
O48   O     O_R   0.500000 0.560730 0.135380 -0.489493
O49   O     O_2   0.140941 0.054567 0.596451 -0.491239
O50   O     O_2   0.109501 0.122639 0.411795 -0.478859
O51   O     O_2   0.390423 0.622541 0.088221 -0.478910
O52   O     O_2   0.359066 0.554485 0.903503 -0.491285
O53   O     O_R   0.085480 0.853820 0.719950 -0.542983
O54   O     O_R   0.914520 0.853820 0.280050 -0.549565
O55   O     O_R   0.914520 0.853820 0.719950 -0.552720
O56   O     O_R   0.585480 0.353820 0.780050 -0.552724
Zn1   Zn    Zn3+2 0.000000 0.086760 0.292960 0.975104
Zn2   Zn    Zn3+2 0.586770 0.499990 0.292890 0.929047
Zn3   Zn    Zn3+2 0.413230 0.499990 0.707110 0.947317
Zn4   Zn    Zn3+2 0.413230 0.499990 0.292890 0.939434
Zn5   Zn    Zn3+2 0.000000 0.913240 0.292940 0.942404
Zn6   Zn    Zn3+2 0.000000 0.913240 0.707060 0.955320
Zn7   Zn    Zn3+2 0.500000 0.413240 0.792940 0.955336
Zn8   Zn    Zn3+2 0.500000 0.413240 0.207060 0.942412
Zn9   Zn    Zn3+2 0.000000 0.086760 0.707040 0.966232
Zn10  Zn    Zn3+2 0.500000 0.586760 0.792960 0.966283
Zn11  Zn    Zn3+2 0.500000 0.586760 0.207040 0.975104
Zn12  Zn    Zn3+2 0.086770 0.999990 0.207110 0.939423
Zn13  Zn    Zn3+2 0.086770 0.999990 0.792890 0.947302
Zn14  Zn    Zn3+2 0.913230 0.999990 0.207110 0.929049
Zn15  Zn    Zn3+2 0.913230 0.999990 0.792890 0.927463
Zn16  Zn    Zn3+2 0.586770 0.499990 0.707110 0.927457

loop_
_geom_bond_atom_site_label_1
_geom_bond_atom_site_label_2
_ccdc_geom_bond_type
C58   C62   D    
C39   C51   S    
O8    Zn9   S    
O19   Zn2   S    
C17   C26   A    
C8    C13   A    
O15   Zn13  S    
C46   O21   A    
O34   Zn4   S    
C5    H18   S    
O46   Zn9   S    
O37   Zn2   S    
C52   O39   A    
C2    C15   A    
C72   C76   A    
C93   H40   S    
C96   H43   S    
O1    Zn5   S    
C65   H34   S    
C61   C96   S    
C14   C89   A    
O26   Zn13  S    
O18   Zn16  S    
C45   O56   A    
C7    C11   A    
C83   C92   A    
C23   O54   A    
C19   C41   S    
C70   H47   S    
C31   H36   S    
C64   H23   S    
O42   Zn7   S    
C44   O9    A    
O24   Zn15  S    
O21   Zn4   S    
C43   O15   A    
O32   Zn13  S    
C12   O26   A    
O9    Zn10  S    
C17   H30   S    
C56   C88   S    
C38   C52   S    
C30   H35   S    
C62   H1    S    
O44   Zn1   S    
O30   Zn2   S    
C4    C17   A    
C12   C84   S    
C2    C85   A    
C50   O32   A    
C34   C86   S    
C55   O42   A    
O28   Zn4   S    
C18   C40   S    
C69   C82   A    
C26   C74   A    
C21   C43   S    
C47   O18   A    
C27   H31   S    
C34   O55   A    
C3    C16   A    
O39   Zn4   S    
C11   H25   S    
O45   Zn5   S    
C54   O41   A    
O34   Zn8   S    
O43   Zn8   S    
C40   O5    A    
C95   O51   D    
C12   O53   A    
C83   H13   S    
C42   O7    A    
C8    C92   A    
C59   C94   S    
C32   C38   A    
O12   Zn6   S    
C16   H29   S    
C25   C47   S    
C80   H9    S    
C78   O4    A    
O12   Zn13  S    
O1    Zn12  S    
C51   O38   A    
O40   Zn5   S    
O17   Zn15  S    
C7    C91   A    
C23   C87   S    
C3    C86   A    
C1    C85   S    
C9    H22   S    
C5    C88   A    
O53   Zn6   S    
C42   O14   A    
O23   Zn16  S    
O7    Zn1   S    
C34   O24   A    
C33   H38   S    
C79   C87   A    
C55   C65   S    
C40   O16   A    
C8    H21   S    
C49   O33   A    
O14   Zn12  S    
C46   O10   A    
C29   H33   S    
C2    H15   S    
O1    Zn1   S    
C15   H28   S    
O38   Zn3   S    
O6    Zn9   S    
C4    H17   S    
O36   Zn16  S    
C35   C38   A    
C52   O37   A    
C57   O48   A    
O2    Zn8   S    
C53   O40   A    
C35   H39   S    
C48   O19   A    
C74   H4    S    
C41   O6    A    
C54   C62   S    
C67   O27   A    
C69   H46   S    
C82   H11   S    
O25   Zn12  S    
C11   C20   A    
O55   Zn6   S    
C68   H45   S    
C82   C91   A    
C56   O30   A    
C60   C61   S    
O23   Zn7   S    
C7    H20   S    
O48   Zn11  S    
C5    C9    A    
C29   C30   A    
C72   H2    S    
O20   Zn3   S    
C45   O29   A    
C23   O22   A    
C37   C49   S    
C31   C32   A    
C3    H16   S    
O16   Zn14  S    
O29   Zn16  S    
O12   Zn15  S    
C78   O28   A    
C13   C21   A    
C19   C68   A    
C33   C39   A    
O31   Zn12  S    
O3    Zn7   S    
C70   C83   A    
O10   Zn11  S    
O22   Zn14  S    
C81   C90   A    
C15   C24   A    
C77   C86   A    
O13   Zn11  S    
O56   Zn7   S    
O23   Zn3   S    
C74   C79   A    
O34   Zn2   S    
O27   Zn3   S    
C67   O3    A    
O33   Zn14  S    
C79   H8    S    
C77   H7    S    
C84   C89   A    
C68   C81   A    
C29   C37   A    
C51   O36   A    
O5    Zn1   S    
C22   C71   A    
C49   O31   A    
C36   C50   S    
C24   C72   A    
C57   C64   S    
C10   C19   A    
C16   C25   A    
C73   H3    S    
C81   H10   S    
C95   H42   S    
C22   C44   S    
C14   H27   S    
C54   O46   A    
O12   Zn9   S    
C94   O50   D    
O41   Zn6   S    
C53   O44   A    
O11   Zn10  S    
C93   O49   D    
O23   Zn10  S    
C6    C10   A    
C20   C42   S    
C26   C48   S    
C78   C91   S    
C18   C66   A    
C66   C80   A    
C48   O13   A    
C59   C63   D    
C30   C36   A    
C21   C70   A    
C60   C64   D    
C24   C46   S    
C14   C22   A    
C50   O35   A    
C58   C59   S    
C80   C88   A    
C6    C90   A    
C71   C75   A    
C13   H26   S    
C53   C63   S    
C41   O17   A    
C32   H37   S    
C47   O11   A    
C27   C37   A    
C89   H14   S    
C1    O25   A    
C67   C92   S    
C33   C35   A    
C31   C39   A    
O34   Zn11  S    
C25   C73   A    
C56   O2    A    
C75   C84   A    
C6    H19   S    
C57   O43   A    
C10   H24   S    
O4    Zn8   S    
O47   Zn10  S    
O1    Zn14  S    
C60   C95   S    
C61   C65   D    
C9    C18   A    
C96   O52   D    
C66   H44   S    
C4    C87   A    
C28   C36   A    
O35   Zn15  S    
C27   C28   A    
C75   H5    S    
C94   H41   S    
C73   C77   A    
C20   C69   A    
C58   C93   S    
C44   O20   A    
C76   H6    S    
C63   H12   S    
C76   C85   A    
C45   C90   S    
C43   O8    A    
C28   H32   S    
C55   O47   A    
C71   H48   S    
O54   Zn5   S    
C1    O45   A    
