data_mof_unit_56331.cif
_audit_creation_date              2012-12-10T18:34:31-0500
_audit_creation_method            fapswitch 2.2
_symmetry_space_group_name_H-M    P1
_symmetry_Int_Tables_number       1
_space_group_crystal_system       triclinic
_cell_length_a                    15.100954
_cell_length_b                    15.50962
_cell_length_c                    15.717991
_cell_angle_alpha                 91.444813
_cell_angle_beta                  104.616136
_cell_angle_gamma                 80.445022
_cell_volume                      3512.22233763

loop_
_atom_site_label
_atom_site_type_symbol
_atom_type_description
_atom_site_fract_x
_atom_site_fract_y
_atom_site_fract_z
_atom_type_partial_charge
C1    C     C_R   0.440469 0.662196 0.485857 0.842891
C2    C     C_R   0.559526 0.337829 0.514403 0.872518
C3    C     C_R   0.283265 0.881055 0.410485 -0.076254
C4    C     C_R   0.716321 0.119280 0.591755 -0.086749
C5    C     C_R   0.308957 0.789828 0.427947 -0.066596
C6    C     C_R   0.690605 0.210498 0.574334 -0.085384
C7    C     C_R   0.462839 0.813399 0.506819 -0.208133
C8    C     C_R   0.537550 0.186558 0.493287 -0.201444
C9    C     C_R   0.440321 0.902688 0.487958 0.066221
C10   C     C_R   0.559725 0.097361 0.512793 0.066896
C11   C     C_R   0.352980 0.935367 0.430235 0.022259
C12   C     C_R   0.646763 0.064815 0.571198 0.026962
C13   C     C_R   0.507208 0.957967 0.519036 0.019075
C14   C     C_R   0.492774 0.042090 0.481668 0.018983
C15   C     C_R   0.412607 0.068087 0.412935 -0.242185
C16   C     C_R   0.587154 0.931953 0.587926 -0.245338
C17   C     C_R   0.342490 0.017755 0.388963 0.399614
C18   C     C_R   0.657079 0.982400 0.612388 0.398566
C19   C     C_R   0.831252 0.652801 0.614771 -0.191365
C20   C     C_R   0.168609 0.346886 0.387466 -0.190971
C21   C     C_R   0.749248 0.619788 0.604450 -0.006155
C22   C     C_R   0.250576 0.379459 0.396778 0.009075
C23   C     C_R   0.501333 0.500411 0.661741 0.874339
C24   C     C_R   0.498662 0.499599 0.338264 0.909697
C25   C     C_R   0.795131 0.511243 0.507247 0.073102
C26   C     C_R   0.205657 0.489735 0.492862 0.045756
C27   C     C_R   0.885227 0.532873 0.527481 -0.087178
C28   C     C_R   0.115452 0.468066 0.474305 -0.012161
C29   C     C_R   0.898716 0.611438 0.573364 0.049322
C30   C     C_R   0.101643 0.389021 0.429039 0.035343
C31   C     C_R   0.960251 0.482269 0.499634 -0.013549
C32   C     C_R   0.040517 0.518962 0.502345 0.041102
C33   C     C_R   0.041666 0.606295 0.529825 -0.172305
C34   C     C_R   0.958853 0.394938 0.472600 -0.222778
C35   C     C_R   0.976291 0.649283 0.571486 0.413365
C36   C     C_R   0.024103 0.351419 0.431352 0.402291
C37   C     C_3   0.451455 0.575579 0.016639 -0.110486
C38   C     C_3   0.548720 0.424293 0.983440 -0.102687
C39   C     C_3   0.541405 0.567207 0.984847 -0.328949
C40   C     C_3   0.458771 0.432665 0.015234 -0.328198
C41   C     C_1   0.504305 0.500846 0.751382 -0.095521
C42   C     C_1   0.495727 0.499106 0.248641 -0.120150
C43   C     C_3   0.414139 0.509061 0.948494 0.404635
C44   C     C_3   0.586035 0.490811 0.051597 0.404917
C45   C     C_3   0.503658 0.499819 0.917497 0.021743
C46   C     C_3   0.496506 0.500054 0.082574 0.027929
C47   C     C_1   0.505072 0.500649 0.826887 0.121273
C48   C     C_1   0.495022 0.499255 0.173156 0.113727
C49   C     C_R   0.401764 0.756097 0.472814 -0.118958
C50   C     C_R   0.598243 0.243984 0.528014 -0.108311
H1    H     H_    0.575447 0.621781 0.971496 0.197454
H2    H     H_    0.424728 0.378093 0.028587 0.198512
H3    H     H_    0.303239 0.346822 0.366014 0.148281
H4    H     H_    0.696363 0.651722 0.635313 0.147821
H5    H     H_    0.840435 0.710778 0.653577 0.225571
H6    H     H_    0.159101 0.288566 0.349306 0.225311
H7    H     H_    0.093210 0.642676 0.519721 0.193269
H8    H     H_    0.907360 0.358871 0.483315 0.238861
H9    H     H_    0.468692 0.214213 0.456785 0.161485
H10   H     H_    0.532150 0.785749 0.542253 0.162568
H11   H     H_    0.404197 0.126250 0.373515 0.176881
H12   H     H_    0.595343 0.873698 0.627183 0.176657
N1    N     N_R   0.731710 0.552730 0.549140 -0.120761
N2    N     N_R   0.268290 0.447270 0.450860 -0.143983
O1    O     O_R   0.383110 0.605620 0.475230 -0.660175
O2    O     O_R   0.616890 0.394380 0.524770 -0.572385
O3    O     O_R   0.531900 0.639510 0.506760 -0.614586
O4    O     O_R   0.468100 0.360490 0.493240 -0.618392
O5    O     O_R   0.425620 0.483070 0.607460 -0.601311
O6    O     O_R   0.574380 0.516930 0.392540 -0.587750
O7    O     O_R   0.574400 0.516960 0.638990 -0.621467
O8    O     O_R   0.425600 0.483040 0.361010 -0.618689
Zn1   Zn    Zn3+2 0.400660 0.477370 0.478940 0.962173
Zn2   Zn    Zn3+2 0.599340 0.522630 0.521060 0.995284
C51   C     C_2   0.239712 0.544254 0.568496 0.478646
H13   H     H_    0.275954 0.596975 0.561456 0.104946
O9    O     O_2   0.227276 0.530238 0.640372 -0.494280
C52   C     C_2   0.762973 0.461849 0.426906 0.463333
H14   H     H_    0.772552 0.482813 0.364935 0.092010
O10   O     O_2   0.732034 0.394576 0.429731 -0.513086
C53   C     C_2   0.396071 0.660964 0.033014 0.522886
H15   H     H_    0.367716 0.708739 0.979848 0.092771
O11   O     O_2   0.382541 0.677267 0.105467 -0.549007
C54   C     C_2   0.604105 0.338913 0.967053 0.528130
H16   H     H_    0.632462 0.291131 0.020211 0.093233
O12   O     O_2   0.617633 0.322624 0.894597 -0.549251
Cl1   Cl    Cl    0.700281 0.478739 0.122070 -0.565362
Cl2   Cl    Cl    0.299816 0.521132 0.878211 -0.490144
Cl3   Cl    Cl    0.253315 0.055373 0.294646 -0.541738
Cl4   Cl    Cl    0.745699 0.944767 0.707111 -0.542540
C55   C     C_2   0.758905 0.269995 0.607374 0.456421
H17   H     H_    0.742083 0.325319 0.647367 0.093485
O13   O     O_2   0.833843 0.258394 0.589032 -0.532381
C56   C     C_2   0.239938 0.730653 0.396846 0.355734
H18   H     H_    0.254933 0.675609 0.355855 0.115349
O14   O     O_2   0.166398 0.742315 0.417851 -0.566856
C57   C     C_2   0.183676 0.918437 0.376038 0.641714
H19   H     H_    0.139236 0.885451 0.325012 0.090376
O15   O     O_2   0.149779 0.985012 0.407093 -0.454927
C58   C     C_2   0.815792 0.082068 0.627218 0.641322
H20   H     H_    0.859477 0.114768 0.679139 0.085852
O16   O     O_2   0.850437 0.015892 0.596115 -0.453139
Cl5   Cl    Cl    0.990910 0.753864 0.613843 -0.459795
Cl6   Cl    Cl    0.009220 0.246529 0.389956 -0.454127

loop_
_geom_bond_atom_site_label_1
_geom_bond_atom_site_label_2
_ccdc_geom_bond_type
C39   H1    S    
C27   C29   A    
C24   C42   S    
C23   O5    A    
C20   H6    S    
C5    C49   A    
C57   H19   S    
C24   O6    A    
C20   C30   A    
C40   C46   S    
C43   Cl2   S    
C19   C21   A    
C54   O12   D    
C2    O4    A    
C8    H9    S    
C21   H4    S    
C33   C35   A    
C52   O10   D    
C6    C55   S    
O2    Zn2   S    
O1    Zn1   S    
C15   C17   A    
C25   N1    A    
C9    C13   A    
C38   C45   S    
C26   N2    A    
C2    C50   S    
C57   O15   D    
C40   C43   S    
O6    Zn2   S    
C1    O1    A    
N2    Zn1   S    
O5    Zn1   S    
C4    C12   A    
C44   Cl1   S    
C39   C45   S    
C13   C14   A    
C37   C53   S    
C16   H12   S    
C53   O11   D    
C44   C46   S    
C53   H15   S    
C22   H3    S    
C45   C47   S    
C41   C47   T    
C46   C48   S    
C27   C31   A    
C25   C52   S    
C18   Cl4   S    
C23   O7    A    
C28   C32   A    
C17   Cl3   S    
C54   H16   S    
C7    C49   A    
C4    C6    A    
C10   C14   A    
C55   H17   S    
C52   H14   S    
C2    O2    A    
O4    Zn1   S    
C40   H2    S    
C37   C43   S    
C51   H13   S    
C38   C44   S    
C55   O13   D    
C51   O9    D    
C3    C57   S    
C31   C32   A    
C58   O16   D    
C26   C51   S    
C15   H11   S    
C31   C34   A    
O3    Zn2   S    
C42   C48   T    
C6    C50   A    
C56   O14   D    
C43   C45   S    
C10   C12   A    
C16   C18   A    
C20   C22   A    
C4    C58   S    
C19   C29   A    
C8    C50   A    
C7    H10   S    
C24   O8    A    
C19   H5    S    
C7    C9    A    
C11   C17   A    
C33   H7    S    
C38   C54   S    
C26   C28   A    
O8    Zn1   S    
C3    C5    A    
O7    Zn2   S    
C39   C44   S    
N1    Zn2   S    
C25   C27   A    
C5    C56   S    
C29   C35   A    
C35   Cl5   S    
C23   C41   S    
C30   C36   A    
C36   Cl6   S    
C32   C33   A    
C28   C30   A    
C37   C39   S    
C38   C40   S    
C9    C11   A    
C58   H20   S    
C1    O3    A    
C34   C36   A    
C56   H18   S    
C21   N1    A    
C3    C11   A    
C22   N2    A    
C8    C10   A    
C13   C16   A    
C12   C18   A    
C34   H8    S    
C14   C15   A    
C37   C46   S    
C1    C49   S    
