data_mof_unit_25944.cif
_audit_creation_date              2012-12-10T17:06:38-0500
_audit_creation_method            fapswitch 2.2
_symmetry_space_group_name_H-M    P1
_symmetry_Int_Tables_number       1
_space_group_crystal_system       triclinic
_cell_length_a                    15.848872
_cell_length_b                    10.916761
_cell_length_c                    9.94217
_cell_angle_alpha                 109.844649
_cell_angle_beta                  99.497332
_cell_angle_gamma                 91.794742
_cell_volume                      1588.76319374

loop_
_atom_site_label
_atom_site_type_symbol
_atom_type_description
_atom_site_fract_x
_atom_site_fract_y
_atom_site_fract_z
_atom_type_partial_charge
C1    C     C_R   0.491945 0.253792 0.442342 0.800250
C2    C     C_R   0.501671 0.745995 0.556999 0.800247
C3    C     C_2   0.441729 0.062723 0.494873 -0.094449
C4    C     C_2   0.442483 0.924192 0.481011 -0.086201
C5    C     C_2   0.505414 0.520059 0.086751 -0.040470
C6    C     C_2   0.482537 0.518403 0.932388 -0.042519
C7    C     C_R   0.340036 0.499165 0.498950 0.806125
C8    C     C_R   0.659964 0.500147 0.500937 0.817720
C9    C     C_3   0.977624 0.407552 0.553928 0.250090
C10   C     C_3   0.025384 0.599645 0.463311 0.299206
C11   C     C_3   0.012065 0.386513 0.412687 0.244607
C12   C     C_3   0.990055 0.621212 0.604677 0.260966
C13   C     C_1   0.250147 0.497992 0.495881 -0.119680
C14   C     C_1   0.749984 0.501368 0.504957 -0.148501
C15   C     C_3   0.048500 0.520963 0.639764 0.272855
C16   C     C_3   0.955174 0.487030 0.376850 0.249838
C17   C     C_3   0.083314 0.499144 0.497642 -0.137391
C18   C     C_3   0.918489 0.507768 0.517223 -0.192498
C19   C     C_1   0.174468 0.497525 0.493960 0.168530
C20   C     C_1   0.826146 0.503931 0.511521 0.108528
C21   C     C_2   0.485011 0.112815 0.415405 -0.219451
C22   C     C_2   0.493887 0.885844 0.580899 -0.217228
Cu1   Cu    Cu3+1 0.514700 0.521810 0.644910 0.987252
Cu2   Cu    Cu3+1 0.485300 0.478190 0.355090 0.988805
N1    N     N_2   0.463210 0.445420 0.137360 -0.265113
N2    N     N_2   0.536790 0.554580 0.862640 -0.259216
O1    O     O_R   0.507840 0.332340 0.577400 -0.571637
O2    O     O_R   0.492160 0.667660 0.422600 -0.574118
O3    O     O_R   0.483020 0.295500 0.332650 -0.573741
O4    O     O_R   0.516980 0.704500 0.667350 -0.565578
O5    O     O_R   0.391490 0.518400 0.622350 -0.568300
O6    O     O_R   0.608510 0.481600 0.377650 -0.568207
O7    O     O_R   0.366660 0.481570 0.377600 -0.571627
O8    O     O_R   0.633340 0.518430 0.622400 -0.581896
O9    O     O_3   0.029650 0.268066 0.311914 -0.579319
C23   C     C_3   0.953463 0.183063 0.251689 0.117514
H1    H     H_    0.896668 0.233415 0.224582 0.191191
H2    H     H_    0.939215 0.136083 0.329331 0.169877
C24   C     C_3   0.965413 0.078060 0.111449 -0.831911
H3    H     H_    0.021552 0.024468 0.132561 0.264666
H4    H     H_    0.906821 0.008132 0.066299 0.206907
H5    H     H_    0.976233 0.123282 0.030360 0.254047
O10   O     O_3   0.984777 0.748749 0.702068 -0.582614
C25   C     C_3   0.920295 0.751971 0.785542 0.053837
H6    H     H_    0.948764 0.806341 0.901350 0.155102
H7    H     H_    0.894671 0.654550 0.781702 0.137469
C26   C     C_3   0.847366 0.825727 0.740244 -0.785341
H8    H     H_    0.820700 0.779334 0.622245 0.244597
H9    H     H_    0.795483 0.825213 0.802751 0.218792
H10   H     H_    0.871506 0.928603 0.762567 0.247935
O11   O     O_3   0.945131 0.310294 0.600815 -0.580925
C27   C     C_3   0.012633 0.241568 0.641927 0.098704
H11   H     H_    0.053434 0.303481 0.746631 0.192199
H12   H     H_    0.053323 0.208221 0.557405 0.181321
C28   C     C_3   0.974692 0.121569 0.663612 -0.827675
H13   H     H_    0.932014 0.058465 0.561515 0.247381
H14   H     H_    0.027183 0.065595 0.694229 0.231597
H15   H     H_    0.936546 0.150912 0.751607 0.248140
O12   O     O_3   0.055794 0.695114 0.412011 -0.568789
C29   C     C_3   0.991550 0.779755 0.401998 0.111217
H16   H     H_    0.987909 0.848196 0.511939 0.204039
H17   H     H_    0.927011 0.726151 0.349379 0.169275
C30   C     C_3   0.014155 0.859370 0.311859 -0.840694
H18   H     H_    0.020315 0.793972 0.201513 0.232756
H19   H     H_    0.961923 0.922134 0.300484 0.206795
H20   H     H_    0.075380 0.921870 0.365973 0.272884
O13   O     O_3   0.899808 0.469273 0.243567 -0.570023
C31   C     C_3   0.947655 0.458294 0.132997 0.082078
H21   H     H_    0.005589 0.404439 0.142335 0.181557
H22   H     H_    0.967872 0.557258 0.135504 0.166072
C32   C     C_3   0.890796 0.385145 0.986234 -0.784790
H23   H     H_    0.834271 0.439168 0.969666 0.279064
H24   H     H_    0.927409 0.375862 0.898084 0.221197
H25   H     H_    0.868398 0.285860 0.980684 0.248486
O14   O     O_3   0.108805 0.529814 0.765164 -0.555615
C33   C     C_3   0.076793 0.591739 0.892684 0.066496
H26   H     H_    0.009466 0.553759 0.884034 0.122964
H27   H     H_    0.081054 0.699005 0.916693 0.188634
C34   C     C_3   0.132787 0.566595 0.018831 -0.755509
H28   H     H_    0.200937 0.599964 0.027051 0.287191
H29   H     H_    0.112427 0.620894 0.122718 0.218741
H30   H     H_    0.127434 0.460480 0.001683 0.235417
C35   C     C_1   0.383094 0.833003 0.358057 0.314057
N3    N     N_1   0.335692 0.760470 0.259943 -0.283832
C36   C     C_1   0.384541 0.138220 0.583635 0.295138
N4    N     N_1   0.337873 0.197713 0.652851 -0.260148
C37   C     C_1   0.544750 0.981210 0.711200 0.288764
N5    N     N_1   0.585346 0.057447 0.815279 -0.260929
C38   C     C_1   0.528948 0.030890 0.305943 0.282196
N6    N     N_1   0.563979 0.965908 0.218056 -0.253042
C39   C     C_1   0.391285 0.498602 0.876015 0.362887
N7    N     N_1   0.317595 0.483128 0.835367 -0.234937
C40   C     C_1   0.566446 0.625403 0.187489 0.387700
N8    N     N_1   0.616115 0.709506 0.266574 -0.281354
C41   C     C_1   0.624337 0.565696 0.918990 0.461929
N9    N     N_1   0.697158 0.575289 0.965267 -0.337700
C42   C     C_1   0.423502 0.324094 0.043200 0.456912
N10   N     N_1   0.390605 0.222842 0.965988 -0.287775

loop_
_geom_bond_atom_site_label_1
_geom_bond_atom_site_label_2
_ccdc_geom_bond_type
C15   O14   S    
C28   H13   S    
C30   H19   S    
C1    C21   S    
C40   N8    T    
C3    C36   S    
C41   N9    T    
C9    O11   S    
C33   C34   S    
C37   N5    T    
C42   N10   T    
C26   H9    S    
C21   C38   S    
C36   N4    T    
C27   H11   S    
C29   C30   S    
C23   H1    S    
C33   H27   S    
C12   O10   S    
C5    C6    S    
C10   C17   S    
C6    C39   S    
C29   H17   S    
Cu1   N2    S    
Cu2   O3    S    
O9    C23   S    
C25   H7    S    
C31   H21   S    
C2    C22   S    
C26   H8    S    
Cu1   Cu2   S    
Cu1   O1    S    
C24   H5    S    
C27   C28   S    
C30   H20   S    
O12   C29   S    
C7    O7    A    
C27   H12   S    
C26   H10   S    
C7    O5    A    
C13   C19   T    
O13   C31   S    
C8    O6    A    
Cu1   O4    S    
C14   C20   T    
Cu2   N1    S    
C24   H4    S    
C24   H3    S    
C34   H29   S    
O11   C27   S    
C29   H16   S    
Cu1   O5    S    
O14   C33   S    
Cu2   O6    S    
C32   H25   S    
C4    C22   D    
C11   C16   S    
C35   N3    T    
C12   C15   S    
Cu1   O8    S    
C1    O3    A    
C16   O13   S    
C8    O8    A    
C22   C37   S    
C33   H26   S    
C9    C11   S    
C10   C12   S    
C5    N1    D    
N1    C42   S    
C28   H14   S    
O10   C25   S    
C34   H28   S    
C3    C21   D    
C3    C4    S    
C39   N7    T    
C25   H6    S    
C32   H24   S    
N2    C41   S    
C15   C17   S    
C11   C17   S    
C8    C14   S    
C23   C24   S    
Cu2   O2    S    
C34   H30   S    
C5    C40   S    
C25   C26   S    
Cu2   O7    S    
C2    O4    A    
C23   H2    S    
C10   O12   S    
C9    C15   S    
C32   H23   S    
C10   C16   S    
C6    N2    D    
C4    C35   S    
C31   C32   S    
C11   O9    S    
C17   C19   S    
C18   C20   S    
C30   H18   S    
C9    C18   S    
C7    C13   S    
C16   C18   S    
C28   H15   S    
C12   C18   S    
C1    O1    A    
C31   H22   S    
C2    O2    A    
C38   N6    T    
