data_mof_unit_48826.cif
_audit_creation_date              2012-10-26T21:15:28-0400
_audit_creation_method            fapswitch 2.2
_symmetry_space_group_name_H-M    P1
_symmetry_Int_Tables_number       1
_space_group_crystal_system       triclinic
_cell_length_a                    10.63428
_cell_length_b                    10.908965
_cell_length_c                    9.731125
_cell_angle_alpha                 89.637177
_cell_angle_beta                  88.736174
_cell_angle_gamma                 90.659207
_cell_volume                      1128.52415285

loop_
_atom_site_label
_atom_site_type_symbol
_atom_type_description
_atom_site_fract_x
_atom_site_fract_y
_atom_site_fract_z
_atom_type_partial_charge
C1    C     C_R   0.496474 0.265497 0.500280 0.572044
C2    C     C_2   0.457040 0.409893 0.079990 -0.025826
C3    C     C_R   0.259315 0.500772 0.501183 0.552713
C4    C     C_R   0.506639 0.734543 0.499583 0.541866
C5    C     C_R   0.740472 0.501150 0.498511 0.585578
C6    C     C_3   0.035660 0.511648 0.630482 -0.093959
C7    C     C_3   0.954457 0.408293 0.570747 0.384309
C8    C     C_3   0.877192 0.502825 0.495373 0.052728
C9    C     C_3   0.957121 0.607538 0.553210 -0.179760
C10   C     C_3   0.045871 0.598286 0.425474 -0.148241
C11   C     C_R   0.351961 0.326991 0.872994 0.097498
C12   C     C_3   0.963551 0.493503 0.367389 -0.158728
C13   C     C_R   0.223785 0.355188 0.873917 -0.090547
C14   C     C_R   0.134007 0.264511 0.846652 -0.107924
C15   C     C_R   0.171581 0.144643 0.819622 -0.100347
C16   C     C_R   0.298773 0.114646 0.823973 -0.140362
C17   C     C_R   0.388643 0.204968 0.853014 -0.097365
C18   C     C_R   0.621980 0.914716 0.600229 0.027093
C19   C     C_R   0.593141 0.908877 0.741861 -0.101440
C20   C     C_R   0.677477 0.956291 0.836690 -0.130412
C21   C     C_R   0.791558 0.008805 0.791185 -0.079736
C22   C     C_R   0.821655 0.013755 0.650747 -0.074577
C23   C     C_3   0.042293 0.397202 0.444028 -0.099793
C24   C     C_R   0.737373 0.966978 0.555505 -0.092448
C25   C     C_3   0.122187 0.502063 0.502553 -0.000773
C26   C     C_2   0.487465 0.933521 0.393822 -0.173806
C27   C     C_2   0.532066 0.865705 0.498049 -0.020580
C28   C     C_2   0.497770 0.067261 0.387770 -0.170018
C29   C     C_2   0.485261 0.133587 0.502167 -0.096892
C30   C     C_2   0.441668 0.417507 0.926686 0.076994
Cu1   Cu    Cu3+1 0.500030 0.500020 0.638630 0.972702
Cu2   Cu    Cu3+1 0.499970 0.499980 0.361370 0.929458
F1    F     F_    0.902090 0.310314 0.643222 -0.666736
H1    H     H_    0.464520 0.089996 0.600285 0.119813
H2    H     H_    0.436674 0.889969 0.311248 0.135394
H3    H     H_    0.509094 0.110870 0.287529 0.141740
H4    H     H_    0.193567 0.446274 0.901751 0.096362
H5    H     H_    0.035176 0.286496 0.850455 0.175897
H6    H     H_    0.101984 0.074416 0.798854 0.110436
H7    H     H_    0.327405 0.021009 0.807124 0.098930
H8    H     H_    0.486483 0.179829 0.861035 0.121405
H9    H     H_    0.504626 0.869654 0.778713 0.113930
H10   H     H_    0.654181 0.952637 0.945493 0.100935
H11   H     H_    0.856652 0.045571 0.864743 0.113785
H12   H     H_    0.564220 0.554992 0.891162 0.199068
H13   H     H_    0.910281 0.053926 0.615625 0.148463
H14   H     H_    0.761902 0.971391 0.446958 0.112044
H15   H     H_    0.423140 0.327618 0.132758 0.141169
H16   H     H_    0.521113 0.579913 0.103968 0.201878
H17   H     H_    0.064124 0.521586 0.738449 0.110473
H18   H     H_    0.919239 0.693729 0.596912 0.118752
H19   H     H_    0.086641 0.676860 0.365925 0.123885
H20   H     H_    0.931508 0.486543 0.259883 0.130008
H21   H     H_    0.079469 0.310429 0.401164 0.113755
N1    N     N_2   0.498620 0.498660 0.846910 -0.350289
N2    N     N_2   0.498590 0.498630 0.153040 -0.358310
O1    O     O_R   0.500020 0.321960 0.617040 -0.476270
O2    O     O_R   0.499980 0.321920 0.382900 -0.504834
O3    O     O_R   0.316870 0.499990 0.617050 -0.495703
O4    O     O_R   0.316830 0.499950 0.382910 -0.495344
O5    O     O_R   0.500020 0.678080 0.617100 -0.508550
O6    O     O_R   0.499980 0.678040 0.382960 -0.509736
O7    O     O_R   0.683170 0.500050 0.617090 -0.468382
O8    O     O_R   0.683130 0.500010 0.382950 -0.503416

loop_
_geom_bond_atom_site_label_1
_geom_bond_atom_site_label_2
_ccdc_geom_bond_type
C8    C9    S    
C5    C8    S    
C1    O2    A    
C6    C7    S    
C1    O1    A    
C14   H5    S    
H16   N2    S    
C11   C13   A    
C9    C10   S    
Cu1   O5    S    
C26   C28   S    
C19   C20   A    
C9    H18   S    
C19   H9    S    
Cu2   O2    S    
C8    C12   S    
C4    O6    A    
C10   H19   S    
C3    O4    A    
Cu1   O1    S    
C6    C9    S    
C1    C29   S    
C5    O8    A    
Cu2   O6    S    
C7    C8    S    
C2    N2    D    
C13   C14   A    
C6    H17   S    
C7    F1    S    
C12   C23   S    
Cu2   O8    S    
C26   C27   D    
C10   C12   S    
C16   H7    S    
C18   C24   A    
C29   H1    S    
C10   C25   S    
C28   C29   D    
C22   H13   S    
C17   H8    S    
C23   C25   S    
Cu1   N1    S    
C7    C23   S    
C6    C25   S    
C2    C30   S    
Cu2   O4    S    
C15   C16   A    
C21   H11   S    
Cu1   O7    S    
C5    O7    A    
C3    C25   S    
C20   H10   S    
C20   C21   A    
H12   N1    S    
C23   H21   S    
C18   C19   A    
C30   N1    D    
C22   C24   A    
Cu1   O3    S    
C26   H2    S    
C15   H6    S    
C14   C15   A    
C28   H3    S    
C4    C27   S    
C2    H15   S    
C21   C22   A    
C24   H14   S    
C13   H4    S    
C4    O5    A    
Cu2   N2    S    
Cu1   Cu2   S    
C11   C17   A    
C18   C27   S    
C12   H20   S    
C11   C30   S    
C16   C17   A    
C3    O3    A    
