data_mof_unit_9011.cif
_audit_creation_date              2013-03-05T16:00:38-0500
_audit_creation_method            fapswitch 2.2
_symmetry_space_group_name_H-M    P1
_symmetry_Int_Tables_number       1
_space_group_crystal_system       triclinic
_cell_length_a                    10.735234
_cell_length_b                    14.705247
_cell_length_c                    14.754297
_cell_angle_alpha                 64.86377
_cell_angle_beta                  103.912761
_cell_angle_gamma                 103.225551
_cell_volume                      2025.37409579

loop_
_atom_site_label
_atom_site_type_symbol
_atom_site_description
_atom_site_fract_x
_atom_site_fract_y
_atom_site_fract_z
_atom_type_partial_charge
O1    O     O_R   0.455060 0.022100 0.338110 -0.592995
O2    O     O_R   0.512640 0.160150 0.379180 -0.546281
C1    C     C_R   0.478174 0.119878 0.312197 0.858366
O3    O     O_R   0.288900 0.930980 0.479450 -0.575123
O4    O     O_R   0.346480 0.069030 0.520520 -0.599135
C2    C     C_R   0.260177 0.999293 0.501035 0.827477
Cu1   Cu    Cu3+1 0.465900 0.918260 0.475680 0.973448
Cu2   Cu    Cu3+1 0.534100 0.081740 0.524320 0.982123
O5    O     O_R   0.487360 0.839850 0.620820 -0.578303
O6    O     O_R   0.544940 0.977900 0.661890 -0.595859
O7    O     O_R   0.653520 0.930970 0.479480 -0.603535
O8    O     O_R   0.711100 0.069020 0.520550 -0.557902
C3    C     C_R   0.522290 0.880307 0.687809 0.790797
C4    C     C_R   0.740039 0.000419 0.499267 0.794574
C5    C     C_3   0.038044 0.899479 0.496195 -0.327296
H1    H     H_    0.071081 0.833760 0.565013 0.199202
H2    H     H_    0.048597 0.885915 0.430090 0.227108
C6    C     C_3   0.895080 0.901871 0.492543 -0.416583
H3    H     H_    0.838109 0.895913 0.420969 0.208566
H4    H     H_    0.858120 0.834548 0.556845 0.181866
H5    H     H_    0.142673 0.941218 0.666021 0.193173
H6    H     H_    0.929298 0.941597 0.664633 0.166378
C7    C     C_3   0.106640 0.006666 0.598442 -0.444526
C8    C     C_3   0.072528 0.093930 0.407564 0.173712
C9    C     C_3   0.122071 0.999707 0.499683 -0.026020
H7    H     H_    0.128766 0.162331 0.420488 0.164928
C10   C     C_3   0.878212 0.001473 0.498399 0.035861
C11   C     C_3   0.963003 0.007315 0.597791 -0.369613
C12   C     C_3   0.926494 0.092894 0.404306 0.024183
H8    H     H_    0.868052 0.083655 0.334641 0.168357
H9    H     H_    0.165285 0.076991 0.605558 0.190437
H10   H     H_    0.953751 0.077367 0.605588 0.207873
C13   C     C_R   0.455844 0.188292 0.204761 -0.042857
C14   C     C_R   0.532552 0.813699 0.795850 -0.067684
C15   C     C_R   0.349981 0.221445 0.031962 -0.138947
C16   C     C_R   0.385116 0.152737 0.130489 -0.125926
C17   C     C_R   0.496026 0.292406 0.178497 -0.143454
C18   C     C_R   0.455686 0.363737 0.081211 0.127057
C19   C     C_R   0.382419 0.326404 0.007315 0.088200
C20   C     C_R   0.484820 0.470461 0.055756 -0.020561
C21   C     C_R   0.447723 0.538099 0.954231 -0.057320
C22   C     C_R   0.361608 0.498222 0.885168 0.325220
C23   C     C_R   0.335784 0.393613 0.911156 -0.264300
C24   C     C_R   0.547025 0.511814 0.128966 -0.192401
C25   C     C_R   0.577803 0.616157 0.103673 0.317595
C26   C     C_R   0.553199 0.682957 0.001644 0.025575
C27   C     C_R   0.496819 0.643224 0.926111 0.064260
C28   C     C_R   0.584427 0.788846 0.972760 -0.120023
C29   C     C_R   0.571972 0.853632 0.870733 -0.208017
C30   C     C_R   0.499372 0.708969 0.824214 -0.133928
H11   H     H_    0.271952 0.364232 0.857529 0.181467
H12   H     H_    0.478464 0.678916 0.766070 0.176227
H13   H     H_    0.596473 0.934737 0.850674 0.162076
H14   H     H_    0.293209 0.192588 0.975823 0.138075
H15   H     H_    0.353415 0.072355 0.149209 0.156647
H16   H     H_    0.557551 0.315379 0.236520 0.169934
H17   H     H_    0.572375 0.465255 0.207917 0.198343
H18   H     H_    0.618165 0.822577 0.028305 0.190488
N1    N     N_R   0.585360 0.204570 0.560800 -0.189920
N2    N     N_R   0.414550 0.795430 0.439160 -0.186838
C31   C     C_R   0.745017 0.302890 0.638094 -0.282376
C32   C     C_R   0.701848 0.215094 0.619218 0.108928
C33   C     C_R   0.508039 0.278893 0.519534 0.046649
C34   C     C_R   0.551763 0.374558 0.526880 -0.002674
C35   C     C_R   0.670404 0.382489 0.592659 0.154853
C36   C     C_R   0.481689 0.460528 0.475552 0.028660
C37   C     C_R   0.524066 0.546371 0.504438 0.073195
C38   C     C_R   0.640484 0.547801 0.573488 -0.180671
C39   C     C_R   0.713364 0.468856 0.614268 -0.156227
C40   C     C_R   0.375757 0.468100 0.393659 0.231789
C41   C     C_R   0.305537 0.549243 0.353762 -0.147701
C42   C     C_R   0.341228 0.629107 0.385988 0.101651
C43   C     C_R   0.451779 0.630256 0.460385 0.007155
C44   C     C_R   0.269779 0.710635 0.340324 -0.255913
C45   C     C_R   0.308620 0.793554 0.367779 0.095837
C46   C     C_R   0.485121 0.716780 0.486184 0.065250
H19   H     H_    0.803562 0.474734 0.665165 0.161154
H20   H     H_    0.566033 0.723880 0.543250 0.109460
H21   H     H_    0.254301 0.856954 0.331873 0.147332
H22   H     H_    0.224912 0.552569 0.292362 0.187757
H23   H     H_    0.836880 0.308987 0.687088 0.152751
H24   H     H_    0.761147 0.154884 0.651640 0.125714
H25   H     H_    0.411489 0.260126 0.485024 0.174044
H26   H     H_    0.680820 0.610721 0.595748 0.127028
H27   H     H_    0.185267 0.710875 0.282652 0.164402
Br1   Br    Br    0.899962 0.225578 0.391756 -0.492108
N3    N     N_R   0.643385 0.652020 0.182039 0.116170
O9    O     O_R   0.754924 0.710135 0.172880 -0.357959
O10   O     O_R   0.604849 0.611586 0.269784 -0.353707
N4    N     N_R   0.284929 0.560627 0.795125 0.107857
O11   O     O_R   0.225748 0.626582 0.799049 -0.356569
O12   O     O_R   0.258860 0.541772 0.713406 -0.376923
Br2   Br    Br    0.333037 0.389045 0.311438 -0.498833
N5    N     N_R   0.096405 0.101135 0.310549 0.111858
O13   O     O_R   0.174098 0.177950 0.259158 -0.318376
O14   O     O_R   0.034391 0.035872 0.271325 -0.383703

loop_
_geom_bond_atom_site_label_1
_geom_bond_atom_site_label_2
_geom_bond_distance
_ccdc_geom_bond_type
C5    C6    1.530670 S    
N3    O9    1.301474 A    
C10   C12   1.563628 S    
C21   C22   1.429461 A    
C39   H19   1.084515 S    
C15   C16   1.392576 A    
Cu1   Cu2   2.690347 S    
C36   C40   1.431237 A    
C25   C26   1.404310 A    
Cu1   O7    1.969061 S    
C17   C18   1.406400 A    
C25   N3    1.437826 S    
C8    H7    1.114599 S    
Cu2   N1    2.020822 S    
C18   C19   1.416795 A    
O7    C4    1.296062 A    
C29   H13   1.083168 S    
C5    C9    1.556419 S    
C2    C9    1.479301 S    
C1    C13   1.468030 S    
C5    H1    1.113884 S    
C13   C16   1.398458 A    
C5    H2    1.110246 S    
C6    H3    1.113737 S    
O5    C3    1.300260 A    
C8    C12   1.553603 S    
C17   H16   1.074680 S    
C38   C39   1.384805 A    
N1    C32   1.355402 A    
C30   H12   1.079687 S    
C40   C41   1.392847 A    
C37   C43   1.435486 A    
C4    C10   1.482933 S    
C36   C37   1.443309 A    
C32   H24   1.081517 S    
H6    C11   1.113278 S    
C15   H14   1.084021 S    
N5    O13   1.300739 A    
O3    Cu1   1.967459 S    
C41   H22   1.084847 S    
C27   C30   1.403063 A    
C26   C28   1.408800 A    
C14   C30   1.395347 A    
C44   C45   1.389422 A    
C37   C38   1.412158 A    
C38   H26   1.076049 S    
C11   H10   1.112323 S    
C40   Br2   1.928739 S    
C8    C9    1.561956 S    
O3    C2    1.290894 A    
C19   C23   1.390653 A    
N2    C46   1.363604 A    
C13   C17   1.398013 A    
C33   H25   1.069778 S    
O1    C1    1.300198 A    
C34   C36   1.444124 A    
C15   C19   1.404937 A    
C12   H8    1.112704 S    
C8    N5    1.470026 S    
N4    O12   1.301986 A    
C24   H17   1.074706 S    
Cu2   O8    1.967460 S    
C21   C27   1.423795 A    
C7    C11   1.541886 S    
N5    O14   1.301298 A    
C12   Br1   1.960728 S    
C42   C44   1.402014 A    
C20   C21   1.421381 A    
O8    C4    1.293136 A    
H5    C7    1.113419 S    
C43   C46   1.424588 A    
C22   C23   1.394684 A    
Cu1   N2    2.021168 S    
C24   C25   1.394147 A    
Cu1   O5    1.937776 S    
C26   C27   1.420100 A    
C28   C29   1.390929 A    
C14   C29   1.399009 A    
O1    Cu1   1.949297 S    
O2    Cu2   1.937776 S    
C6    C10   1.556238 S    
C46   H20   1.075074 S    
C42   C43   1.412003 A    
O6    C3    1.297603 A    
O4    Cu2   1.969061 S    
C28   H18   1.081319 S    
N2    C45   1.355552 A    
N1    C33   1.364178 A    
C34   C35   1.418250 A    
N3    O10   1.300684 A    
O2    C1    1.298237 A    
C3    C14   1.466651 S    
C16   H15   1.083091 S    
C31   H23   1.083933 S    
C18   C20   1.425851 A    
C23   H11   1.084664 S    
N4    O11   1.301911 A    
O4    C2    1.296258 A    
C35   C39   1.390198 A    
C6    H4    1.113991 S    
C7    C9    1.552941 S    
C44   H27   1.083901 S    
C31   C32   1.388809 A    
C33   C34   1.419154 A    
C31   C35   1.401880 A    
C20   C24   1.416982 A    
C41   C42   1.390337 A    
Cu2   O6    1.949297 S    
C10   C11   1.554275 S    
C22   N4    1.438314 S    
C45   H21   1.081890 S    
C7    H9    1.113270 S    
