data_mof_unit_11462.cif
_audit_creation_date              2012-10-26T20:00:58-0400
_audit_creation_method            fapswitch 2.2
_symmetry_space_group_name_H-M    P1
_symmetry_Int_Tables_number       1
_space_group_crystal_system       triclinic
_cell_length_a                    11.686991
_cell_length_b                    13.002061
_cell_length_c                    13.443231
_cell_angle_alpha                 92.162313
_cell_angle_beta                  76.491799
_cell_angle_gamma                 99.714741
_cell_volume                      1957.76994446

loop_
_atom_site_label
_atom_site_type_symbol
_atom_type_description
_atom_site_fract_x
_atom_site_fract_y
_atom_site_fract_z
_atom_type_partial_charge
C1    C     C_R   0.520729 0.700796 0.501647 0.549303
C2    C     C_R   0.397053 0.493838 0.808430 0.002950
C3    C     C_R   0.467164 0.185788 0.497872 0.001010
C4    C     C_R   0.436527 0.499038 0.696094 0.540903
C5    C     C_R   0.532553 0.814168 0.502884 0.000857
C6    C     C_R   0.651328 0.984349 0.511970 -0.137952
C7    C     C_R   0.640542 0.876276 0.511121 -0.138988
C8    C     C_R   0.435207 0.860842 0.495767 -0.124272
C9    C     C_R   0.445307 0.968854 0.496559 0.046602
C10   C     C_R   0.554246 0.031082 0.504642 0.048323
C11   C     C_R   0.564422 0.139102 0.505223 -0.129223
C12   C     C_R   0.446871 0.500121 0.976106 0.035700
C13   C     C_R   0.359073 0.123663 0.489913 -0.136151
C14   C     C_R   0.348210 0.015582 0.489275 -0.138248
C15   C     C_R   0.942872 0.596255 0.597640 -0.173681
C16   C     C_R   0.479183 0.299192 0.498594 0.544455
C17   C     C_R   0.825056 0.586876 0.587183 0.045924
C18   C     C_R   0.858333 0.459052 0.458456 0.047565
C19   C     C_R   0.978621 0.466663 0.465140 -0.022007
C20   C     C_R   0.022645 0.537210 0.535044 0.006583
C21   C     C_R   0.144481 0.544157 0.540783 0.391788
C22   C     C_R   0.173226 0.412790 0.413682 -0.000692
C23   C     C_R   0.475385 0.532667 0.872399 0.029435
C24   C     C_R   0.055036 0.404709 0.404237 -0.196126
C25   C     C_R   0.563726 0.505778 0.304232 0.540789
C26   C     C_R   0.732533 0.616355 0.048077 -0.130511
C27   C     C_R   0.600671 0.522638 0.193673 -0.000775
C28   C     C_R   0.283770 0.438020 0.851624 -0.122103
C29   C     C_R   0.250623 0.415241 0.955392 -0.141471
C30   C     C_R   0.331425 0.443602 0.016864 -0.119165
C31   C     C_R   0.534645 0.526291 0.034776 0.032366
C32   C     C_R   0.644845 0.590558 0.991460 0.052762
C33   C     C_R   0.664995 0.631050 0.893306 -0.139580
C34   C     C_R   0.580512 0.604252 0.835500 -0.120748
C35   C     C_R   0.516442 0.490867 0.135427 -0.127893
C36   C     C_R   0.710329 0.582942 0.149024 -0.136717
Cu1   Cu    Cu3+1 0.386470 0.492430 0.492410 0.995340
Cu2   Cu    Cu3+1 0.613530 0.507570 0.507590 0.932973
H1    H     H_    0.776139 0.608535 0.193501 0.129197
H2    H     H_    0.766155 0.634426 0.633977 0.114490
H3    H     H_    0.746255 0.684174 0.861133 0.099027
H4    H     H_    0.823832 0.405259 0.404912 0.116206
H5    H     H_    0.816728 0.665309 0.015306 0.109189
H6    H     H_    0.436039 0.440134 0.171931 0.109017
H7    H     H_    0.221810 0.408859 0.804468 0.141072
H8    H     H_    0.299524 0.421645 0.096193 0.098805
H9    H     H_    0.162856 0.372121 0.987909 0.116779
H10   H     H_    0.597142 0.642423 0.762403 0.126188
H11   H     H_    0.648189 0.186569 0.511391 0.122140
H12   H     H_    0.282945 0.158460 0.484129 0.128350
H13   H     H_    0.159453 0.677080 0.610584 0.286855
H14   H     H_    0.735291 0.031237 0.518273 0.103428
H15   H     H_    0.264218 0.968688 0.483058 0.101572
H16   H     H_    0.716682 0.841474 0.516865 0.127403
H17   H     H_    0.351495 0.813386 0.489456 0.129908
H18   H     H_    0.231280 0.364319 0.366714 0.121672
H19   H     H_    0.968921 0.649139 0.655373 0.090939
H20   H     H_    0.023451 0.349839 0.350038 0.094064
N1    N     N_R   0.215880 0.481050 0.481000 -0.198737
N2    N     N_R   0.784100 0.518950 0.519000 -0.228709
O1    O     O_R   0.419710 0.645650 0.494620 -0.457394
O2    O     O_R   0.611450 0.658430 0.507430 -0.522007
O3    O     O_R   0.357340 0.490460 0.641450 -0.448725
O4    O     O_R   0.549080 0.503250 0.654260 -0.510304
O5    O     O_R   0.388550 0.341570 0.492570 -0.516526
O6    O     O_R   0.580290 0.354350 0.505380 -0.508365
O7    O     O_R   0.450920 0.496750 0.345740 -0.512930
O8    O     O_R   0.642660 0.509540 0.358550 -0.507433
O9    O     O_3   0.193688 0.612092 0.606479 -0.664496

loop_
_geom_bond_atom_site_label_1
_geom_bond_atom_site_label_2
_ccdc_geom_bond_type
C3    C13   A    
C6    C10   A    
C5    C8    A    
Cu1   O1    S    
C9    C14   A    
C26   C32   A    
C6    C7    A    
C11   H11   S    
C27   C36   A    
C25   C27   S    
C29   C30   A    
C2    C28   A    
C9    C10   A    
C4    O4    A    
C34   H10   S    
C2    C4    S    
C19   C20   A    
C25   O7    A    
C23   C34   A    
C33   H3    S    
C32   C33   A    
C2    C23   A    
C19   C24   A    
C22   N1    A    
C13   C14   A    
C1    O2    A    
C35   H6    S    
C15   H19   S    
C4    O3    A    
Cu1   N1    S    
C25   O8    A    
C27   C35   A    
C29   H9    S    
Cu2   N2    S    
Cu1   O7    S    
C8    H17   S    
C26   C36   A    
C28   C29   A    
Cu1   O3    S    
Cu1   Cu2   S    
Cu2   O8    S    
C26   H5    S    
C21   N1    A    
C22   C24   A    
C18   H4    S    
C12   C31   A    
C15   C20   A    
C31   C35   A    
C28   H7    S    
C3    C11   A    
C10   C11   A    
C17   N2    A    
C13   H12   S    
Cu2   O6    S    
C1    C5    S    
C14   H15   S    
C33   C34   A    
C20   C21   A    
C24   H20   S    
C18   C19   A    
C18   N2    A    
C12   C23   A    
C5    C7    A    
Cu2   O4    S    
C16   O6    A    
C22   H18   S    
C16   O5    A    
H13   O9    S    
C7    H16   S    
C6    H14   S    
C15   C17   A    
C12   C30   A    
C30   H8    S    
C36   H1    S    
C3    C16   S    
C31   C32   A    
Cu1   O5    S    
C21   O9    S    
C8    C9    A    
Cu2   O2    S    
C17   H2    S    
C1    O1    A    
