data_mof_unit_24720.cif
_audit_creation_date              2012-12-10T20:28:38-0500
_audit_creation_method            fapswitch 2.2
_symmetry_space_group_name_H-M    P1
_symmetry_Int_Tables_number       1
_space_group_crystal_system       triclinic
_cell_length_a                    10.688358
_cell_length_b                    10.65155
_cell_length_c                    9.909499
_cell_angle_alpha                 90.333118
_cell_angle_beta                  90.418236
_cell_angle_gamma                 89.42385
_cell_volume                      1128.06679254

loop_
_atom_site_label
_atom_site_type_symbol
_atom_type_description
_atom_site_fract_x
_atom_site_fract_y
_atom_site_fract_z
_atom_type_partial_charge
C1    C     C_R   0.501039 0.260617 0.499694 1.020683
C2    C     C_R   0.058119 0.514830 0.624791 -0.245449
C3    C     C_R   0.124306 0.508559 0.501130 -0.128019
C4    C     C_R   0.061080 0.478381 0.380636 0.711611
C5    C     C_R   0.934397 0.462017 0.382066 -0.152688
C6    C     C_R   0.871675 0.460396 0.504113 -0.099168
C7    C     C_R   0.427355 0.066070 0.587712 -0.169503
C8    C     C_R   0.505765 0.128874 0.500490 -0.295145
C9    C     C_R   0.594843 0.063672 0.423516 0.637234
C10   C     C_R   0.594746 0.933559 0.424005 0.582109
C11   C     C_R   0.506418 0.871399 0.502597 -0.330235
C12   C     C_R   0.259268 0.507181 0.500076 0.984657
C13   C     C_R   0.428488 0.937748 0.590007 -0.142267
C14   C     C_3   0.289642 0.931553 0.609371 0.861301
C15   C     C_3   0.288097 0.074648 0.603243 0.762929
C16   C     C_R   0.400410 0.454118 0.069255 0.206962
C17   C     C_R   0.593465 0.554975 0.072955 0.006707
C18   C     C_R   0.593861 0.554323 0.929254 0.019784
C19   C     C_R   0.398737 0.457906 0.927363 0.160769
C20   C     C_3   0.342489 0.331674 0.914598 -0.412394
C21   C     C_3   0.349238 0.323317 0.067430 0.193110
C22   C     C_R   0.500809 0.739505 0.500386 1.023230
C23   C     C_R   0.738758 0.483424 0.500936 0.953408
C24   C     C_R   0.104368 0.568582 0.746145 0.610402
C25   C     C_R   0.046886 0.542809 0.869015 0.181404
C26   C     C_R   0.946099 0.459958 0.871774 0.177389
C27   C     C_R   0.890455 0.421892 0.750782 0.604719
C28   C     C_R   0.938715 0.463494 0.626788 -0.180156
H1    H     H_    0.670156 0.597612 0.127642 0.189634
H2    H     H_    0.671065 0.596067 0.876347 0.151061
H3    H     H_    0.245051 0.337027 0.874997 0.218589
H4    H     H_    0.404816 0.264451 0.860500 0.286759
H5    H     H_    0.256065 0.316315 0.115460 0.223446
H6    H     H_    0.884799 0.452607 0.287643 0.240921
N1    N     N_R   0.499160 0.499140 0.142800 -0.114897
N2    N     N_R   0.499160 0.499180 0.857150 -0.098009
O1    O     O_R   0.500020 0.316790 0.614690 -0.602606
O2    O     O_R   0.500000 0.316760 0.385350 -0.552094
O3    O     O_R   0.316770 0.500020 0.614690 -0.592170
O4    O     O_R   0.316760 0.499980 0.385350 -0.570700
O5    O     O_R   0.500000 0.683240 0.614650 -0.587616
O6    O     O_R   0.499980 0.683210 0.385310 -0.576404
O7    O     O_R   0.683240 0.500020 0.614650 -0.606827
O8    O     O_R   0.683230 0.499980 0.385310 -0.625909
Zn1   Zn    Zn3+2 0.500010 0.500020 0.653130 1.078902
Zn2   Zn    Zn3+2 0.499990 0.499980 0.346870 1.108543
F1    F     F_    0.120245 0.465655 0.260908 -0.605530
F2    F     F_    0.260911 0.887813 0.736451 -0.498436
Cl1   Cl    Cl    0.208664 0.144735 0.461934 -0.504391
F3    F     F_    0.254094 0.129700 0.724276 -0.604861
Cl2   Cl    Cl    0.459282 0.205194 0.118701 -0.397291
F4    F     F_    0.197730 0.653672 0.745224 -0.539126
Cl3   Cl    Cl    0.102788 0.615603 0.016812 -0.347103
Cl4   Cl    Cl    0.885761 0.404882 0.023996 -0.442209
F5    F     F_    0.794839 0.338759 0.754109 -0.574557
F6    F     F_    0.678825 0.125527 0.346794 -0.548922
F7    F     F_    0.677912 0.868710 0.346679 -0.579888
Cl5   Cl    Cl    0.207172 0.850242 0.477581 -0.471691

loop_
_geom_bond_atom_site_label_1
_geom_bond_atom_site_label_2
_ccdc_geom_bond_type
C24   F4    S    
C14   F2    S    
C12   O4    A    
C16   C21   S    
C18   H2    S    
C11   C13   A    
C1    C8    S    
C17   H1    S    
C9    C10   A    
C11   C22   S    
C19   C20   S    
C20   H4    S    
C1    O1    A    
O3    Zn1   S    
C5    H6    S    
C12   O3    A    
C7    C15   S    
C17   C18   A    
C7    C8    A    
C9    F6    S    
C13   C14   S    
C24   C25   A    
O4    Zn2   S    
O7    Zn1   S    
C26   C27   A    
C22   O6    A    
C1    O2    A    
C16   C19   A    
N2    Zn1   S    
C6    C23   S    
C26   Cl4   S    
O8    Zn2   S    
C2    C3    A    
C19   N2    A    
C15   Cl1   S    
C16   N1    A    
C2    C24   A    
C5    C6    A    
C14   Cl5   S    
C27   F5    S    
O2    Zn2   S    
C21   Cl2   S    
C21   H5    S    
C10   C11   A    
O1    Zn1   S    
C3    C4    A    
C22   O5    A    
C7    C13   A    
C10   F7    S    
C23   O7    A    
C20   C21   S    
O6    Zn2   S    
C15   F3    S    
C27   C28   A    
O5    Zn1   S    
C14   C15   S    
C8    C9    A    
C2    C28   A    
C3    C12   S    
C17   N1    A    
C25   C26   A    
N1    Zn2   S    
C18   N2    A    
C4    F1    S    
C6    C28   A    
C23   O8    A    
C25   Cl3   S    
C4    C5    A    
C20   H3    S    
