data_mof_unit_37381.cif
_audit_creation_date              2012-12-10T17:54:24-0500
_audit_creation_method            fapswitch 2.2
_symmetry_space_group_name_H-M    P1
_symmetry_Int_Tables_number       1
_space_group_crystal_system       triclinic
_cell_length_a                    27.726033
_cell_length_b                    10.620871
_cell_length_c                    9.912767
_cell_angle_alpha                 89.89351
_cell_angle_beta                  89.99317
_cell_angle_gamma                 91.649274
_cell_volume                      2917.84394096

loop_
_atom_site_label
_atom_site_type_symbol
_atom_type_description
_atom_site_fract_x
_atom_site_fract_y
_atom_site_fract_z
_atom_type_partial_charge
C1    C     C_R   0.501270 0.260736 0.500135 0.855929
C2    C     C_R   0.277901 0.498200 0.377779 -0.103728
C3    C     C_R   0.252937 0.490084 0.500010 0.326582
C4    C     C_R   0.101751 0.491691 0.501363 -0.051916
C5    C     C_R   0.125892 0.377177 0.511933 -0.020628
C6    C     C_R   0.099341 0.264118 0.523445 -0.137113
C7    C     C_R   0.128813 0.605515 0.490185 -0.022618
C8    C     C_R   0.353392 0.495869 0.499999 -0.040608
C9    C     C_R   0.646552 0.499620 0.500417 -0.038770
C10   C     C_R   0.972903 0.377102 0.500469 0.046416
C11   C     C_R   0.975970 0.609893 0.504891 0.047128
C12   C     C_R   0.406095 0.499096 0.499996 0.857429
C13   C     C_R   0.949205 0.493876 0.502765 0.070366
C14   C     C_R   0.944547 0.264651 0.489694 -0.215056
C15   C     C_R   0.894580 0.266697 0.487348 -0.135866
C16   C     C_R   0.871003 0.380707 0.495188 -0.021579
C17   C     C_R   0.898126 0.494664 0.502832 -0.052083
C18   C     C_R   0.874047 0.609430 0.510442 -0.020594
C19   C     C_R   0.823599 0.608037 0.510376 0.503448
C20   C     C_R   0.820604 0.383737 0.494692 0.503172
C21   C     C_R   0.721980 0.483253 0.379966 -0.105785
C22   C     C_R   0.671897 0.484686 0.379101 -0.207428
C23   C     C_R   0.501404 0.739432 0.499847 0.877988
C24   C     C_R   0.671944 0.513490 0.622347 -0.236539
C25   C     C_R   0.722019 0.512487 0.622738 -0.107867
C26   C     C_R   0.746933 0.497211 0.501677 0.328636
C27   C     C_R   0.023926 0.376445 0.507733 0.046926
C28   C     C_R   0.050672 0.492400 0.501960 0.070588
C29   C     C_R   0.026957 0.609073 0.496724 0.046385
C30   C     C_R   0.049333 0.263488 0.521650 -0.215277
C31   C     C_R   0.105200 0.719264 0.479219 -0.134965
C32   C     C_R   0.950624 0.723138 0.516231 -0.215248
C33   C     C_R   0.900635 0.722640 0.518643 -0.137746
C34   C     C_R   0.593894 0.500219 0.500047 0.841089
C35   C     C_R   0.055251 0.721278 0.482137 -0.215111
C36   C     C_R   0.582320 0.137127 0.623628 -0.174773
C37   C     C_R   0.620281 0.074109 0.683302 -0.112057
C38   C     C_R   0.620339 0.943086 0.682978 -0.119992
C39   C     C_R   0.582448 0.874628 0.622924 -0.190414
C40   C     C_R   0.543373 0.937116 0.563256 0.094103
C41   C     C_R   0.543298 0.069087 0.563623 0.096597
C42   C     C_R   0.504554 0.128682 0.499984 -0.087720
C43   C     C_R   0.467995 0.061994 0.432837 -0.209530
C44   C     C_R   0.468075 0.933403 0.432493 -0.190850
C45   C     C_R   0.176360 0.378751 0.511568 0.503646
C46   C     C_R   0.504708 0.871970 0.499302 -0.101356
C47   C     C_R   0.436575 0.335371 0.140396 -0.160621
C48   C     C_R   0.405297 0.254355 0.070366 -0.193505
C49   C     C_R   0.405315 0.254277 0.930728 -0.185987
C50   C     C_R   0.436626 0.335182 0.860299 -0.158932
C51   C     C_R   0.468757 0.418813 0.927863 0.168612
C52   C     C_R   0.468748 0.418889 0.072462 0.171256
C53   C     C_R   0.529931 0.577533 0.071317 -0.111878
C54   C     C_R   0.529916 0.577512 0.928191 -0.112001
C55   C     C_R   0.179197 0.602641 0.489445 0.505654
C56   C     C_R   0.277851 0.484017 0.622184 -0.103623
C57   C     C_R   0.327969 0.486982 0.622406 -0.217441
C58   C     C_R   0.328017 0.500812 0.377537 -0.220675
H1    H     H_    0.346784 0.507217 0.281821 0.167540
H2    H     H_    0.258305 0.477881 0.716666 0.137162
H3    H     H_    0.125264 0.807760 0.468216 0.191874
H4    H     H_    0.968305 0.814207 0.526555 0.137898
H5    H     H_    0.653217 0.525504 0.717147 0.159829
H6    H     H_    0.882895 0.811884 0.526978 0.188836
H7    H     H_    0.741537 0.523337 0.716816 0.135991
H8    H     H_    0.039959 0.812597 0.469486 0.139064
H9    H     H_    0.438837 0.109770 0.383099 0.142652
H10   H     H_    0.584326 0.238877 0.623318 0.154965
H11   H     H_    0.258392 0.502874 0.283351 0.137211
H12   H     H_    0.650068 0.894323 0.728152 0.149592
H13   H     H_    0.584551 0.773135 0.621976 0.143070
H14   H     H_    0.438958 0.881386 0.382608 0.158656
H15   H     H_    0.434454 0.329641 0.247353 0.199704
H16   H     H_    0.380928 0.191162 0.124981 0.156935
H17   H     H_    0.380947 0.191047 0.876438 0.161373
H18   H     H_    0.434573 0.329313 0.753330 0.204384
H19   H     H_    0.554360 0.640882 0.874233 0.143665
H20   H     H_    0.117127 0.175106 0.533964 0.189296
H21   H     H_    0.653117 0.473571 0.283881 0.163066
H22   H     H_    0.741476 0.471590 0.286358 0.136179
H23   H     H_    0.874472 0.178029 0.479208 0.191568
H24   H     H_    0.959796 0.173041 0.479657 0.138681
H25   H     H_    0.031692 0.172613 0.534516 0.138194
H26   H     H_    0.346696 0.482394 0.718098 0.166408
N1    N     N_R   0.201643 0.490400 0.500236 -0.359299
N2    N     N_R   0.798230 0.496287 0.502287 -0.358898
N3    N     N_R   0.499540 0.498800 0.142780 -0.122676
N4    N     N_R   0.499520 0.498720 0.857170 -0.121720
O1    O     O_R   0.500000 0.316780 0.614690 -0.639761
O2    O     O_2   0.794065 0.275384 0.487341 -0.553143
O3    O     O_2   0.205668 0.710892 0.478682 -0.549500
O4    O     O_2   0.799968 0.717209 0.517553 -0.554067
O5    O     O_R   0.500000 0.316750 0.385360 -0.628041
O6    O     O_R   0.428760 0.500030 0.614650 -0.635276
O7    O     O_R   0.428750 0.500010 0.385320 -0.640961
O8    O     O_R   0.500000 0.683250 0.614640 -0.612954
O9    O     O_R   0.500000 0.683220 0.385310 -0.609990
O10   O     O_R   0.571250 0.499990 0.614680 -0.635294
O11   O     O_R   0.571240 0.499970 0.385350 -0.614845
O12   O     O_2   0.200081 0.269918 0.521878 -0.552996
Zn1   Zn    Zn3+2 0.500000 0.500020 0.653130 0.935766
Zn2   Zn    Zn3+2 0.500000 0.499980 0.346870 0.943984
H27   H     H_    0.649969 0.127154 0.728717 0.151976
H28   H     H_    0.554393 0.640897 0.124907 0.149828

loop_
_geom_bond_atom_site_label_1
_geom_bond_atom_site_label_2
_ccdc_geom_bond_type
C10   C27   A    
C21   C26   A    
C38   H12   S    
C3    N1    S    
C41   C42   A    
C31   H3    S    
C7    C55   A    
C19   N2    A    
N4    Zn1   S    
C15   H23   S    
C53   C54   A    
C23   O8    A    
C40   C46   A    
C28   C29   A    
C36   C37   A    
C22   H21   S    
C5    C6    A    
C9    C22   A    
C6    H20   S    
C53   H28   S    
C15   C16   A    
C56   C57   A    
C18   C19   A    
C30   H25   S    
C55   O3    S    
C19   O4    S    
C8    C58   A    
O6    Zn1   S    
C16   C17   A    
C20   N2    A    
C49   H17   S    
C12   O7    A    
C8    C12   S    
C2    H11   S    
O9    Zn2   S    
O7    Zn2   S    
C16   C20   A    
C54   H19   S    
O1    Zn1   S    
C23   C46   S    
C21   C22   A    
C27   C30   A    
C12   O6    A    
C36   C41   A    
C4    C7    A    
C4    C28   A    
C44   C46   A    
C17   C18   A    
C7    C31   A    
C51   C52   A    
C48   H16   S    
C25   H7    S    
C24   C25   A    
C47   H15   S    
C10   C14   A    
C39   C40   A    
C37   H27   S    
C35   H8    S    
C50   C51   A    
C58   H1    S    
C20   O2    S    
C45   O12   S    
C56   H2    S    
C55   N1    A    
C45   N1    A    
C43   C44   A    
C37   C38   A    
C50   H18   S    
C8    C57   A    
N3    Zn2   S    
C3    C56   A    
C47   C48   A    
C26   N2    S    
C2    C58   A    
C34   O11   A    
C57   H26   S    
C53   N3    A    
C43   H9    S    
C48   C49   A    
C23   O9    A    
C11   C32   A    
C24   H5    S    
C9    C34   S    
C31   C35   A    
C42   C43   A    
C14   H24   S    
C51   N4    A    
C40   C41   A    
C1    O1    A    
C6    C30   A    
C52   N3    A    
C4    C5    A    
C10   C13   A    
O5    Zn2   S    
C36   H10   S    
C9    C24   A    
C47   C52   A    
O10   Zn1   S    
C29   C35   A    
C13   C17   A    
C32   C33   A    
C2    C3    A    
C25   C26   A    
C32   H4    S    
C54   N4    A    
C11   C13   A    
C38   C39   A    
C5    C45   A    
C33   H6    S    
C21   H22   S    
C34   O10   A    
C44   H14   S    
C18   C33   A    
C1    C42   S    
O11   Zn2   S    
C11   C29   A    
C1    O5    A    
C49   C50   A    
C27   C28   A    
C39   H13   S    
C14   C15   A    
O8    Zn1   S    
