data_mof_unit_32292.cif
_audit_creation_date              2012-10-26T19:58:22-0400
_audit_creation_method            fapswitch 2.2
_symmetry_space_group_name_H-M    P1
_symmetry_Int_Tables_number       1
_space_group_crystal_system       triclinic
_cell_length_a                    7.4162
_cell_length_b                    8.710817
_cell_length_c                    13.380935
_cell_angle_alpha                 94.092985
_cell_angle_beta                  77.16487
_cell_angle_gamma                 103.148871
_cell_volume                      820.530174494

loop_
_atom_site_label
_atom_site_type_symbol
_atom_type_description
_atom_site_fract_x
_atom_site_fract_y
_atom_site_fract_z
_atom_type_partial_charge
C1    C     C_R   0.545708 0.800107 0.501188 0.552189
C2    C     C_R   0.334060 0.491609 0.807811 -0.006633
C3    C     C_2   0.569197 0.967561 0.500595 -0.139800
C4    C     C_R   0.398522 0.496410 0.694853 0.541141
C5    C     C_2   0.436543 0.033099 0.478465 0.217337
C6    C     C_R   0.457244 0.200377 0.492337 0.539175
C7    C     C_R   0.602139 0.511626 0.305756 0.524957
C8    C     C_R   0.877519 0.684990 0.053401 -0.133830
C9    C     C_R   0.663677 0.539032 0.195536 -0.014925
C10   C     C_R   0.149022 0.408161 0.851194 0.251680
C11   C     C_R   0.095909 0.385129 0.956636 -0.122984
C12   C     C_R   0.416187 0.508520 0.976830 0.016634
C13   C     C_R   0.227761 0.430238 0.018212 -0.180902
C14   C     C_3   0.269585 0.968369 0.349123 0.004131
C15   C     C_3   0.323766 0.830989 0.281137 -0.356877
C16   C     C_3   0.994601 0.190324 0.775851 0.000917
C17   C     C_3   0.868324 0.134745 0.699230 -0.333335
C18   C     C_R   0.463035 0.553458 0.872865 -0.013732
C19   C     C_R   0.558549 0.546848 0.036043 0.038759
C20   C     C_R   0.737222 0.644540 0.994886 0.058422
C21   C     C_R   0.771978 0.703979 0.896905 -0.116351
C22   C     C_R   0.636516 0.660809 0.837262 -0.106313
C23   C     C_R   0.528972 0.489937 0.135034 -0.140718
C24   C     C_R   0.840279 0.633618 0.153790 -0.150803
Cu1   Cu    Cu3+1 0.321300 0.483160 0.488710 0.959805
Cu2   Cu    Cu3+1 0.678700 0.516840 0.511290 0.936936
H1    H     H_    0.945735 0.673246 0.199901 0.120939
H2    H     H_    0.697732 0.038673 0.520166 0.078342
H3    H     H_    0.362960 0.080892 0.316798 0.104737
H4    H     H_    0.122812 0.973168 0.345446 0.146556
H5    H     H_    0.226655 0.718497 0.309456 0.190855
H6    H     H_    0.313202 0.847325 0.201240 0.080243
H7    H     H_    0.471708 0.825125 0.281254 0.153312
H8    H     H_    0.926348 0.127718 0.848900 0.110143
H9    H     H_    0.133773 0.158035 0.744160 0.127847
H10   H     H_    0.934052 0.193942 0.625019 0.196221
H11   H     H_    0.849827 0.005213 0.686455 0.091122
H12   H     H_    0.010971 0.617665 0.579325 0.260673
H13   H     H_    0.727113 0.163125 0.728797 0.154182
H14   H     H_    0.988979 0.382238 0.420743 0.229645
H15   H     H_    0.904745 0.784145 0.866012 0.094931
H16   H     H_    0.014077 0.759924 0.022435 0.107699
H17   H     H_    0.399896 0.408807 0.168207 0.110413
H18   H     H_    0.175677 0.406810 0.098696 0.107681
H19   H     H_    0.951805 0.327731 0.990796 0.131014
H20   H     H_    0.668319 0.716454 0.763914 0.132509
N1    N     N_2   0.947230 0.542220 0.528320 -0.234347
N2    N     N_2   0.052770 0.457780 0.471680 -0.269326
O1    O     O_R   0.383920 0.714220 0.492660 -0.446840
O2    O     O_3   0.016486 0.355105 0.791218 -0.533593
O3    O     O_R   0.685730 0.742660 0.511730 -0.509253
O4    O     O_R   0.275440 0.478800 0.636790 -0.455009
O5    O     O_R   0.577250 0.507240 0.655860 -0.506078
O6    O     O_R   0.314270 0.257340 0.488270 -0.490080
O7    O     O_R   0.616080 0.285780 0.507340 -0.539491
O8    O     O_R   0.422750 0.492760 0.344140 -0.523123
O9    O     O_R   0.724560 0.521200 0.363210 -0.508914
O10   O     O_3   0.271683 0.943703 0.452469 -0.537889

loop_
_geom_bond_atom_site_label_1
_geom_bond_atom_site_label_2
_ccdc_geom_bond_type
C2    C4    S    
C24   H1    S    
C9    C24   A    
C15   H5    S    
C17   H10   S    
C4    O5    A    
C2    C18   A    
C11   C13   A    
C19   C23   A    
N1    N2    D    
Cu1   O8    S    
C6    O7    A    
C16   H8    S    
Cu2   O7    S    
Cu1   O4    S    
C15   H6    S    
C17   H11   S    
C21   C22   A    
C12   C13   A    
C1    O3    A    
Cu1   N2    S    
H12   N1    S    
C8    C20   A    
C5    O10   S    
C14   H4    S    
C21   H15   S    
Cu2   N1    S    
C12   C19   A    
C3    H2    S    
C22   H20   S    
C8    H16   S    
C6    O6    A    
C15   H7    S    
C7    O8    A    
C4    O4    A    
C16   H9    S    
Cu1   O6    S    
C5    C6    S    
C14   O10   S    
Cu2   O9    S    
Cu1   O1    S    
C11   H19   S    
Cu2   O3    S    
C10   C11   A    
C14   H3    S    
C10   O2    S    
Cu2   O5    S    
C3    C5    D    
C23   H17   S    
C20   C21   A    
C7    C9    S    
C17   H13   S    
C12   C18   A    
H14   N2    S    
C14   C15   S    
C9    C23   A    
C8    C24   A    
Cu1   Cu2   S    
C18   C22   A    
C1    O1    A    
C7    O9    A    
C13   H18   S    
C19   C20   A    
C16   O2    S    
C16   C17   S    
C1    C3    S    
C2    C10   A    
