data_mof_unit_7131.cif
_audit_creation_date              2012-12-11T14:56:45-0500
_audit_creation_method            fapswitch 2.2
_symmetry_space_group_name_H-M    P1
_symmetry_Int_Tables_number       1
_space_group_crystal_system       triclinic
_cell_length_a                    10.533693
_cell_length_b                    10.7051
_cell_length_c                    17.125799
_cell_angle_alpha                 80.11531
_cell_angle_beta                  90.209988
_cell_angle_gamma                 119.766501
_cell_volume                      1643.9564211

loop_
_atom_site_label
_atom_site_type_symbol
_atom_type_description
_atom_site_fract_x
_atom_site_fract_y
_atom_site_fract_z
_atom_type_partial_charge
C1    C     C_R   0.222886 0.854208 0.128801 0.540721
C2    C     C_1   0.651129 0.343974 0.707436 -0.041235
C3    C     C_R   0.613294 0.715035 0.804793 -0.118895
C4    C     C_R   0.611256 0.209725 0.102402 0.564776
C5    C     C_R   0.581870 0.700342 0.727798 -0.022995
C6    C     C_R   0.661757 0.824782 0.665121 0.058343
C7    C     C_R   0.750417 0.965703 0.683296 -0.042098
C8    C     C_R   0.757690 0.978852 0.762735 -0.135037
C9    C     C_R   0.689181 0.853728 0.823074 -0.006011
C10   C     C_R   0.130676 0.931219 0.775806 0.252483
C11   C     C_R   0.070862 0.902286 0.705318 -0.106173
C12   C     C_R   0.721079 0.250708 0.310077 -0.094946
C13   C     C_R   0.043112 0.775320 0.679750 -0.036611
C14   C     C_R   0.046220 0.661522 0.732183 -0.134375
C15   C     C_R   0.094427 0.681778 0.807739 -0.058806
C16   C     C_R   0.644081 0.855477 0.124202 0.543028
C17   C     C_R   0.144491 0.820954 0.828299 0.041370
C18   C     C_R   0.711319 0.772061 0.353593 0.570091
C19   C     C_R   0.680442 0.382200 0.400357 0.542104
C20   C     C_R   0.103767 0.810623 0.359144 0.559149
C21   C     C_R   0.676575 0.799924 0.585726 0.549550
C22   C     C_R   0.678185 0.381469 0.624383 0.542483
C23   C     C_R   0.725215 0.231838 0.232510 -0.020433
C24   C     C_R   0.024699 0.772982 0.595820 0.571897
C25   C     C_R   0.219877 0.861951 0.899785 0.567555
C26   C     C_R   0.637603 0.285038 0.860858 0.561537
C27   C     C_R   0.648119 0.866960 0.899856 0.547297
C28   C     C_R   0.510964 0.262466 0.215716 -0.139539
C29   C     C_R   0.521614 0.300164 0.290267 -0.138536
C30   C     C_R   0.631753 0.300804 0.335957 0.012647
C31   C     C_3   0.098475 0.557450 0.862196 -0.371167
C32   C     C_3   0.854675 0.222070 0.203374 -0.365010
C33   C     C_3   0.455481 0.553388 0.717251 -0.359313
C34   C     C_R   0.617124 0.236081 0.184043 0.033150
C35   C     C_3   0.829234 0.103295 0.619930 -0.377212
C36   C     C_3   0.105662 0.123140 0.798899 -0.104182
C37   C     C_1   0.685402 0.830625 0.201763 -0.055177
C38   C     C_1   0.703459 0.806293 0.270505 -0.044313
C39   C     C_1   0.181056 0.825778 0.211388 -0.037653
C40   C     C_1   0.151683 0.820433 0.279807 -0.036536
C41   C     C_1   0.643790 0.322761 0.777993 -0.030162
Cr1   Cr    Cr6+3 0.402240 0.783890 0.019450 1.012321
Cr2   Cr    Cr6+3 0.382360 0.097900 0.991800 1.031249
Cr3   Cr    Cr6+3 0.715380 0.118170 0.988700 0.986952
Cr4   Cr    Cr6+3 0.936650 0.882420 0.465510 1.003173
Cr5   Cr    Cr6+3 0.605770 0.565620 0.493360 1.013920
Cr6   Cr    Cr6+3 0.921340 0.550490 0.496380 1.005027
H1    H     H_    0.425359 0.263685 0.180972 0.145287
H2    H     H_    0.213990 0.584781 0.868056 0.157006
H3    H     H_    0.817173 0.121293 0.180518 0.168310
H4    H     H_    0.926276 0.319545 0.156795 0.160046
H5    H     H_    0.924811 0.219121 0.251456 0.115180
H6    H     H_    0.376304 0.569676 0.680095 0.155096
H7    H     H_    0.496004 0.491688 0.690590 0.185058
H8    H     H_    0.392380 0.482907 0.774830 0.104160
H9    H     H_    0.872834 0.203459 0.645905 0.137755
H10   H     H_    0.924742 0.108272 0.589430 0.144166
H11   H     H_    0.752641 0.106399 0.575933 0.154977
H12   H     H_    0.065183 0.989628 0.665870 0.149841
H13   H     H_    0.013684 0.040893 0.844267 0.122624
H14   H     H_    0.064398 0.150291 0.742557 0.100309
H15   H     H_    0.164539 0.225197 0.823055 0.129334
H16   H     H_    0.017610 0.560113 0.712965 0.142468
H17   H     H_    0.449645 0.336089 0.310023 0.138406
H18   H     H_    0.802041 0.244470 0.347286 0.144308
H19   H     H_    0.558943 0.619060 0.852352 0.135450
H20   H     H_    0.810820 0.087070 0.777495 0.128269
H21   H     H_    0.041682 0.535998 0.921588 0.153607
H22   H     H_    0.042355 0.454337 0.838614 0.124577
O1    O     O_R   0.521780 0.757110 0.108900 -0.501037
O2    O     O_R   0.805020 0.410040 0.421340 -0.526452
O3    O     O_R   0.049240 0.685450 0.403290 -0.487429
O4    O     O_R   0.275160 0.783810 0.101120 -0.496478
O5    O     O_R   0.077520 0.903010 0.551800 -0.516392
O6    O     O_R   0.802980 0.872780 0.546830 -0.525037
O7    O     O_R   0.578090 0.681300 0.569920 -0.521321
O8    O     O_R   0.608530 0.436370 0.586530 -0.505828
O9    O     O_R   0.798770 0.401880 0.597100 -0.540925
O10   O     O_R   0.043450 0.677890 0.566230 -0.494136
O11   O     O_3   0.821250 0.666180 0.485090 -0.292614
O12   O     O_R   0.513330 0.228330 0.898660 -0.474301
O13   O     O_R   0.237900 0.972600 0.090980 -0.527495
O14   O     O_R   0.511190 0.220540 0.061620 -0.509537
O15   O     O_R   0.736920 0.257720 0.063840 -0.524581
O16   O     O_R   0.710450 0.984050 0.081720 -0.529040
O17   O     O_R   0.524090 0.765520 0.933110 -0.519682
O18   O     O_R   0.277300 0.791600 0.938160 -0.512902
O19   O     O_R   0.240210 0.981010 0.915190 -0.463854
O20   O     O_3   0.205844 0.076987 0.784113 -0.538871
O21   O     O_R   0.739230 0.266130 0.888050 -0.528084
O22   O     O_R   0.712580 0.991850 0.918770 -0.511494
O23   O     O_3   0.499990 0.999980 0.999980 -0.265115
O24   O     O_R   0.083770 0.911170 0.376030 -0.511777
O25   O     O_R   0.808770 0.880340 0.383890 -0.497785
O26   O     O_R   0.584340 0.689460 0.394160 -0.497045
O27   O     O_R   0.614320 0.443940 0.423590 -0.511432

loop_
_geom_bond_atom_site_label_1
_geom_bond_atom_site_label_2
_ccdc_geom_bond_type
C36   O20   S    
C33   H8    S    
C20   O24   A    
Cr2   O14   S    
C19   O2    A    
Cr6   O10   S    
Cr4   O24   S    
Cr5   O7    S    
C7    C8    A    
C12   C23   A    
C29   C30   A    
C35   H11   S    
Cr2   O19   S    
C28   C29   A    
C5    C6    A    
C20   C40   S    
C11   H12   S    
C10   C17   A    
C25   O18   A    
C32   H5    S    
C21   O7    A    
Cr5   O26   S    
C10   O20   S    
C8    C9    A    
C5    C33   S    
C2    C22   S    
C27   O22   A    
Cr1   O17   S    
Cr3   O23   S    
C16   C37   S    
C29   H17   S    
C28   C34   A    
C13   C14   A    
C18   O26   A    
Cr6   O11   S    
C31   H2    S    
C36   H15   S    
Cr4   O25   S    
C33   H6    S    
C31   H21   S    
C4    C34   S    
Cr1   O1    S    
C16   O1    A    
C22   O9    A    
C39   C40   T    
Cr3   O15   S    
C1    O13   A    
C6    C21   S    
C25   O19   A    
C13   C24   S    
Cr4   O5    S    
C27   O17   A    
C32   H4    S    
C37   C38   T    
C3    C9    A    
C24   O10   A    
C4    O15   A    
C23   C34   A    
Cr6   O2    S    
C32   H3    S    
Cr3   O22   S    
C26   O12   A    
C16   O16   A    
C18   O25   A    
C3    H19   S    
C36   H14   S    
Cr3   O21   S    
C9    C27   S    
C33   H7    S    
C15   C17   A    
C28   H1    S    
Cr1   O4    S    
C12   C30   A    
C35   H9    S    
C7    C35   S    
C22   O8    A    
C3    C5    A    
Cr5   O8    S    
C15   C31   S    
C6    C7    A    
C26   O21   A    
C12   H18   S    
C21   O6    A    
Cr2   O23   S    
C35   H10   S    
Cr4   O6    S    
C17   C25   S    
C23   C32   S    
C18   C38   S    
C1    O4    A    
Cr5   O11   S    
C11   C13   A    
C24   O5    A    
C4    O14   A    
Cr2   O12   S    
C14   H16   S    
Cr4   O11   S    
Cr1   O23   S    
Cr6   O3    S    
C10   C11   A    
C1    C39   S    
C31   H22   S    
Cr5   O27   S    
C8    H20   S    
Cr2   O13   S    
C36   H13   S    
C14   C15   A    
C20   O3    A    
Cr1   O18   S    
C2    C41   T    
Cr6   O9    S    
C19   C30   S    
C19   O27   A    
Cr3   O16   S    
C26   C41   S    
