data_mof_unit_17777.cif
_audit_creation_date              2012-12-11T14:56:42-0500
_audit_creation_method            fapswitch 2.2
_symmetry_space_group_name_H-M    P1
_symmetry_Int_Tables_number       1
_space_group_crystal_system       triclinic
_cell_length_a                    10.604079
_cell_length_b                    10.682501
_cell_length_c                    17.099491
_cell_angle_alpha                 80.241639
_cell_angle_beta                  90.08077
_cell_angle_gamma                 119.377531
_cell_volume                      1655.93844924

loop_
_atom_site_label
_atom_site_type_symbol
_atom_type_description
_atom_site_fract_x
_atom_site_fract_y
_atom_site_fract_z
_atom_type_partial_charge
C1    C     C_R   0.275620 0.886398 0.133156 0.553872
C2    C     C_1   0.651965 0.345670 0.707545 -0.046889
C3    C     C_R   0.629267 0.714529 0.804834 -0.133692
C4    C     C_R   0.635138 0.275629 0.087663 0.583936
C5    C     C_R   0.618429 0.698290 0.726624 -0.133203
C6    C     C_R   0.670552 0.821967 0.665299 0.033390
C7    C     C_R   0.741116 0.962698 0.682257 -0.150053
C8    C     C_R   0.750114 0.979104 0.761054 -0.144212
C9    C     C_R   0.688489 0.854353 0.822371 0.025932
C10   C     C_R   0.071471 0.886538 0.794216 -0.124606
C11   C     C_R   0.033346 0.871237 0.717573 -0.133228
C12   C     C_R   0.710239 0.261256 0.296689 0.245216
C13   C     C_R   0.054489 0.775099 0.680576 0.021690
C14   C     C_R   0.101118 0.683608 0.723859 -0.123100
C15   C     C_R   0.142316 0.701010 0.800312 -0.129190
C16   C     C_R   0.640635 0.858169 0.125284 0.565404
C17   C     C_R   0.134872 0.808294 0.834062 0.024590
C18   C     C_R   0.686481 0.810145 0.357293 0.579693
C19   C     C_R   0.685943 0.391180 0.396745 0.579146
C20   C     C_R   0.107101 0.811698 0.359797 0.561710
C21   C     C_R   0.678044 0.800146 0.585402 0.547954
C22   C     C_R   0.679189 0.382788 0.624447 0.547451
C23   C     C_R   0.688810 0.231048 0.221560 -0.166368
C24   C     C_R   0.029687 0.774547 0.596744 0.561241
C25   C     C_R   0.215552 0.858432 0.902112 0.561687
C26   C     C_R   0.637366 0.284828 0.861061 0.554202
C27   C     C_R   0.646784 0.867041 0.899393 0.559413
C28   C     C_R   0.582056 0.387549 0.188686 0.247797
C29   C     C_R   0.588375 0.405954 0.267900 -0.180444
C30   C     C_R   0.652490 0.343220 0.321832 -0.014467
C31   C     C_3   0.392072 0.429616 0.151102 0.029655
C32   C     C_3   0.274461 0.273715 0.145911 -0.276301
C33   C     C_3   0.251823 0.163087 0.221129 -0.385671
C34   C     C_R   0.640257 0.305422 0.166081 -0.002910
C35   C     C_3   0.937160 0.304655 0.330696 0.048077
C36   C     C_3   0.006538 0.298069 0.253936 -0.294730
C37   C     C_3   0.042351 0.429778 0.187224 -0.432142
C38   C     C_1   0.668966 0.848480 0.205400 -0.052093
C39   C     C_1   0.680291 0.839190 0.274868 -0.045516
C40   C     C_1   0.222863 0.848781 0.215621 -0.070577
C41   C     C_1   0.175293 0.830462 0.283111 -0.069902
C42   C     C_1   0.644112 0.323855 0.778185 -0.045140
Cr1   Cr    Cr6+3 0.402240 0.783890 0.019450 0.997672
Cr2   Cr    Cr6+3 0.382360 0.097900 0.991800 1.007183
Cr3   Cr    Cr6+3 0.715380 0.118170 0.988700 1.007416
Cr4   Cr    Cr6+3 0.936650 0.882420 0.465510 1.019268
Cr5   Cr    Cr6+3 0.605770 0.565620 0.493360 1.018078
Cr6   Cr    Cr6+3 0.921340 0.550490 0.496380 1.012473
H1    H     H_    0.993785 0.939587 0.685729 0.138336
H2    H     H_    0.061185 0.967595 0.819777 0.138471
H3    H     H_    0.370549 0.501870 0.105382 0.173232
H4    H     H_    0.380100 0.458982 0.208830 0.118182
H5    H     H_    0.170178 0.271454 0.136895 0.098710
H6    H     H_    0.299688 0.241027 0.092685 0.215469
H7    H     H_    0.256529 0.207151 0.275957 0.139978
H8    H     H_    0.336979 0.131900 0.220593 0.162379
H9    H     H_    0.143282 0.064840 0.223174 0.169062
H10   H     H_    0.987191 0.272949 0.381822 0.137647
H11   H     H_    0.968946 0.420483 0.330456 0.164763
H12   H     H_    0.114239 0.605222 0.697183 0.141573
H13   H     H_    0.110572 0.303221 0.267648 0.116934
H14   H     H_    0.938373 0.192880 0.234216 0.182482
H15   H     H_    0.143175 0.526753 0.198332 0.157607
H16   H     H_    0.954626 0.457874 0.184153 0.171242
H17   H     H_    0.059454 0.407079 0.128448 0.143430
H18   H     H_    0.189199 0.638109 0.830409 0.134587
H19   H     H_    0.554773 0.478453 0.285705 0.144179
H20   H     H_    0.718990 0.155387 0.204780 0.151864
H21   H     H_    0.582329 0.617592 0.851653 0.135844
H22   H     H_    0.571048 0.588804 0.714094 0.137953
H23   H     H_    0.787547 0.058628 0.634849 0.135398
H24   H     H_    0.795563 0.088276 0.773765 0.145319
O1    O     O_R   0.521780 0.757110 0.108900 -0.523103
O2    O     O_R   0.805020 0.410040 0.421340 -0.503102
O3    O     O_R   0.049240 0.685450 0.403290 -0.502370
O4    O     O_R   0.275160 0.783810 0.101120 -0.507471
O5    O     O_R   0.077520 0.903010 0.551800 -0.507609
O6    O     O_R   0.802980 0.872780 0.546830 -0.519872
O7    O     O_R   0.578090 0.681300 0.569920 -0.514131
O8    O     O_R   0.608530 0.436370 0.586530 -0.500820
O9    O     O_R   0.798770 0.401880 0.597100 -0.522852
O10   O     O_R   0.043450 0.677890 0.566230 -0.502346
O11   O     O_3   0.821250 0.666180 0.485090 -0.282426
O12   O     O_R   0.513330 0.228330 0.898660 -0.497265
O13   O     O_R   0.237900 0.972600 0.090980 -0.521408
O14   O     O_R   0.511190 0.220540 0.061620 -0.506250
O15   O     O_R   0.736920 0.257720 0.063840 -0.534669
O16   O     O_R   0.710450 0.984050 0.081720 -0.510133
O17   O     O_R   0.524090 0.765520 0.933110 -0.513826
O18   O     O_R   0.277300 0.791600 0.938160 -0.499778
O19   O     O_R   0.240210 0.981010 0.915190 -0.516383
O20   O     O_3   0.534755 0.458825 0.130619 -0.546993
O21   O     O_3   0.784272 0.206685 0.345004 -0.544555
O22   O     O_R   0.739230 0.266130 0.888050 -0.511770
O23   O     O_R   0.712580 0.991850 0.918770 -0.505031
O24   O     O_3   0.499990 0.999980 0.999980 -0.268386
O25   O     O_R   0.083770 0.911170 0.376030 -0.517031
O26   O     O_R   0.808770 0.880340 0.383890 -0.482108
O27   O     O_R   0.584340 0.689460 0.394160 -0.519267
O28   O     O_R   0.614320 0.443940 0.423590 -0.513399

loop_
_geom_bond_atom_site_label_1
_geom_bond_atom_site_label_2
_ccdc_geom_bond_type
Cr1   O1    S    
C33   H7    S    
C11   C13   A    
C27   O23   A    
C35   C36   S    
Cr5   O7    S    
C31   H4    S    
C20   C41   S    
C7    C8    A    
C4    O15   A    
C12   C23   A    
C9    C27   S    
C25   O18   A    
Cr1   O17   S    
C35   H10   S    
C3    C9    A    
C28   C29   A    
C3    H21   S    
C7    H23   S    
C38   C39   T    
C36   H14   S    
C4    O14   A    
C10   C17   A    
Cr5   O27   S    
Cr6   O9    S    
C35   H11   S    
C24   O10   A    
C1    C40   S    
C29   H19   S    
C20   O25   A    
C8    C9    A    
C37   H17   S    
C21   O6    A    
C2    C22   S    
C26   O12   A    
Cr5   O11   S    
C12   C30   A    
C33   H8    S    
Cr4   O26   S    
C28   C34   A    
C13   C14   A    
Cr6   O3    S    
Cr5   O8    S    
Cr2   O14   S    
Cr3   O22   S    
C32   H6    S    
C37   H15   S    
C35   O21   S    
C1    O13   A    
C4    C34   S    
C25   O19   A    
Cr1   O18   S    
C8    H24   S    
C16   O1    A    
C22   O9    A    
Cr6   O2    S    
Cr3   O16   S    
C11   H1    S    
Cr4   O6    S    
Cr2   O12   S    
C15   H18   S    
Cr5   O28   S    
C13   C24   S    
C23   H20   S    
C18   C39   S    
C29   C30   A    
Cr2   O24   S    
C31   C32   S    
C23   C34   A    
C21   O7    A    
Cr1   O24   S    
C19   C30   S    
C28   O20   S    
Cr2   O19   S    
C40   C41   T    
Cr4   O25   S    
C26   O22   A    
C12   O21   S    
C18   O27   A    
C36   H13   S    
Cr3   O23   S    
C32   H5    S    
C37   H16   S    
C26   C42   S    
Cr1   O4    S    
C15   C17   A    
C36   C37   S    
C33   H9    S    
Cr3   O15   S    
C1    O4    A    
C19   O2    A    
C31   H3    S    
C3    C5    A    
C5    H22   S    
Cr4   O5    S    
C19   O28   A    
C6    C7    A    
C14   H12   S    
Cr6   O11   S    
C17   C25   S    
C32   C33   S    
C22   O8    A    
C6    C21   S    
C5    C6    A    
C2    C42   T    
Cr6   O10   S    
C27   O17   A    
C10   C11   A    
Cr4   O11   S    
C24   O5    A    
C20   O3    A    
C31   O20   S    
C16   O16   A    
C14   C15   A    
C18   O26   A    
Cr3   O24   S    
Cr2   O13   S    
C16   C38   S    
C10   H2    S    
