data_mof_unit_34461.cif
_audit_creation_date              2012-12-10T17:58:18-0500
_audit_creation_method            fapswitch 2.2
_symmetry_space_group_name_H-M    P1
_symmetry_Int_Tables_number       1
_space_group_crystal_system       triclinic
_cell_length_a                    9.502014
_cell_length_b                    10.811361
_cell_length_c                    15.356939
_cell_angle_alpha                 89.601768
_cell_angle_beta                  74.397139
_cell_angle_gamma                 89.774311
_cell_volume                      1519.43715241

loop_
_atom_site_label
_atom_site_type_symbol
_atom_type_description
_atom_site_fract_x
_atom_site_fract_y
_atom_site_fract_z
_atom_type_partial_charge
C1    C     C_R   0.000139 0.262047 0.500023 0.815956
C2    C     C_R   0.999895 0.737958 0.499975 0.792590
C3    C     C_R   0.589612 0.504795 0.101929 -0.160878
C4    C     C_R   0.458586 0.688134 0.938399 -0.173999
C5    C     C_R   0.736496 0.491234 0.056155 -0.207840
C6    C     C_R   0.314899 0.711097 0.986382 -0.203276
C7    C     C_R   0.867560 0.064257 0.517828 -0.197622
C8    C     C_R   0.132679 0.935736 0.482321 -0.201909
C9    C     C_R   0.867320 0.936380 0.518081 -0.175018
C10   C     C_R   0.132860 0.063651 0.482180 -0.177766
C11   C     C_R   0.999884 0.871758 0.500079 -0.004299
C12   C     C_R   0.000279 0.128244 0.500021 -0.007081
C13   C     C_R   0.551010 0.422747 0.556169 -0.223247
C14   C     C_R   0.449455 0.575815 0.443084 -0.236440
C15   C     C_R   0.399122 0.422290 0.557508 0.584539
C16   C     C_R   0.599450 0.578385 0.443633 0.564918
C17   C     C_R   0.917454 0.506551 0.672841 0.815152
C18   C     C_R   0.081969 0.500552 0.327457 0.868122
C19   C     C_R   0.871473 0.520368 0.772731 -0.134688
C20   C     C_R   0.127292 0.525239 0.229993 -0.120912
C21   C     C_R   0.927112 0.482762 0.915864 -0.187151
C22   C     C_R   0.105583 0.666823 0.111529 -0.205966
C23   C     C_R   0.970817 0.487711 0.821991 -0.193630
C24   C     C_R   0.045978 0.611249 0.194973 -0.228595
C25   C     C_R   0.728217 0.560845 0.819673 -0.059640
C26   C     C_R   0.265380 0.485882 0.176709 -0.097421
C27   C     C_R   0.685242 0.561317 0.916220 0.014841
C28   C     C_R   0.336428 0.558924 0.100164 0.026205
C29   C     C_R   0.783690 0.512775 0.962901 0.144962
C30   C     C_R   0.251633 0.644942 0.065427 0.150126
C31   C     C_R   0.543666 0.598838 0.968545 0.066486
C32   C     C_R   0.488701 0.550200 0.056943 0.094525
Cu1   Cu    Cu3+1 0.140660 0.500020 0.500000 1.005475
Cu2   Cu    Cu3+1 0.859340 0.499980 0.500000 0.999287
H1    H     H_    0.811576 0.456782 0.092805 0.154466
H2    H     H_    0.252741 0.780305 0.961102 0.147378
H3    H     H_    0.938687 0.640186 0.234225 0.193403
H4    H     H_    0.081025 0.458970 0.787693 0.183680
H5    H     H_    0.004249 0.450234 0.951679 0.153863
H6    H     H_    0.040516 0.733258 0.085984 0.143797
H7    H     H_    0.556558 0.483229 0.173450 0.142166
H8    H     H_    0.504047 0.745654 0.879932 0.162039
H9    H     H_    0.764090 0.112837 0.532176 0.153220
H10   H     H_    0.236271 0.887175 0.467957 0.142462
H11   H     H_    0.763643 0.888351 0.532949 0.152134
H12   H     H_    0.236484 0.111754 0.467454 0.157638
H13   H     H_    0.594596 0.361487 0.598165 0.167525
H14   H     H_    0.409940 0.633624 0.397137 0.159402
N1    N     N_R   0.352080 0.500030 0.499980 -0.203327
N2    N     N_R   0.647920 0.499970 0.500020 -0.205828
O1    O     O_R   0.118740 0.319660 0.500000 -0.524524
O2    O     O_R   0.881260 0.680340 0.500000 -0.546149
O3    O     O_R   0.881170 0.319630 0.500010 -0.603740
O4    O     O_R   0.118830 0.680370 0.499990 -0.602977
O5    O     O_R   0.055570 0.500030 0.629830 -0.543237
O6    O     O_R   0.944430 0.499970 0.370170 -0.547288
O7    O     O_R   0.818000 0.500000 0.629840 -0.564383
O8    O     O_R   0.182000 0.500000 0.370160 -0.556240
C33   C     C_2   0.317694 0.357726 0.189875 0.812089
O9    O     O_2   0.391693 0.300792 0.124880 -0.581410
O10   O     O_R   0.276124 0.298697 0.274194 -0.767587
H15   H     H_    0.317202 0.211815 0.272944 0.328130
C34   C     C_2   0.620079 0.588410 0.768049 0.840963
O11   O     O_2   0.512190 0.522958 0.777873 -0.618917
O12   O     O_R   0.642026 0.689475 0.708544 -0.768304
H16   H     H_    0.561671 0.698305 0.676831 0.320989
O13   O     O_3   0.293600 0.344996 0.612440 -0.583111
C35   C     C_3   0.340903 0.269077 0.674450 0.021171
H17   H     H_    0.242215 0.242885 0.728819 0.171476
H18   H     H_    0.410490 0.319130 0.710193 0.175027
C36   C     C_3   0.410235 0.149055 0.629252 -0.403388
H19   H     H_    0.324763 0.092533 0.611368 0.230214
H20   H     H_    0.495672 0.169610 0.565776 0.205310
C37   C     C_3   0.478278 0.073782 0.691945 -0.878481
H21   H     H_    0.567480 0.127098 0.708318 0.261361
H22   H     H_    0.524842 0.986679 0.658022 0.254341
H23   H     H_    0.394279 0.050105 0.755486 0.262667
O14   O     O_3   0.702314 0.649919 0.382598 -0.592053
C38   C     C_3   0.651835 0.770820 0.370865 0.004671
H24   H     H_    0.739207 0.836620 0.375017 0.173363
H25   H     H_    0.553321 0.799582 0.424922 0.114160
C39   C     C_3   0.627099 0.784286 0.276584 -0.363466
H26   H     H_    0.733473 0.775983 0.224511 0.217845
H27   H     H_    0.555023 0.709486 0.264528 0.213967
C40   C     C_3   0.558338 0.909101 0.265325 -0.883536
H28   H     H_    0.449454 0.917872 0.314812 0.246701
H29   H     H_    0.544107 0.916800 0.196047 0.267015
H30   H     H_    0.629764 0.985663 0.275563 0.257504

loop_
_geom_bond_atom_site_label_1
_geom_bond_atom_site_label_2
_ccdc_geom_bond_type
Cu1   O5    S    
C34   O12   S    
Cu2   O6    S    
Cu1   O8    S    
C27   C29   A    
C40   H28   S    
C9    H11   S    
C20   C26   A    
C22   C24   A    
C16   N2    A    
C35   C36   S    
C14   N1    A    
Cu1   N1    S    
C25   C34   S    
C1    O3    A    
C18   O8    A    
C20   C24   A    
C35   H17   S    
C37   H23   S    
C10   H12   S    
Cu2   O7    S    
C7    H9    S    
C26   C33   S    
C17   O5    A    
C16   O14   S    
C18   O6    A    
C22   H6    S    
C33   O9    D    
C3    C32   A    
C1    C12   S    
C2    C11   S    
C10   C12   A    
C24   H3    S    
C5    C29   A    
C40   H29   S    
C21   C23   A    
C7    C12   A    
Cu2   N2    S    
C33   O10   S    
C37   H21   S    
C27   C31   A    
O13   C35   S    
C28   C32   A    
C38   H24   S    
C4    C6    A    
C2    O4    A    
C36   H20   S    
O14   C38   S    
C14   H14   S    
C21   C29   A    
C34   O11   D    
C19   C23   A    
C36   C37   S    
C9    C11   A    
C31   C32   A    
C21   H5    S    
C15   O13   S    
Cu1   Cu2   S    
C1    O1    A    
C2    O2    A    
C35   H18   S    
C6    C30   A    
O12   H16   S    
C39   H27   S    
C13   C15   A    
C14   C16   A    
Cu1   O1    S    
C37   H22   S    
C23   H4    S    
C13   H13   S    
C40   H30   S    
Cu1   O4    S    
C7    C9    A    
C3    H7    S    
C22   C30   A    
Cu2   O2    S    
C8    H10   S    
C3    C5    A    
C38   C39   S    
C38   H25   S    
C25   C27   A    
C39   C40   S    
C26   C28   A    
C28   C30   A    
C36   H19   S    
C4    H8    S    
C8    C11   A    
C5    H1    S    
C17   C19   S    
C6    H2    S    
C18   C20   S    
C15   N1    A    
O10   H15   S    
C19   C25   A    
C4    C31   A    
C13   N2    A    
Cu2   O3    S    
C8    C10   A    
C39   H26   S    
C17   O7    A    
