data_mof_unit_32014.cif
_audit_creation_date              2012-12-10T18:43:07-0500
_audit_creation_method            fapswitch 2.2
_symmetry_space_group_name_H-M    P1
_symmetry_Int_Tables_number       1
_space_group_crystal_system       triclinic
_cell_length_a                    10.778761
_cell_length_b                    9.873597
_cell_length_c                    10.726306
_cell_angle_alpha                 89.692774
_cell_angle_beta                  91.163537
_cell_angle_gamma                 90.753456
_cell_volume                      1141.19976101

loop_
_atom_site_label
_atom_site_type_symbol
_atom_type_description
_atom_site_fract_x
_atom_site_fract_y
_atom_site_fract_z
_atom_type_partial_charge
C1    C     C_R   0.259801 0.498465 0.504901 0.871791
C2    C     C_R   0.739558 0.500273 0.492417 0.875130
C3    C     C_R   0.504394 0.500200 0.262749 0.946162
C4    C     C_R   0.498494 0.499475 0.737370 0.941648
C5    C     C_2   0.521104 0.387199 0.933668 -0.168911
C6    C     C_2   0.514529 0.385608 0.067695 -0.179599
C7    C     C_2   0.490674 0.498207 0.869034 -0.295105
C8    C     C_2   0.520829 0.501076 0.131827 -0.307306
C9    C     C_R   0.060034 0.370227 0.494281 -0.043708
C10   C     C_R   0.933645 0.375261 0.464990 -0.041544
C11   C     C_R   0.872004 0.498847 0.483290 -0.093361
C12   C     C_R   0.126386 0.494235 0.507192 -0.090624
C13   C     C_R   0.937704 0.618989 0.505919 -0.181711
C14   C     C_R   0.064511 0.617250 0.512530 -0.186043
C15   C     C_R   0.559725 0.072908 0.592464 -0.134270
C16   C     C_R   0.441848 0.072430 0.406641 -0.112512
C17   C     C_R   0.561786 0.929665 0.591712 0.355499
C18   C     C_R   0.440773 0.929205 0.406630 0.355905
H1    H     H_    0.548352 0.294520 0.887954 0.175355
H2    H     H_    0.503343 0.287774 0.113317 0.181590
H3    H     H_    0.456906 0.589692 0.911410 0.168381
H4    H     H_    0.541140 0.598549 0.089349 0.175875
H5    H     H_    0.891444 0.714526 0.518557 0.182751
H6    H     H_    0.113852 0.712059 0.525755 0.164139
H7    H     H_    0.609067 0.128277 0.665214 0.167874
H8    H     H_    0.394655 0.127310 0.332522 0.169568
N1    N     N_R   0.500000 0.857200 0.500000 -0.144672
N2    N     N_R   0.500000 0.142810 0.500000 -0.114773
O1    O     O_R   0.316770 0.614620 0.499990 -0.599269
O2    O     O_R   0.683230 0.614620 0.500010 -0.597832
O3    O     O_R   0.316800 0.385290 0.500000 -0.613461
O4    O     O_R   0.683200 0.385290 0.500000 -0.614261
O5    O     O_R   0.500000 0.614630 0.319080 -0.560350
O6    O     O_R   0.500000 0.614630 0.680920 -0.561798
O7    O     O_R   0.500030 0.385300 0.319080 -0.630839
O8    O     O_R   0.499970 0.385300 0.680920 -0.632423
Zn1   Zn    Zn3+2 0.500000 0.653120 0.500000 1.028979
Zn2   Zn    Zn3+2 0.500000 0.346880 0.500000 0.965112
C19   C     C_R   0.115037 0.238303 0.531643 0.138743
C20   C     C_R   0.125273 0.131891 0.446380 -0.131937
C21   C     C_R   0.160820 0.003788 0.488267 -0.152231
C22   C     C_R   0.196655 0.983534 0.612868 -0.126529
C23   C     C_R   0.192690 0.090654 0.696993 -0.117684
C24   C     C_R   0.150261 0.217082 0.657141 -0.120673
H9    H     H_    0.099992 0.146384 0.349047 0.145844
H10   H     H_    0.160834 0.920446 0.423654 0.189125
H11   H     H_    0.227520 0.885027 0.644302 0.144628
H12   H     H_    0.220202 0.075068 0.793551 0.144541
H13   H     H_    0.143519 0.298184 0.724181 0.121118
C25   C     C_R   0.869839 0.257206 0.403970 0.131215
C26   C     C_R   0.847519 0.135460 0.468914 -0.102300
C27   C     C_R   0.793674 0.024466 0.406915 -0.153939
C28   C     C_R   0.755057 0.036318 0.282305 -0.109282
C29   C     C_R   0.772329 0.158610 0.218544 -0.120084
C30   C     C_R   0.830211 0.268394 0.278716 -0.143679
H14   H     H_    0.874476 0.125594 0.566306 0.145547
H15   H     H_    0.781031 0.929383 0.455702 0.160235
H16   H     H_    0.711523 0.950809 0.235313 0.152806
H17   H     H_    0.741929 0.167988 0.122126 0.139626
H18   H     H_    0.844660 0.362057 0.227688 0.125699
Cl1   Cl    Cl    0.654250 0.849090 0.705367 -0.635443
Cl2   Cl    Cl    0.360157 0.848148 0.283894 -0.646729

loop_
_geom_bond_atom_site_label_1
_geom_bond_atom_site_label_2
_ccdc_geom_bond_type
C24   H13   S    
C16   N2    A    
C27   H15   S    
C8    H4    S    
C21   H10   S    
C4    O8    A    
C28   C29   A    
C19   C24   A    
C5    H1    S    
O4    Zn2   S    
O6    Zn1   S    
C6    H2    S    
C21   C22   A    
C25   C30   A    
O3    Zn2   S    
C1    O3    A    
C28   H16   S    
C10   C11   A    
O7    Zn2   S    
O8    Zn2   S    
C25   C26   A    
C16   C18   A    
C30   H18   S    
C15   C17   A    
C11   C13   A    
C15   N2    A    
C5    C6    S    
C1    C12   S    
N1    Zn1   S    
C4    C7    S    
C2    C11   S    
C9    C10   A    
C1    O1    A    
C20   C21   A    
C12   C14   A    
C3    C8    S    
C29   H17   S    
C23   C24   A    
C16   H8    S    
C20   H9    S    
C9    C12   A    
C4    O6    A    
C15   H7    S    
C22   C23   A    
C3    O5    A    
O1    Zn1   S    
C26   C27   A    
C10   C25   S    
C9    C19   S    
C22   H11   S    
C2    O2    A    
C27   C28   A    
C13   H5    S    
C2    O4    A    
C26   H14   S    
C23   H12   S    
C14   H6    S    
C19   C20   A    
C5    C7    D    
C29   C30   A    
C18   Cl2   S    
C6    C8    D    
C13   C14   A    
C17   Cl1   S    
N2    Zn2   S    
C7    H3    S    
O5    Zn1   S    
C18   N1    A    
C3    O7    A    
O2    Zn1   S    
C17   N1    A    
