data_mof_unit_56467.cif
_audit_creation_date              2012-12-10T17:33:18-0500
_audit_creation_method            fapswitch 2.2
_symmetry_space_group_name_H-M    P1
_symmetry_Int_Tables_number       1
_space_group_crystal_system       triclinic
_cell_length_a                    12.108223
_cell_length_b                    12.703353
_cell_length_c                    13.617894
_cell_angle_alpha                 92.115935
_cell_angle_beta                  79.490541
_cell_angle_gamma                 94.915761
_cell_volume                      2051.43879549

loop_
_atom_site_label
_atom_site_type_symbol
_atom_type_description
_atom_site_fract_x
_atom_site_fract_y
_atom_site_fract_z
_atom_type_partial_charge
C1    C     C_R   0.524073 0.700007 0.495353 1.048478
C2    C     C_R   0.148353 0.465377 0.450340 0.559069
C3    C     C_R   0.969951 0.524117 0.542373 -0.353446
C4    C     C_R   0.028226 0.465483 0.462243 -0.315622
C5    C     C_R   0.480205 0.501248 0.686625 0.947871
C6    C     C_R   0.519830 0.498819 0.313378 0.922539
C7    C     C_1   0.534957 0.498630 0.208868 -0.123735
C8    C     C_1   0.465156 0.500990 0.791134 -0.102385
C9    C     C_2   0.548585 0.498811 0.016484 0.466034
C10   C     C_2   0.451939 0.499779 0.983454 0.498258
C11   C     C_1   0.455182 0.500503 0.879435 0.023287
C12   C     C_R   0.476376 0.299870 0.502703 1.023350
C13   C     C_1   0.545212 0.498601 0.120538 0.019875
C14   C     C_R   0.458982 0.188544 0.513498 -0.377652
C15   C     C_R   0.543455 0.811211 0.483289 -0.390259
C16   C     C_R   0.580030 0.958455 0.372343 0.520365
C17   C     C_R   0.434909 0.044395 0.627081 0.491079
C18   C     C_R   0.587218 0.851831 0.388546 0.324259
C19   C     C_R   0.416364 0.147930 0.608031 0.295560
C20   C     C_R   0.500422 0.874874 0.563410 0.542727
C21   C     C_R   0.508251 0.126430 0.434620 0.575622
C22   C     C_3   0.252129 0.202943 0.693176 -0.232437
C23   C     C_R   0.487623 0.980386 0.548135 -0.288632
C24   C     C_3   0.735447 0.763363 0.305831 -0.270823
C25   C     C_3   0.728202 0.039769 0.268398 -0.146753
C26   C     C_3   0.482060 0.033037 0.779866 -0.125489
C27   C     C_3   0.235924 0.322134 0.371786 -0.040840
C28   C     C_3   0.816637 0.705559 0.584073 -0.163548
C29   C     C_3   0.208898 0.731446 0.660403 -0.131602
C30   C     C_3   0.819008 0.411698 0.244437 -0.163497
C31   C     C_3   0.977766 0.232007 0.364931 -0.354210
C32   C     C_3   0.950417 0.530331 0.774327 -0.114056
C33   C     C_R   0.525269 0.022000 0.450778 -0.304704
C34   C     C_R   0.963955 0.407445 0.397826 0.434467
C35   C     C_R   0.030499 0.569827 0.614978 0.356170
C36   C     C_R   0.847687 0.421390 0.405870 0.403120
C37   C     C_R   0.149498 0.572230 0.597961 0.424517
C38   C     C_R   0.852159 0.534411 0.548146 0.563728
F1    F     F_    0.351052 0.500223 0.046898 -0.646911
F2    F     F_    0.649513 0.498404 0.953087 -0.687867
F3    F     F_    0.542197 0.170779 0.343485 -0.636581
F4    F     F_    0.465277 0.830653 0.654388 -0.656085
H1    H     H_    0.217003 0.121451 0.714481 0.178494
H2    H     H_    0.494413 0.120121 0.791141 0.162412
H3    H     H_    0.563465 0.000980 0.745828 0.148686
H4    H     H_    0.454661 0.997824 0.854576 0.190787
H5    H     H_    0.205031 0.287855 0.447031 0.071336
H6    H     H_    0.328189 0.318575 0.350769 0.176301
H7    H     H_    0.202453 0.270223 0.315232 0.182452
H8    H     H_    0.811027 0.711580 0.503809 0.104686
H9    H     H_    0.900888 0.739684 0.595743 0.156583
H10   H     H_    0.752812 0.754783 0.627848 0.186561
H11   H     H_    0.123211 0.758927 0.683638 0.155528
H12   H     H_    0.226253 0.224503 0.622652 0.137375
H13   H     H_    0.245645 0.759045 0.583858 0.147231
H14   H     H_    0.261159 0.769465 0.712685 0.247356
H15   H     H_    0.899662 0.382072 0.206097 0.196800
H16   H     H_    0.825529 0.499787 0.246182 0.119879
H17   H     H_    0.754445 0.384779 0.198780 0.189845
H18   H     H_    0.885463 0.213720 0.372459 0.192188
H19   H     H_    0.003967 0.220922 0.437850 0.135355
H20   H     H_    0.018553 0.173658 0.310566 0.183408
H21   H     H_    0.029022 0.500303 0.790017 0.143150
H22   H     H_    0.894732 0.464219 0.749462 0.157710
H23   H     H_    0.215035 0.257985 0.752893 0.186924
H24   H     H_    0.904821 0.563214 0.845384 0.216232
H25   H     H_    0.780236 0.812342 0.358494 0.100630
H26   H     H_    0.783535 0.776682 0.229223 0.190879
H27   H     H_    0.738047 0.678822 0.321931 0.188524
H28   H     H_    0.786473 0.977493 0.270775 0.105725
H29   H     H_    0.737972 0.101014 0.327334 0.160005
H30   H     H_    0.753436 0.078519 0.195138 0.195108
N1    N     N_R   0.206090 0.519450 0.517820 -0.211000
N2    N     N_R   0.793910 0.480550 0.482180 -0.211915
O1    O     O_R   0.421240 0.658850 0.504760 -0.592349
O2    O     O_3   0.622519 0.785572 0.307926 -0.569300
O3    O     O_3   0.615681 0.996422 0.276870 -0.511009
O4    O     O_3   0.397867 0.005635 0.722082 -0.557351
O5    O     O_3   0.208507 0.426776 0.361809 -0.536107
O6    O     O_3   0.794898 0.600861 0.618441 -0.524485
O7    O     O_3   0.208985 0.620791 0.666898 -0.565591
O8    O     O_3   0.784995 0.369390 0.340770 -0.562738
O9    O     O_3   0.012506 0.334790 0.328804 -0.559987
O10   O     O_3   0.974590 0.611342 0.703731 -0.583376
O11   O     O_R   0.578760 0.341150 0.495240 -0.570627
O12   O     O_R   0.609960 0.646370 0.493320 -0.635825
O13   O     O_R   0.390040 0.353630 0.506680 -0.656690
O14   O     O_R   0.392060 0.507120 0.646890 -0.560552
O15   O     O_R   0.607940 0.492880 0.353110 -0.600991
O16   O     O_R   0.580780 0.494630 0.635450 -0.574331
O17   O     O_R   0.419220 0.505370 0.364550 -0.571827
O18   O     O_3   0.370224 0.213550 0.685255 -0.600519
Zn1   Zn    Zn3+2 0.373990 0.508340 0.507630 1.019851
Zn2   Zn    Zn3+2 0.626010 0.491660 0.492370 1.015330

loop_
_geom_bond_atom_site_label_1
_geom_bond_atom_site_label_2
_ccdc_geom_bond_type
C27   H6    S    
C19   O18   S    
C15   C18   A    
C31   H19   S    
N1    Zn1   S    
C26   H2    S    
C22   H12   S    
C26   O4    S    
C38   O6    S    
C12   O11   A    
C25   O3    S    
C14   C21   A    
C35   C37   A    
C27   O5    S    
C28   H9    S    
C21   C33   A    
C6    O17   A    
C30   H15   S    
C30   H16   S    
C31   O9    S    
C16   O3    S    
O15   Zn2   S    
N2    Zn2   S    
C9    C13   S    
C2    O5    S    
O12   Zn2   S    
C26   H3    S    
C5    O14   A    
C28   H8    S    
C3    C38   A    
C36   O8    S    
C23   C33   A    
C1    C15   S    
C9    C10   D    
C5    O16   A    
C24   H25   S    
C31   H20   S    
C37   O7    S    
C24   H27   S    
O16   Zn2   S    
C15   C20   A    
C32   O10   S    
C4    C34   A    
C1    O1    A    
C32   H22   S    
C26   H4    S    
C24   O2    S    
C29   H13   S    
C9    F2    S    
C10   F1    S    
C31   H18   S    
C30   O8    S    
C2    C4    A    
C22   H23   S    
C29   O7    S    
C16   C33   A    
O17   Zn1   S    
O11   Zn2   S    
C22   H1    S    
C20   C23   A    
C3    C35   A    
C30   H17   S    
C25   H30   S    
C17   C23   A    
C2    N1    A    
C36   N2    A    
C25   H29   S    
C12   C14   S    
C21   F3    S    
C34   O9    S    
C3    C4    A    
O1    Zn1   S    
C32   H24   S    
C38   N2    A    
C27   H5    S    
C1    O12   A    
C37   N1    A    
O14   Zn1   S    
C18   O2    S    
C12   O13   A    
C14   C19   A    
C32   H21   S    
C5    C8    S    
C20   F4    S    
C35   O10   S    
C6    C7    S    
C29   H14   S    
C6    O15   A    
C28   H10   S    
C29   H11   S    
C8    C11   T    
O13   Zn1   S    
C17   O4    S    
C17   C19   A    
C34   C36   A    
C28   O6    S    
C10   C11   S    
C24   H26   S    
C7    C13   T    
C16   C18   A    
C22   O18   S    
C25   H28   S    
C27   H7    S    
