data_mof_unit_42284.cif
_audit_creation_date              2013-03-05T15:49:17-0500
_audit_creation_method            fapswitch 2.2
_symmetry_space_group_name_H-M    P1
_symmetry_Int_Tables_number       1
_space_group_crystal_system       triclinic
_cell_length_a                    20.608668
_cell_length_b                    22.617149
_cell_length_c                    6.940527
_cell_angle_alpha                 90.155047
_cell_angle_beta                  86.525476
_cell_angle_gamma                 90.023402
_cell_volume                      3229.08584986

loop_
_atom_site_label
_atom_site_type_symbol
_atom_site_description
_atom_site_fract_x
_atom_site_fract_y
_atom_site_fract_z
_atom_type_partial_charge
O1    O     O_R   0.387100 0.552640 0.378490 -0.559051
O2    O     O_R   0.612900 0.052640 0.621510 -0.553685
O3    O     O_R   0.249610 0.559600 0.072250 -0.609408
O4    O     O_R   0.750390 0.059600 0.927750 -0.586286
O5    O     O_R   0.249120 0.447360 0.902040 -0.612762
O6    O     O_R   0.750880 0.947360 0.097960 -0.604209
C1    C     C_R   0.226395 0.572448 0.244973 0.994127
C2    C     C_R   0.773536 0.072952 0.755303 0.899902
O7    O     O_R   0.386610 0.559560 0.048860 -0.581833
O8    O     O_R   0.613390 0.059560 0.951140 -0.580322
O9    O     O_R   0.387100 0.447320 0.878470 -0.573534
O10   O     O_R   0.612900 0.947320 0.121530 -0.570232
C3    C     C_R   0.408209 0.574642 0.213634 1.015886
C4    C     C_R   0.591828 0.074696 0.786679 1.029864
O11   O     O_R   0.249120 0.552680 0.402050 -0.560280
O12   O     O_R   0.750880 0.052680 0.597950 -0.615837
O13   O     O_3   0.318110 0.463180 0.223790 -0.281247
O14   O     O_3   0.681890 0.963180 0.776210 -0.277521
V1    V     V_3+5 0.318110 0.506830 0.948930 1.238511
V2    V     V_3+5 0.681890 0.006830 0.051070 1.232694
O15   O     O_R   0.386610 0.440400 0.548840 -0.572938
O16   O     O_R   0.613390 0.940400 0.451160 -0.567383
C5    C     C_R   0.408224 0.425348 0.713532 1.016823
C6    C     C_R   0.591695 0.925403 0.286134 1.026850
O17   O     O_R   0.249610 0.440440 0.572240 -0.586303
O18   O     O_R   0.750390 0.940440 0.427760 -0.619043
C7    C     C_R   0.227426 0.425938 0.744760 0.964389
C8    C     C_R   0.773110 0.926473 0.254708 0.923660
V3    V     V_3+5 0.318110 0.493170 0.448930 1.260305
V4    V     V_3+5 0.681890 0.993170 0.551070 1.223464
O19   O     O_3   0.318110 0.536820 0.723940 -0.263315
O20   O     O_3   0.681890 0.036820 0.276060 -0.265031
C9    C     C_R   0.175714 0.380520 0.762568 -0.134128
C10   C     C_R   0.826649 0.882824 0.233720 -0.121528
C11   C     C_R   0.144649 0.361297 0.598614 -0.070125
C12   C     C_R   0.851969 0.856742 0.396832 -0.124731
C13   C     C_R   0.097173 0.317283 0.614161 -0.159472
C14   C     C_R   0.901680 0.814802 0.375582 -0.141246
C15   C     C_R   0.080283 0.291200 0.793487 0.091359
C16   C     C_R   0.927223 0.798233 0.190816 0.084601
C17   C     C_R   0.111085 0.310181 0.957391 -0.049715
C18   C     C_R   0.902316 0.824534 0.028139 -0.039896
C19   C     C_R   0.158089 0.354727 0.942480 -0.154841
C20   C     C_R   0.852672 0.866408 0.049153 -0.139196
C21   C     C_R   0.870184 0.208755 0.860474 0.025687
C22   C     C_R   0.139946 0.717030 0.211442 0.047247
C23   C     C_R   0.823371 0.164606 0.870176 -0.030494
C24   C     C_R   0.187691 0.673668 0.201880 -0.130758
C25   C     C_R   0.878618 0.113987 0.595797 -0.111841
C26   C     C_R   0.109763 0.601356 0.338279 -0.056564
C27   C     C_R   0.928276 0.157950 0.592014 -0.104043
C28   C     C_R   0.061562 0.646531 0.354772 -0.114852
C29   C     C_R   0.922828 0.205559 0.724834 0.176305
C30   C     C_R   0.076949 0.703898 0.284001 0.182737
C31   C     C_2   0.031299 0.243224 0.809445 0.276674
C32   C     C_2   0.978573 0.752278 0.165709 0.269255
C33   C     C_2   0.973368 0.251633 0.731774 -0.485318
C34   C     C_2   0.028025 0.751654 0.285307 -0.433083
C35   C     C_R   0.826442 0.117262 0.739162 -0.208507
C36   C     C_R   0.173572 0.616086 0.264243 -0.174979
H1    H     H_    0.157166 0.380018 0.457819 0.150142
H2    H     H_    0.833022 0.868257 0.540969 0.128108
H3    H     H_    0.783524 0.168182 0.978853 0.135478
H4    H     H_    0.236104 0.685008 0.143891 0.140916
H5    H     H_    0.962441 0.294176 0.668914 0.175908
H6    H     H_    0.032838 0.787174 0.389175 0.174935
H7    H     H_    0.098525 0.290642 0.097054 0.118352
H8    H     H_    0.921476 0.812803 0.884338 0.122569
H9    H     H_    0.866260 0.244979 0.963047 0.124428
H10   H     H_    0.152014 0.761096 0.159843 0.158295
H11   H     H_    0.181227 0.368315 0.071416 0.140074
H12   H     H_    0.834588 0.885732 0.920285 0.128323
H13   H     H_    0.074400 0.302805 0.485530 0.112370
H14   H     H_    0.919282 0.794473 0.503522 0.127911
C37   C     C_R   0.579126 0.362253 0.664377 -0.195212
C38   C     C_R   0.420481 0.862643 0.332077 -0.200366
H15   H     H_    0.628236 0.378297 0.635870 0.162011
H16   H     H_    0.371965 0.878421 0.371948 0.169403
C39   C     C_R   0.464032 0.383863 0.711086 -0.111298
C40   C     C_R   0.535705 0.884040 0.287422 -0.114385
C41   C     C_R   0.473754 0.096348 0.857962 -0.068111
C42   C     C_R   0.526743 0.595982 0.150532 -0.065612
C43   C     C_R   0.425289 0.137307 0.911925 -0.167805
C44   C     C_R   0.575556 0.636598 0.096820 -0.174148
C45   C     C_R   0.435877 0.198423 0.897971 -0.023207
C46   C     C_R   0.564745 0.697790 0.104330 -0.022869
C47   C     C_R   0.493980 0.220119 0.800179 -0.004514
C48   C     C_R   0.505814 0.720196 0.195346 -0.008559
C49   C     C_R   0.545844 0.178750 0.760751 0.039671
C50   C     C_R   0.453735 0.679042 0.233957 0.043842
C51   C     C_R   0.503885 0.281359 0.747965 0.079431
C52   C     C_R   0.495519 0.781805 0.243014 0.077796
C53   C     C_R   0.567521 0.301237 0.690460 0.029067
C54   C     C_R   0.431381 0.802077 0.292908 0.033513
C55   C     C_R   0.618693 0.260002 0.660739 0.346885
C56   C     C_R   0.379457 0.761214 0.311368 0.343710
C57   C     C_R   0.607128 0.199951 0.693515 -0.328609
C58   C     C_R   0.391663 0.700781 0.290705 -0.330648
C59   C     C_R   0.452338 0.323089 0.740769 -0.280387
C60   C     C_R   0.547167 0.823341 0.254563 -0.277298
C61   C     C_R   0.528662 0.403861 0.677394 -0.028354
C62   C     C_R   0.471219 0.904015 0.324618 -0.033066
C63   C     C_R   0.536156 0.116885 0.793427 -0.163399
C64   C     C_R   0.463814 0.616910 0.207866 -0.157634
H17   H     H_    0.402217 0.308964 0.750866 0.109681
H18   H     H_    0.597235 0.809125 0.246341 0.109071
H19   H     H_    0.379669 0.121167 0.978109 0.168623
H20   H     H_    0.621727 0.620001 0.035777 0.164892
H21   H     H_    0.647110 0.169632 0.663067 0.146215
H22   H     H_    0.350972 0.670821 0.314073 0.132957
C65   C     C_2   0.987256 0.154220 0.457606 0.741769
H23   H     H_    0.010866 0.194338 0.403986 -0.022592
O21   O     O_2   0.011939 0.106682 0.412979 -0.496853
C66   C     C_2   0.996177 0.635673 0.452748 0.597926
H24   H     H_    0.954453 0.661429 0.415447 0.042597
O22   O     O_2   0.988610 0.599709 0.583053 -0.534919
C67   C     C_2   0.546547 0.467263 0.650393 0.522629
H25   H     H_    0.596880 0.479173 0.614776 0.014095
O23   O     O_2   0.506473 0.506914 0.668641 -0.578851
C68   C     C_2   0.453746 0.967136 0.361483 0.521725
H26   H     H_    0.403569 0.978889 0.400303 0.021836
O24   O     O_2   0.493963 0.006762 0.347621 -0.578489
N1    N     N_R   0.682182 0.277685 0.584998 0.234531
O25   O     O_R   0.688487 0.307233 0.424311 -0.396149
O26   O     O_R   0.733680 0.254789 0.654633 -0.418396
N2    N     N_R   0.313700 0.780075 0.355937 0.225326
O27   O     O_R   0.286305 0.816877 0.242153 -0.405400
O28   O     O_R   0.277822 0.752713 0.488249 -0.397227
C69   C     C_2   0.457272 0.032556 0.883400 0.552108
H27   H     H_    0.411466 0.020066 0.957780 0.006677
O29   O     O_2   0.493058 0.993293 0.819134 -0.578546
C70   C     C_2   0.543490 0.532032 0.131645 0.552358
H28   H     H_    0.590096 0.519034 0.063170 -0.000657
O30   O     O_2   0.506968 0.493223 0.194654 -0.577879
C71   C     C_2   0.390488 0.236967 0.015908 0.498503
H29   H     H_    0.407359 0.278511 0.073350 0.024652
O31   O     O_2   0.334118 0.222262 0.053705 -0.548831
C72   C     C_2   0.610939 0.735394 0.986325 0.497538
H30   H     H_    0.594597 0.776543 0.925514 0.025586
O32   O     O_2   0.667403 0.720349 0.952313 -0.553903
C73   C     C_2   0.880725 0.064766 0.453196 0.674364
H31   H     H_    0.867589 0.020278 0.498977 -0.038497
O33   O     O_2   0.894628 0.073898 0.282332 -0.545132
C74   C     C_2   0.090957 0.538751 0.379651 0.542746
H32   H     H_    0.041530 0.524264 0.361305 0.059025
O34   O     O_2   0.129602 0.502718 0.435240 -0.608368
N3    N     N_R   0.047225 0.188978 0.905702 0.244816
O35   O     O_R   0.107799 0.175138 0.924377 -0.342304
O36   O     O_R   0.002211 0.155262 0.986157 -0.355667
N4    N     N_R   0.974220 0.708754 0.014353 0.235763
O37   O     O_R   0.917610 0.692706 0.959077 -0.372420
O38   O     O_R   0.026268 0.689040 0.919747 -0.379395

loop_
_geom_bond_atom_site_label_1
_geom_bond_atom_site_label_2
_geom_bond_distance
_ccdc_geom_bond_type
V4    O20   2.151285 S    
N2    O27   1.301237 A    
C58   H22   1.082733 S    
C47   C51   1.443951 A    
O13   V3    1.701772 S    
N3    O35   1.301273 A    
O4    C2    1.297639 A    
V1    O19   1.704183 S    
C66   H24   1.083491 S    
N1    O25   1.301424 A    
C17   H7    1.083380 S    
C7    C9    1.479876 S    
C52   C60   1.425139 A    
O16   C6    1.298713 A    
C39   C59   1.408942 A    
C11   C13   1.395318 A    
C44   C46   1.402205 A    
C43   H19   1.084640 S    
O3    C1    1.295821 A    
C73   O33   1.221134 D    
C2    C35   1.480066 S    
C23   H3    1.083727 S    
C9    C11   1.406831 A    
C46   C48   1.427101 A    
C24   H4    1.083931 S    
O12   V4    1.997768 S    
O7    V1    2.002256 S    
C21   C23   1.387096 A    
O7    C3    1.296849 A    
C38   C54   1.411242 A    
O5    C7    1.297049 A    
C31   N3    1.445910 S    
C6    C40   1.484797 S    
C15   C31   1.481526 S    
C48   C52   1.444060 A    
O8    V2    2.005178 S    
C70   H28   1.085792 S    
C25   C27   1.425742 A    
C56   C58   1.395325 A    
C26   C28   1.424850 A    
O3    V1    1.999825 S    
O14   V4    1.705138 S    
C27   C65   1.488961 S    
C10   C12   1.406179 A    
C24   C36   1.398402 A    
C16   C18   1.402231 A    
C8    C10   1.481176 S    
C2    O12   1.296092 A    
C49   C63   1.430052 A    
C38   C62   1.401613 A    
C17   C19   1.397044 A    
O10   V2    1.997483 S    
C18   C20   1.395300 A    
V2    O20   1.700817 S    
C12   H2    1.082779 S    
O1    V3    1.996845 S    
C41   C43   1.396279 A    
C28   C30   1.417564 A    
O11   V3    1.999737 S    
C45   C47   1.427612 A    
O15   C5    1.298007 A    
O17   V3    2.001333 S    
C59   H17   1.079352 S    
C22   C24   1.388149 A    
C23   C35   1.401872 A    
C21   H9    1.083744 S    
C9    C19   1.407224 A    
C71   H29   1.084994 S    
C10   C20   1.407382 A    
C74   O34   1.219325 D    
O8    C4    1.296636 A    
C33   H5    1.086841 S    
C29   C33   1.475797 S    
O13   V1    2.150360 S    
C1    O11   1.293242 A    
C16   C32   1.485985 S    
O15   V3    2.005663 S    
C40   C62   1.412510 A    
C27   C29   1.415636 A    
C41   C63   1.414582 A    
C51   C53   1.420697 A    
C57   H21   1.082765 S    
C41   C69   1.490617 S    
O9    V1    1.996483 S    
C22   C30   1.395927 A    
C52   C54   1.421784 A    
C56   N2    1.436336 S    
C65   O21   1.220769 D    
C3    C64   1.490793 S    
C54   C56   1.413818 A    
C28   C66   1.492668 S    
C37   H15   1.082103 S    
C50   C64   1.430012 A    
C72   O32   1.221542 D    
C45   C71   1.486262 S    
C70   O30   1.220596 D    
C43   C45   1.401990 A    
C48   C50   1.433795 A    
O18   V4    1.999259 S    
C42   C44   1.396599 A    
C31   C33   1.353101 D    
C26   C74   1.491920 S    
C30   C34   1.477520 S    
N4    O38   1.301520 A    
O1    C3    1.299468 A    
C42   C70   1.490703 S    
C12   C14   1.397414 A    
C1    C36   1.469547 S    
C62   C68   1.490127 S    
C68   H26   1.085675 S    
C68   O24   1.220503 D    
C34   H6    1.086451 S    
C69   H27   1.085788 S    
C14   H14   1.082998 S    
C55   N1    1.437212 S    
C71   O31   1.221561 D    
C13   H13   1.083322 S    
N2    O28   1.301310 A    
O16   V4    2.002740 S    
C65   H23   1.085374 S    
N3    O36   1.301089 A    
C60   H18   1.079040 S    
C38   H16   1.081596 S    
C74   H32   1.084623 S    
C66   O22   1.220919 D    
C55   C57   1.395719 A    
O5    V1    1.997173 S    
C25   C73   1.486468 S    
O17   C7    1.298447 A    
O6    V2    1.999141 S    
O10   C6    1.297780 A    
O18   C8    1.300577 A    
C25   C35   1.421893 A    
O2    V4    1.995846 S    
C61   C67   1.489931 S    
C67   O23   1.220534 D    
C26   C36   1.422310 A    
V3    O19   2.146539 S    
C51   C59   1.424514 A    
C67   H25   1.085669 S    
C14   C16   1.406324 A    
C4    C63   1.491040 S    
C53   C55   1.413468 A    
C11   H1    1.082745 S    
C37   C53   1.410761 A    
O9    C5    1.297552 A    
C44   H20   1.084603 S    
C32   C34   1.352950 D    
C20   H12   1.082844 S    
O14   V2    2.145615 S    
C18   H8    1.083203 S    
O2    C4    1.299347 A    
C19   H11   1.082945 S    
C22   H10   1.083669 S    
N1    O26   1.300807 A    
C72   H30   1.085049 S    
C46   C72   1.486296 S    
C21   C29   1.394434 A    
O4    V2    2.001900 S    
O6    C8    1.296143 A    
C15   C17   1.402137 A    
C13   C15   1.403407 A    
C49   C57   1.404318 A    
C37   C61   1.401532 A    
C47   C49   1.434123 A    
C42   C64   1.414639 A    
N4    O37   1.301222 A    
C39   C61   1.412665 A    
C5    C39   1.483869 S    
C73   H31   1.085247 S    
C32   N4    1.444416 S    
C50   C58   1.404162 A    
C40   C60   1.408743 A    
C69   O29   1.220639 D    
