data_mof_unit_38208.cif
_audit_creation_date              2012-12-11T21:06:13-0500
_audit_creation_method            fapswitch 2.2
_symmetry_space_group_name_H-M    P1
_symmetry_Int_Tables_number       1
_space_group_crystal_system       triclinic
_cell_length_a                    36.496261
_cell_length_b                    39.235486
_cell_length_c                    8.454829
_cell_angle_alpha                 90.000038
_cell_angle_beta                  94.099992
_cell_angle_gamma                 90.0
_cell_volume                      12075.8960084

loop_
_atom_site_label
_atom_site_type_symbol
_atom_type_description
_atom_site_fract_x
_atom_site_fract_y
_atom_site_fract_z
_atom_type_partial_charge
Ba1   Ba    Ba6+2 0.000060 0.523150 0.844950 1.688414
Ba2   Ba    Ba6+2 0.000060 0.476850 0.344950 1.688373
Ba3   Ba    Ba6+2 0.500060 0.023150 0.844950 1.688354
Ba4   Ba    Ba6+2 0.500060 0.976850 0.344950 1.688346
C1    C     C_3   0.989356 0.691643 0.649081 -0.316624
C2    C     C_2   0.908422 0.634839 0.291866 -0.082316
C3    C     C_R   0.630664 0.812637 0.701032 0.586100
C4    C     C_2   0.090512 0.634616 0.395095 -0.073950
C5    C     C_2   0.090491 0.365373 0.895023 -0.073941
C6    C     C_2   0.590492 0.134631 0.394997 -0.073962
C7    C     C_2   0.590494 0.865372 0.895021 -0.073945
C8    C     C_3   0.058519 0.610760 0.417247 -0.096874
C9    C     C_3   0.058510 0.389242 0.917214 -0.096665
C10   C     C_3   0.558512 0.110761 0.417203 -0.096656
C11   C     C_3   0.558511 0.889239 0.917212 -0.096716
C12   C     C_1   0.082961 0.574160 0.216214 0.001833
C13   C     C_2   0.408421 0.865165 0.791846 -0.082367
C14   C     C_1   0.082964 0.425840 0.716207 0.001813
C15   C     C_1   0.582970 0.074158 0.216221 0.001788
C16   C     C_1   0.582968 0.925842 0.716222 0.001806
C17   C     C_2   0.106884 0.597630 0.176778 -0.094897
C18   C     C_2   0.106887 0.402369 0.676782 -0.094893
C19   C     C_2   0.606905 0.097621 0.176834 -0.094890
C20   C     C_2   0.606900 0.902377 0.676824 -0.094872
C21   C     C_2   0.112491 0.629324 0.274593 0.241158
C22   C     C_2   0.112479 0.370668 0.774554 0.241176
C23   C     C_2   0.612490 0.129327 0.274571 0.241343
C24   C     C_2   0.408422 0.134837 0.291853 -0.082328
C25   C     C_2   0.612488 0.870673 0.774578 0.241241
C26   C     C_R   0.739087 0.284553 0.050715 0.020351
C27   C     C_R   0.739090 0.715431 0.550965 0.020361
C28   C     C_R   0.239113 0.784597 0.051547 0.020356
C29   C     C_R   0.239092 0.215418 0.551119 0.020358
C30   C     C_R   0.776667 0.274706 0.057710 0.051051
C31   C     C_R   0.776670 0.725298 0.557726 0.051008
C32   C     C_R   0.276678 0.774697 0.057784 0.051010
C33   C     C_R   0.276666 0.225295 0.557709 0.051011
C34   C     C_R   0.787117 0.240820 0.100775 0.019858
C35   C     C_3   0.942181 0.386864 0.773770 -0.075177
C36   C     C_R   0.787119 0.759202 0.600563 0.019877
C37   C     C_R   0.287112 0.740762 0.100097 0.019882
C38   C     C_R   0.287108 0.259207 0.600374 0.019879
C39   C     C_3   0.896256 0.522986 0.142492 0.277445
C40   C     C_3   0.896258 0.477013 0.642481 0.277406
C41   C     C_3   0.396254 0.022985 0.142486 0.277466
C42   C     C_3   0.396255 0.977015 0.642503 0.277528
C43   C     C_R   0.730218 0.318430 0.004072 -0.098071
C44   C     C_R   0.730224 0.681535 0.504586 -0.098064
C45   C     C_R   0.230266 0.818533 0.005813 -0.098072
C46   C     C_3   0.942178 0.613132 0.273761 -0.075031
C47   C     C_R   0.230231 0.181510 0.504900 -0.098063
C48   C     C_R   0.851450 0.256582 0.075400 -0.053448
C49   C     C_R   0.851451 0.743461 0.574912 -0.053432
C50   C     C_R   0.351428 0.756462 0.073816 -0.053469
C51   C     C_R   0.351438 0.243479 0.574568 -0.053447
C52   C     C_R   0.268241 0.681803 0.169276 -0.096428
C53   C     C_R   0.268232 0.318160 0.669569 -0.096460
C54   C     C_R   0.768254 0.181884 0.170260 -0.096471
C55   C     C_R   0.768258 0.818150 0.669933 -0.096446
C56   C     C_R   0.241290 0.658346 0.203429 -0.056260
C57   C     C_3   0.442179 0.886869 0.773746 -0.075103
C58   C     C_R   0.241282 0.341618 0.703706 -0.056297
C59   C     C_R   0.741304 0.158422 0.204369 -0.056331
C60   C     C_R   0.741308 0.841609 0.704062 -0.056271
C61   C     C_R   0.825015 0.232690 0.110018 -0.097735
C62   C     C_R   0.825017 0.767353 0.609539 -0.097722
C63   C     C_R   0.324993 0.732571 0.108445 -0.097744
C64   C     C_R   0.325003 0.267370 0.609189 -0.097730
C65   C     C_3   0.862516 0.546065 0.137710 -0.278326
C66   C     C_3   0.862518 0.453934 0.637698 -0.278312
C67   C     C_3   0.362513 0.046063 0.137703 -0.278349
C68   C     C_3   0.442180 0.113133 0.273758 -0.075129
C69   C     C_3   0.362514 0.953937 0.637727 -0.278380
C70   C     C_3   0.124998 0.495194 0.980205 0.267705
C71   C     C_3   0.124996 0.504808 0.480200 0.267735
C72   C     C_3   0.624996 0.995191 0.980207 0.267719
C73   C     C_3   0.624996 0.004809 0.480210 0.267715
C74   C     C_3   0.154121 0.520188 0.928520 -0.327270
C75   C     C_3   0.154119 0.479815 0.428503 -0.327274
C76   C     C_3   0.654120 0.020183 0.928522 -0.327342
C77   C     C_3   0.654119 0.979816 0.428517 -0.327327
C78   C     C_3   0.004746 0.658496 0.588885 0.308335
C79   C     C_1   0.919395 0.424308 0.979275 0.029962
C80   C     C_3   0.004634 0.341580 0.089166 0.308800
C81   C     C_3   0.504625 0.158417 0.589118 0.308847
C82   C     C_3   0.504644 0.841568 0.089034 0.308763
C83   C     C_R   0.821733 0.356294 0.940174 0.592937
C84   C     C_R   0.821738 0.643693 0.440429 0.592885
C85   C     C_R   0.321762 0.856335 0.941029 0.592887
C86   C     C_R   0.321742 0.143682 0.440570 0.592896
C87   C     C_1   0.835820 0.533663 0.246148 0.384564
C88   C     C_1   0.835824 0.466333 0.746148 0.384605
C89   C     C_1   0.335818 0.033661 0.246144 0.384597
C90   C     C_1   0.919395 0.575692 0.479282 0.030006
C91   C     C_1   0.335818 0.966341 0.746156 0.384522
C92   C     C_1   0.141893 0.461547 0.006324 0.230877
C93   C     C_1   0.141891 0.538455 0.506323 0.230875
C94   C     C_1   0.641890 0.961543 0.006334 0.230864
C95   C     C_1   0.641891 0.038455 0.506349 0.230861
C96   C     C_1   0.971291 0.706639 0.158647 0.281380
C97   C     C_1   0.971284 0.293375 0.658650 0.281402
C98   C     C_1   0.471322 0.206635 0.158619 0.281334
C99   C     C_1   0.471284 0.793358 0.658433 0.281432
C100  C     C_1   0.419403 0.924305 0.979297 0.029941
C101  C     C_3   0.989362 0.308366 0.149211 -0.316713
C102  C     C_1   0.419397 0.075692 0.479280 0.029949
C103  C     C_2   0.893194 0.402415 0.011174 -0.094486
C104  C     C_2   0.893199 0.597589 0.511201 -0.094378
C105  C     C_2   0.393221 0.902400 0.011272 -0.094350
C106  C     C_2   0.393204 0.097591 0.511209 -0.094437
C107  C     C_2   0.886453 0.371251 0.911203 0.220681
C108  C     C_2   0.886456 0.628752 0.411222 0.220584
C109  C     C_2   0.386466 0.871243 0.911257 0.220358
C110  C     C_2   0.386458 0.128752 0.411216 0.220489
C111  C     C_R   0.804140 0.299031 0.021308 -0.080517
C112  C     C_3   0.489344 0.191629 0.649148 -0.316876
C113  C     C_R   0.804143 0.700973 0.521321 -0.080541
C114  C     C_R   0.304152 0.799021 0.021380 -0.080528
C115  C     C_R   0.304140 0.200971 0.521306 -0.080537
C116  C     C_R   0.794271 0.332608 0.976554 -0.034322
C117  C     C_R   0.794275 0.667378 0.476814 -0.034288
C118  C     C_R   0.294301 0.832651 0.977445 -0.034307
C119  C     C_R   0.294279 0.167366 0.476961 -0.034296
C120  C     C_R   0.757145 0.341783 0.968153 -0.055313
C121  C     C_R   0.757150 0.658183 0.468667 -0.055284
C122  C     C_R   0.257194 0.841884 0.969907 -0.055325
C123  C     C_3   0.489330 0.808372 0.149060 -0.316999
C124  C     C_R   0.257159 0.158159 0.468979 -0.055295
C125  C     C_R   0.841521 0.289799 0.030018 -0.032287
C126  C     C_R   0.841523 0.710225 0.529784 -0.032282
C127  C     C_R   0.341516 0.789734 0.029279 -0.032249
C128  C     C_R   0.341516 0.210233 0.529608 -0.032267
C129  C     C_3   0.003052 0.653963 0.083801 0.370395
C130  C     C_3   0.003064 0.346043 0.583784 0.370005
C131  C     C_3   0.503067 0.153949 0.083756 0.370101
C132  C     C_3   0.503055 0.846041 0.583724 0.370177
C133  C     C_2   0.942482 0.419524 0.867103 -0.277915
C134  C     C_R   0.868357 0.314022 0.994161 0.603627
C135  C     C_2   0.942478 0.580472 0.367092 -0.277837
C136  C     C_2   0.442478 0.919530 0.867071 -0.277911
C137  C     C_2   0.442479 0.080472 0.367084 -0.277932
C138  C     C_2   0.063840 0.576543 0.342531 -0.213028
C139  C     C_2   0.063842 0.423458 0.842518 -0.213046
C140  C     C_2   0.563840 0.076544 0.342506 -0.213091
C141  C     C_2   0.563840 0.923456 0.842516 -0.213082
C142  C     C_R   0.211775 0.760453 0.090513 0.020326
C143  C     C_R   0.211759 0.239556 0.590203 0.020315
C144  C     C_R   0.711755 0.260416 0.089825 0.020301
C145  C     C_R   0.868359 0.686001 0.493936 0.603567
C146  C     C_R   0.711756 0.739569 0.590044 0.020322
C147  C     C_R   0.259628 0.716291 0.133252 0.020609
C148  C     C_R   0.259621 0.283683 0.633428 0.020592
C149  C     C_R   0.759632 0.216340 0.133797 0.020582
C150  C     C_R   0.759635 0.783680 0.633622 0.020600
C151  C     C_R   0.222140 0.726346 0.129883 0.050551
C152  C     C_R   0.222128 0.273645 0.629821 0.050591
C153  C     C_R   0.722132 0.226352 0.129815 0.050631
C154  C     C_R   0.722134 0.773650 0.629840 0.050570
C155  C     C_R   0.174141 0.769191 0.092036 -0.099598
C156  C     C_R   0.368354 0.813958 0.993457 0.603451
C157  C     C_R   0.174126 0.230829 0.591629 -0.099623
C158  C     C_R   0.674116 0.269122 0.090926 -0.099645
C159  C     C_R   0.674115 0.730848 0.591293 -0.099611
C160  C     C_R   0.147765 0.745368 0.128385 -0.060115
C161  C     C_R   0.147751 0.254650 0.628020 -0.060165
C162  C     C_R   0.647742 0.245301 0.127337 -0.060194
C163  C     C_R   0.647740 0.754669 0.627690 -0.060134
C164  C     C_R   0.157499 0.711645 0.165414 -0.025754
C165  C     C_R   0.157485 0.288359 0.665203 -0.025785
C166  C     C_R   0.657484 0.211614 0.164860 -0.025798
C167  C     C_R   0.368353 0.186010 0.493775 0.603518
C168  C     C_R   0.657483 0.788372 0.665048 -0.025777
C169  C     C_R   0.194682 0.702000 0.166254 -0.079536
C170  C     C_R   0.194670 0.297992 0.666203 -0.079498
C171  C     C_R   0.694676 0.202004 0.166196 -0.079471
C172  C     C_R   0.694677 0.797997 0.666221 -0.079516
C173  C     C_R   0.204377 0.667985 0.203167 -0.038260
C174  C     C_R   0.204367 0.331992 0.703291 -0.038282
C175  C     C_R   0.704381 0.168024 0.203616 -0.038324
C176  C     C_R   0.704383 0.831991 0.703476 -0.038277
C177  C     C_3   0.004715 0.692780 0.096250 -0.268658
C178  C     C_2   0.908424 0.365158 0.791875 -0.082339
C179  C     C_3   0.004724 0.307224 0.596346 -0.268588
C180  C     C_3   0.504747 0.192766 0.096253 -0.268541
C181  C     C_3   0.504721 0.807223 0.596172 -0.268605
C182  C     C_R   0.176957 0.644235 0.239049 0.601651
C183  C     C_R   0.176948 0.355742 0.739172 0.601657
C184  C     C_R   0.676963 0.144272 0.239482 0.601663
C185  C     C_R   0.676964 0.855742 0.739349 0.601632
C186  C     C_R   0.130678 0.687379 0.201379 0.586052
C187  C     C_R   0.130664 0.312625 0.701180 0.586114
C188  C     C_R   0.630665 0.187348 0.200858 0.586164
H1    H     H_    0.981423 0.640948 0.557165 0.025779
H2    H     H_    0.849332 0.452987 0.515229 0.118805
H3    H     H_    0.465720 0.063632 0.355766 0.079112
H4    H     H_    0.051440 0.554205 0.392690 0.063203
H5    H     H_    0.051455 0.445799 0.892711 0.063185
H6    H     H_    0.551439 0.054207 0.392669 0.063204
H7    H     H_    0.551435 0.945794 0.892672 0.063214
H8    H     H_    0.028135 0.644719 0.030221 0.081904
H9    H     H_    0.028146 0.355276 0.530151 0.082014
H10   H     H_    0.528142 0.144700 0.030132 0.082073
H11   H     H_    0.528135 0.855286 0.530127 0.082030
H12   H     H_    0.003966 0.643833 0.206984 -0.131884
H13   H     H_    0.349328 0.047010 0.015232 0.118800
H14   H     H_    0.003988 0.356190 0.706936 -0.131454
H15   H     H_    0.503987 0.143814 0.206927 -0.131505
H16   H     H_    0.503973 0.856171 0.706905 -0.131570
H17   H     H_    0.008414 0.704210 0.978755 0.093259
H18   H     H_    0.008450 0.295779 0.478908 0.093247
H19   H     H_    0.508465 0.204200 0.978777 0.093318
H20   H     H_    0.508449 0.795793 0.478700 0.093298
H21   H     H_    0.907769 0.520141 0.266466 -0.009793
H22   H     H_    0.907772 0.479855 0.766454 -0.009786
H23   H     H_    0.407767 0.020141 0.266460 -0.009776
H24   H     H_    0.349331 0.952986 0.515254 0.118801
H25   H     H_    0.407767 0.979862 0.766477 -0.009765
H26   H     H_    0.917046 0.535141 0.071340 0.079549
H27   H     H_    0.917046 0.464859 0.571320 0.079570
H28   H     H_    0.417043 0.035140 0.071333 0.079548
H29   H     H_    0.417045 0.964859 0.571359 0.079549
H30   H     H_    0.102095 0.491872 0.890206 0.066289
H31   H     H_    0.102092 0.508131 0.390209 0.066280
H32   H     H_    0.602094 0.991869 0.890210 0.066292
H33   H     H_    0.602093 0.008133 0.390213 0.066281
H34   H     H_    0.141412 0.544906 0.892323 0.136260
H35   H     H_    0.141409 0.455098 0.392293 0.136272
H36   H     H_    0.641411 0.044900 0.892315 0.136259
H37   H     H_    0.981258 0.359143 0.058337 0.026396
H38   H     H_    0.641409 0.955099 0.392302 0.136262
H39   H     H_    0.168049 0.509851 0.826203 0.100314
H40   H     H_    0.168047 0.490155 0.326191 0.100328
H41   H     H_    0.668049 0.009844 0.826208 0.100338
H42   H     H_    0.668048 0.990155 0.326211 0.100322
H43   H     H_    0.175162 0.524861 0.027780 0.108590
H44   H     H_    0.175160 0.475139 0.527760 0.108554
H45   H     H_    0.675161 0.024857 0.027780 0.108513
H46   H     H_    0.675159 0.975139 0.527778 0.108539
H47   H     H_    0.019143 0.664895 0.481339 -0.026522
H48   H     H_    0.481253 0.140850 0.558283 0.026316
H49   H     H_    0.018883 0.335277 0.981054 -0.027226
H50   H     H_    0.518876 0.164721 0.481010 -0.027254
H51   H     H_    0.518929 0.835245 0.981078 -0.027032
H52   H     H_    0.973300 0.704788 0.550710 0.132822
H53   H     H_    0.973272 0.295242 0.050873 0.132890
H54   H     H_    0.473255 0.204749 0.550797 0.132981
H55   H     H_    0.473249 0.795252 0.050686 0.132972
H56   H     H_    0.970921 0.686463 0.744955 0.161352
H57   H     H_    0.970979 0.313456 0.245391 0.161137
H58   H     H_    0.470960 0.186537 0.745321 0.161037
H59   H     H_    0.481290 0.859132 0.057998 0.026133
H60   H     H_    0.470932 0.813484 0.245151 0.161014
H61   H     H_    0.028461 0.700224 0.177953 0.116216
H62   H     H_    0.028454 0.299789 0.678159 0.116255
H63   H     H_    0.528490 0.200194 0.178016 0.116304
H64   H     H_    0.528452 0.799783 0.677968 0.116233
H65   H     H_    0.876567 0.406785 0.110747 0.103249
H66   H     H_    0.876576 0.593222 0.610795 0.103317
H67   H     H_    0.376621 0.906753 0.110949 0.103541
H68   H     H_    0.376586 0.093227 0.610822 0.103393
H69   H     H_    0.748609 0.367310 0.933251 0.127174
H70   H     H_    0.870844 0.572289 0.173173 0.047801
H71   H     H_    0.748616 0.632639 0.433970 0.127171
H72   H     H_    0.248675 0.867458 0.935717 0.127204
H73   H     H_    0.248629 0.132607 0.434412 0.127176
H74   H     H_    0.093660 0.657454 0.467305 0.090137
H75   H     H_    0.093626 0.342529 0.967191 0.090158
H76   H     H_    0.593619 0.157482 0.467115 0.090007
H77   H     H_    0.593625 0.842523 0.967159 0.090062
H78   H     H_    0.119410 0.753630 0.127435 0.119338
H79   H     H_    0.119397 0.246397 0.626987 0.119352
H80   H     H_    0.619383 0.253537 0.126047 0.119349
H81   H     H_    0.870847 0.427709 0.673150 0.047879
H82   H     H_    0.619379 0.746421 0.626518 0.119334
H83   H     H_    0.163861 0.794454 0.066822 0.070168
H84   H     H_    0.163848 0.205574 0.566359 0.070204
H85   H     H_    0.663835 0.294361 0.065394 0.070220
H86   H     H_    0.663830 0.705598 0.565872 0.070186
H87   H     H_    0.702516 0.327930 0.992407 0.071113
H88   H     H_    0.702523 0.672017 0.493153 0.071102
H89   H     H_    0.202582 0.828087 0.994944 0.071118
H90   H     H_    0.202534 0.171981 0.493592 0.071105
H91   H     H_    0.904163 0.342582 0.718778 0.107413
H92   H     H_    0.370841 0.072288 0.173165 0.047801
H93   H     H_    0.904160 0.657412 0.218748 0.107437
H94   H     H_    0.404150 0.842601 0.718679 0.107603
H95   H     H_    0.404157 0.157408 0.218718 0.107495
H96   H     H_    0.880008 0.248785 0.084466 0.123064
H97   H     H_    0.880009 0.751274 0.583768 0.123076
H98   H     H_    0.379974 0.748617 0.082186 0.123126
H99   H     H_    0.379993 0.251301 0.583294 0.123093
H100  H     H_    0.295675 0.671721 0.170887 0.070465
H101  H     H_    0.295665 0.328234 0.671235 0.070500
H102  H     H_    0.795694 0.171830 0.172194 0.070515
H103  H     H_    0.370843 0.927713 0.673205 0.047719
H104  H     H_    0.795699 0.828216 0.671743 0.070485
H105  H     H_    0.012111 0.708677 0.693440 0.104113
H106  H     H_    0.012181 0.291351 0.193127 0.104262
H107  H     H_    0.512158 0.208648 0.693066 0.104294
H108  H     H_    0.512126 0.791345 0.193079 0.104303
H109  H     H_    0.249637 0.632349 0.230218 0.123573
H110  H     H_    0.249630 0.367606 0.730602 0.123589
H111  H     H_    0.749658 0.132450 0.231516 0.123605
H112  H     H_    0.749663 0.867593 0.731088 0.123579
H113  H     H_    0.123205 0.593682 0.075921 0.090908
H114  H     H_    0.849332 0.547013 0.015237 0.118807
H115  H     H_    0.123219 0.406322 0.575968 0.090855
H116  H     H_    0.623251 0.093659 0.076079 0.090714
H117  H     H_    0.623243 0.906337 0.576048 0.090770
H118  H     H_    0.835536 0.208029 0.145385 0.070704
H119  H     H_    0.835538 0.792031 0.644685 0.070685
H120  H     H_    0.335501 0.707860 0.143035 0.070684
H121  H     H_    0.335523 0.292056 0.644206 0.070686
H122  H     H_    0.965726 0.436362 0.855798 0.079109
H123  H     H_    0.965721 0.563634 0.355781 0.079075
H124  H     H_    0.465718 0.936371 0.855741 0.079105
N1    N     N_R   0.858312 0.346787 0.948289 -0.427090
N2    N     N_1   0.814805 0.476100 0.831794 -0.243173
N3    N     N_1   0.314799 0.023892 0.331784 -0.243119
N4    N     N_1   0.314798 0.976112 0.831786 -0.243073
N5    N     N_1   0.155186 0.435010 0.027439 -0.250960
N6    N     N_1   0.155183 0.564994 0.527440 -0.251041
N7    N     N_1   0.655181 0.935005 0.027458 -0.250904
N8    N     N_1   0.655184 0.064992 0.527487 -0.250846
N9    N     N_1   0.944989 0.717699 0.207720 -0.262677
N10   N     N_1   0.944969 0.282323 0.707648 -0.262827
N11   N     N_1   0.445020 0.217703 0.207676 -0.262595
N12   N     N_R   0.858316 0.653218 0.448304 -0.427115
N13   N     N_1   0.444971 0.782294 0.707402 -0.262424
N14   N     N_R   0.358325 0.846777 0.948345 -0.427080
N15   N     N_R   0.358316 0.153217 0.448292 -0.427098
N16   N     N_R   0.140526 0.654084 0.238694 -0.426470
N17   N     N_R   0.140513 0.345906 0.738656 -0.426447
N18   N     N_R   0.640523 0.154088 0.238661 -0.426443
N19   N     N_R   0.640522 0.845912 0.738675 -0.426481
N20   N     N_1   0.814801 0.523894 0.331785 -0.243146
O1    O     O_2   0.072110 0.546320 0.923350 -0.458957
O2    O     O_3   0.971816 0.356152 0.486292 -0.580626
O3    O     O_3   0.471812 0.143848 0.986291 -0.580682
O4    O     O_3   0.471806 0.856154 0.486248 -0.580677
O5    O     O_3   0.958050 0.483830 0.034350 -0.494069
O6    O     O_3   0.958050 0.516170 0.534350 -0.494084
O7    O     O_3   0.458050 0.983830 0.034350 -0.494079
O8    O     O_3   0.458050 0.016170 0.534350 -0.494069
O9    O     O_2   0.813039 0.385276 0.899988 -0.592005
O10   O     O_2   0.813045 0.614695 0.400449 -0.591990
O11   O     O_2   0.313080 0.885362 0.901515 -0.591998
O12   O     O_2   0.072110 0.453680 0.423350 -0.458948
O13   O     O_2   0.313053 0.114676 0.400718 -0.591992
O14   O     O_2   0.098429 0.695842 0.197722 -0.625548
O15   O     O_2   0.098413 0.304174 0.697391 -0.625557
O16   O     O_2   0.598410 0.195778 0.196794 -0.625592
O17   O     O_2   0.598406 0.804194 0.697098 -0.625533
O18   O     O_2   0.900788 0.306020 0.005241 -0.603329
O19   O     O_2   0.900790 0.694020 0.504820 -0.603243
O20   O     O_2   0.400775 0.805907 0.003913 -0.603264
O21   O     O_2   0.400781 0.194039 0.504541 -0.603284
O22   O     O_2   0.185604 0.614851 0.272056 -0.581750
O23   O     O_2   0.572110 0.046320 0.923350 -0.458938
O24   O     O_2   0.185596 0.385116 0.772321 -0.581725
O25   O     O_2   0.685617 0.114915 0.272882 -0.581659
O26   O     O_2   0.685618 0.885110 0.772630 -0.581663
O27   O     O_3   0.042000 0.516250 0.155330 -0.461635
O28   O     O_3   0.042000 0.483750 0.655330 -0.461635
O29   O     O_3   0.542000 0.016250 0.155330 -0.461622
O30   O     O_3   0.542000 0.983750 0.655330 -0.461624
O31   O     O_3   0.012540 0.574900 0.645500 -0.461671
O32   O     O_3   0.012540 0.425100 0.145500 -0.461830
O33   O     O_3   0.512540 0.074900 0.645500 -0.461839
O34   O     O_2   0.572110 0.953680 0.423350 -0.458946
O35   O     O_3   0.512540 0.925100 0.145500 -0.461796
O36   O     O_2   0.080009 0.596380 0.738953 -0.463487
O37   O     O_2   0.080021 0.403635 0.238874 -0.463437
O38   O     O_2   0.580017 0.096372 0.738885 -0.463401
O39   O     O_2   0.580012 0.903618 0.238916 -0.463430
O40   O     O_3   0.111752 0.505759 0.122976 -0.663410
O41   O     O_3   0.111752 0.494241 0.622974 -0.663421
O42   O     O_3   0.611750 0.005757 0.122977 -0.663415
O43   O     O_3   0.611750 0.994242 0.622978 -0.663414
O44   O     O_3   0.029266 0.643911 0.706190 -0.579090
O45   O     O_3   0.886181 0.508877 0.578742 -0.629406
O46   O     O_3   0.029293 0.356089 0.206194 -0.579201
O47   O     O_3   0.529285 0.143913 0.706164 -0.579171
O48   O     O_3   0.529270 0.856085 0.206142 -0.579152
O49   O     O_2   0.928110 0.546600 0.766510 -0.454349
O50   O     O_2   0.928110 0.453400 0.266510 -0.454368
O51   O     O_2   0.428110 0.046600 0.766510 -0.454376
O52   O     O_2   0.428110 0.953400 0.266510 -0.454370
O53   O     O_3   0.987780 0.574950 0.044470 -0.474332
O54   O     O_3   0.987780 0.425050 0.544470 -0.474338
O55   O     O_3   0.487780 0.074950 0.044470 -0.474345
O56   O     O_3   0.886180 0.491123 0.078739 -0.629410
O57   O     O_3   0.487780 0.925050 0.544470 -0.474329
O58   O     O_2   0.920355 0.597463 0.950790 -0.482878
O59   O     O_2   0.920357 0.402534 0.450789 -0.482851
O60   O     O_2   0.420356 0.097464 0.950781 -0.482894
O61   O     O_2   0.420354 0.902543 0.450786 -0.482938
O62   O     O_3   0.386180 0.008878 0.578737 -0.629398
O63   O     O_3   0.386179 0.991121 0.078734 -0.629368
O64   O     O_3   0.971808 0.643849 0.986297 -0.580573
P1    P     P_3+3 0.075650 0.535480 0.098240 0.983252
P2    P     P_3+3 0.954268 0.393603 0.563633 0.969402
P3    P     P_3+3 0.454266 0.106395 0.063624 0.969348
P4    P     P_3+3 0.454265 0.893606 0.563613 0.969325
P5    P     P_3+3 0.046178 0.393753 0.127604 0.990378
P6    P     P_3+3 0.046173 0.606252 0.627625 0.990452
P7    P     P_3+3 0.546172 0.893748 0.127599 0.990409
P8    P     P_3+3 0.546176 0.106249 0.627594 0.990404
P9    P     P_3+3 0.075650 0.464520 0.598240 0.983241
P10   P     P_3+3 0.575650 0.035480 0.098240 0.983244
P11   P     P_3+3 0.575650 0.964520 0.598240 0.983250
P12   P     P_3+3 0.924520 0.535770 0.591580 0.996359
P13   P     P_3+3 0.924520 0.464230 0.091580 0.996329
P14   P     P_3+3 0.424520 0.035770 0.591580 0.996339
P15   P     P_3+3 0.424520 0.964230 0.091580 0.996359
P16   P     P_3+3 0.954266 0.606395 0.063631 0.969442

loop_
_geom_bond_atom_site_label_1
_geom_bond_atom_site_label_2
_ccdc_geom_bond_type
C74   H34   S    
O59   P2    D    
C73   O43   S    
C143  C152  A    
O36   P6    D    
C51   H99   S    
C37   C63   A    
C72   H32   S    
C146  C159  A    
C40   H22   S    
C67   H92   S    
C75   H44   S    
C150  C154  A    
O27   P1    S    
C72   C94   S    
C53   C148  A    
C164  C186  A    
C77   H46   S    
C180  H63   S    
C33   C38   A    
C5    C9    S    
C114  C127  A    
C29   C143  A    
C13   C57   S    
C44   C121  A    
C7    C11   S    
C95   N8    T    
C108  N12   S    
C24   H95   S    
C148  C152  A    
C124  H73   S    
C40   C66   S    
Ba4   O8    S    
C147  C151  A    
C68   P3    S    
C146  C154  A    
O45   P12   S    
C104  C108  S    
O40   P1    S    
C66   H81   S    
C3    C168  A    
Ba1   O31   S    
O39   P7    D    
C90   C135  D    
O42   P10   S    
C184  N18   Am   
C19   H116  S    
C164  C169  A    
O5    P13   S    
C183  O24   D    
Ba2   O50   S    
C43   H87   S    
C5    C22   D    
Ba3   O55   S    
C44   H88   S    
C161  C165  A    
C145  O19   D    
C10   C140  S    
C160  C164  A    
C90   P12   S    
C86   N15   Am   
C10   P8    S    
C41   O63   S    
C15   P10   S    
C175  C184  A    
C74   H39   S    
C107  C178  D    
C173  C182  A    
C100  C136  D    
C105  H67   S    
C15   C19   D    
C106  H68   S    
C16   P11   S    
C70   C92   S    
C85   N14   Am   
C42   O62   S    
C52   C147  A    
C96   C177  S    
C49   H97   S    
C163  C168  A    
C37   C147  A    
O56   P13   S    
Ba4   O34   S    
C88   N2    T    
O1    P1    D    
C27   C44   A    
C89   N3    T    
C167  N15   Am   
Ba4   P15   S    
C69   C91   S    
O31   P6    S    
Ba2   O27   S    
C82   H59   S    
C81   C112  S    
Ba2   O6    S    
C141  H7    S    
C67   C89   S    
C115  C119  A    
C144  C158  A    
C31   C36   A    
C162  H80   S    
C1    C78   S    
C54   H102  S    
C81   H50   S    
C41   H23   S    
Ba1   O5    S    
C22   N17   S    
Ba3   O7    S    
C67   H13   S    
C51   C128  A    
Ba3   O33   S    
O32   P5    S    
C71   C75   S    
C157  C161  A    
C48   C61   A    
C6    C23   D    
C12   C17   D    
C41   C67   S    
C86   C119  A    
C12   C138  D    
C25   N19   S    
C181  H64   S    
C13   C109  D    
Ba2   O12   S    
C45   C122  A    
C5    H75   S    
C14   P9    S    
C6    H76   S    
C185  N19   Am   
C47   C124  A    
C28   C32   A    
C14   C139  D    
C84   O10   D    
Ba2   P9    S    
C176  C185  A    
C81   O47   S    
C85   C118  A    
C114  C118  A    
C78   H1    S    
C1    H105  S    
Ba4   O35   S    
O61   P4    D    
C71   O41   S    
O28   P9    S    
C131  O3    S    
C99   N13   T    
C69   H24   S    
O8    P14   S    
C65   H114  S    
O64   P16   S    
C106  C110  S    
C123  H108  S    
C182  N16   Am   
C39   C65   S    
C78   H47   S    
C155  H83   S    
O62   P14   S    
C35   P2    S    
C158  H85   S    
C107  N1    S    
C156  N14   Am   
O54   P2    S    
C26   C30   A    
Ba1   O28   S    
C187  O15   D    
C2    H93   S    
C6    C10   S    
C30   C111  A    
C76   H45   S    
C117  C121  A    
C113  C126  A    
C8    P6    S    
O47   P8    S    
O48   P7    S    
C33   C115  A    
C34   C61   A    
C4    C8    S    
C186  N16   Am   
C96   N9    T    
C98   N11   T    
C2    C46   S    
C101  H53   S    
Ba2   O54   S    
Ba3   O51   S    
C129  C177  S    
C112  H54   S    
C94   N7    T    
C162  C166  A    
Ba1   O49   S    
C187  N17   Am   
C135  H123  S    
C39   H26   S    
C101  H106  S    
C165  C187  A    
C1    H56   S    
Ba3   Ba4   S    
C188  O16   D    
C130  H9    S    
C131  H15   S    
C17   C21   S    
C97   N10   T    
C14   C18   D    
C103  C107  S    
C156  O20   D    
C93   N6    T    
C48   H96   S    
O49   P12   D    
C57   C136  S    
C103  H65   S    
C81   H48   S    
C87   N20   T    
C109  N14   S    
C13   H94   S    
C120  H69   S    
C45   H89   S    
O7    P15   S    
C64   H121  S    
C73   C95   S    
C144  C153  A    
C186  O14   D    
C80   O46   S    
C28   C45   A    
C35   C178  S    
C82   O48   S    
C172  C176  A    
O35   P7    S    
C42   H25   S    
C41   H28   S    
C155  C160  A    
C34   C149  A    
C46   P16   S    
C102  P14   S    
C188  N18   Am   
C42   C69   S    
C168  C172  A    
C73   H33   S    
C15   C140  D    
O57   P4    S    
C84   N12   Am   
C51   C64   A    
C179  H18   S    
C152  C170  A    
C180  H19   S    
C48   C125  A    
C111  C125  A    
O46   P5    S    
C130  H14   S    
C28   C142  A    
C63   H120  S    
C71   C93   S    
C123  H60   S    
C137  H3    S    
Ba3   O23   S    
O6    P12   S    
C20   C25   S    
C18   C22   S    
C158  C162  A    
C142  C151  A    
C112  H107  S    
C82   H51   S    
C99   C181  S    
C47   H90   S    
C80   H49   S    
C32   C114  A    
C170  C174  A    
C97   C179  S    
C21   N16   S    
C72   O42   S    
O4    P4    S    
C9    P5    S    
C36   C62   A    
C4    C21   D    
C7    H77   S    
C32   C37   A    
C24   C68   S    
C91   N4    T    
Ba2   P13   S    
C139  H5    S    
C163  H82   S    
C55   C150  A    
C166  C171  A    
C68   C137  S    
C58   H110  S    
C72   C76   S    
C4    H74   S    
C133  H122  S    
C143  C157  A    
C178  H91   S    
C134  O18   D    
C46   C135  S    
C29   C33   A    
C52   C56   A    
C18   H115  S    
O51   P14   D    
C56   H109  S    
Ba3   P14   S    
C52   H100  S    
Ba1   P1    S    
C73   C77   S    
C66   H2    S    
C121  H71   S    
C11   P7    S    
C122  H72   S    
Ba4   O7    S    
C76   H36   S    
C80   H37   S    
C177  H61   S    
C174  C183  A    
C57   P4    S    
O55   P3    S    
C77   H38   S    
C27   C31   A    
C123  H55   S    
Ba3   O30   S    
C79   C133  D    
C102  C137  D    
C132  H16   S    
C27   C146  A    
C160  H78   S    
C161  H79   S    
C82   C123  S    
C2    C108  D    
C76   H41   S    
C66   C88   S    
C84   C117  A    
C26   C144  A    
C65   H70   S    
C29   C47   A    
C70   H30   S    
O53   P16   S    
C56   C173  A    
C101  H57   S    
C50   H98   S    
C43   C120  A    
C112  H58   S    
Ba1   O53   S    
C78   O44   S    
C8    C138  S    
C9    C139  S    
C1    H52   S    
C149  C153  A    
C75   H40   S    
C142  C155  A    
O58   P16   D    
C70   C74   S    
C16   C141  D    
O37   P5    D    
C132  O4    S    
Ba3   P10   S    
C12   P1    S    
Ba1   P12   S    
C35   C133  S    
C59   H111  S    
C185  O26   D    
C132  C181  S    
C60   H112  S    
C104  H66   S    
C79   P13   S    
C179  H62   S    
C130  C179  S    
C53   C58   A    
O43   P11   S    
C50   C127  A    
C90   C104  D    
C55   C60   A    
C42   H29   S    
O41   P9    S    
O50   P13   D    
C182  O22   D    
C3    N19   Am   
C54   C149  A    
C61   H118  S    
C83   O9    D    
C100  C105  D    
C60   C176  A    
C100  P15   S    
C136  H124  S    
C166  C188  A    
C59   C175  A    
C86   O13   D    
C177  H17   S    
Ba1   Ba2   S    
Ba1   O6    S    
C113  C117  A    
C110  N15   S    
C129  O64   S    
O30   P11   S    
C3    O17   D    
Ba3   O8    S    
C125  C134  A    
C16   C20   D    
C74   H43   S    
O12   P9    D    
C130  O2    S    
C128  C167  A    
C19   C23   S    
C38   C148  A    
C83   N1    Am   
C40   O45   S    
C183  N17   Am   
C129  H12   S    
C71   H31   S    
C38   C64   A    
O33   P8    S    
C36   C150  A    
C40   H27   S    
C131  C180  S    
O60   P3    D    
C75   H35   S    
O2    P2    S    
C80   C101  S    
C131  H10   S    
C39   O56   S    
O52   P15   D    
C184  O25   D    
C26   C43   A    
Ba4   P11   S    
C11   C141  S    
C171  C175  A    
C50   C63   A    
C118  C122  A    
C165  C170  A    
C159  C163  A    
Ba4   O29   S    
O29   P10   S    
C157  H84   S    
O23   P10   D    
C169  C173  A    
C23   N18   S    
C126  C145  A    
C17   H113  S    
C115  C128  A    
C181  H20   S    
C140  H6    S    
Ba4   O52   S    
O38   P8    D    
C49   C62   A    
Ba2   O32   S    
C24   C110  D    
C153  C171  A    
C154  C172  A    
C129  H8    S    
O3    P3    S    
C31   C113  A    
C145  N12   Am   
Ba1   O1    S    
C39   H21   S    
O34   P11   D    
C70   O40   S    
Ba2   O5    S    
C102  C106  D    
C54   C59   A    
O44   P6    S    
Ba4   O57   S    
C30   C34   A    
C58   C174  A    
C62   H119  S    
C167  O21   D    
O63   P15   S    
C159  H86   S    
C105  C109  S    
C85   O11   D    
C69   H103  S    
C98   C180  S    
C83   C116  A    
C65   C87   S    
C151  C169  A    
C119  C124  A    
C92   N5    T    
C79   C103  D    
C132  H11   S    
C127  C156  A    
C134  N1    Am   
C53   H101  S    
C77   H42   S    
C7    C25   D    
C111  C116  A    
C138  H4    S    
C55   H104  S    
C49   C126  A    
C20   H117  S    
C116  C120  A    
