data_mof_unit_50057.cif
_audit_creation_date              2013-03-05T15:40:17-0500
_audit_creation_method            fapswitch 2.2
_symmetry_space_group_name_H-M    P1
_symmetry_Int_Tables_number       1
_space_group_crystal_system       triclinic
_cell_length_a                    10.836584
_cell_length_b                    8.660908
_cell_length_c                    7.524561
_cell_angle_alpha                 103.288044
_cell_angle_beta                  95.130783
_cell_angle_gamma                 92.246316
_cell_volume                      683.251793425

loop_
_atom_site_label
_atom_site_type_symbol
_atom_site_description
_atom_site_fract_x
_atom_site_fract_y
_atom_site_fract_z
_atom_type_partial_charge
O1    O     O_R   0.509050 0.286130 0.619770 -0.574545
O2    O     O_R   0.485540 0.256780 0.308360 -0.612834
C1    C     C_R   0.502581 0.200391 0.453677 0.886996
O3    O     O_R   0.331410 0.514680 0.655740 -0.577462
O4    O     O_R   0.307900 0.485330 0.344330 -0.550728
C2    C     C_R   0.263845 0.515068 0.503520 0.877583
Cu1   Cu    Cu3+1 0.513920 0.517380 0.684380 1.019011
Cu2   Cu    Cu3+1 0.486080 0.482620 0.315620 0.990669
O5    O     O_R   0.514460 0.743220 0.691640 -0.581072
O6    O     O_R   0.490950 0.713870 0.380230 -0.604961
O7    O     O_R   0.692100 0.514670 0.655670 -0.534210
O8    O     O_R   0.668590 0.485320 0.344260 -0.616835
C3    C     C_R   0.518871 0.798862 0.545764 0.836466
C4    C     C_R   0.737208 0.503164 0.499557 0.745738
H1    H     H_    0.100413 0.334119 0.270010 0.194616
C5    C     C_R   0.140935 0.777616 0.763461 0.370433
C6    C     C_R   0.083818 0.872149 0.904942 -0.109798
H2    H     H_    0.136042 0.969100 0.003219 0.175442
C7    C     C_R   0.957035 0.856019 0.908101 -0.137634
H3    H     H_    0.911831 0.934942 0.012081 0.180027
C8    C     C_R   0.886721 0.747848 0.768229 -0.105155
H4    H     H_    0.787998 0.758438 0.765578 0.140417
C9    C     C_R   0.943248 0.634931 0.636680 0.056835
C10   C     C_R   0.074318 0.646421 0.637042 0.033662
C11   C     C_R   0.130196 0.531489 0.505430 -0.107534
C12   C     C_R   0.056668 0.420387 0.369628 -0.159416
C13   C     C_R   0.928622 0.410947 0.364752 -0.003582
C14   C     C_R   0.871495 0.515937 0.500736 -0.118042
C15   C     C_2   0.504584 0.031991 0.431011 -0.353764
H5    H     H_    0.456305 0.960557 0.304022 0.169308
C16   C     C_2   0.547758 0.966070 0.567908 -0.166446
N1    N     N_2   0.465100 0.456430 0.038520 -0.213475
N2    N     N_2   0.534900 0.543570 0.961480 -0.202235
C17   C     C_2   0.642699 0.626397 0.064678 0.702377
H6    H     H_    0.636355 0.734638 0.168044 -0.017638
O9    O     O_2   0.744904 0.580005 0.031798 -0.536122
Cl1   Cl    Cl    0.279436 0.864296 0.723337 -0.687417
C18   C     C_2   0.857625 0.283951 0.221061 0.445629
H7    H     H_    0.769696 0.232336 0.245336 0.061688
O10   O     O_2   0.896918 0.236209 0.072363 -0.511130
C19   C     C_2   0.630807 0.049861 0.733730 0.390202
H8    H     H_    0.628073 0.012459 0.861539 0.069665
O11   O     O_2   0.708333 0.153664 0.725866 -0.481626
C20   C     C_2   0.357432 0.372805 0.935365 0.719299
H9    H     H_    0.364165 0.267518 0.828057 0.043743
O12   O     O_2   0.254823 0.414429 0.973120 -0.546143

loop_
_geom_bond_atom_site_label_1
_geom_bond_atom_site_label_2
_geom_bond_distance
_ccdc_geom_bond_type
O1    C1    1.293021 A    
O4    Cu2   1.962466 S    
Cu1   O7    1.962467 S    
C9    C10   1.419652 A    
C15   H5    1.087652 S    
C19   O11   1.221344 D    
C19   H8    1.085469 S    
C7    H3    1.080885 S    
C5    Cl1   1.733289 S    
Cu2   O8    1.968870 S    
N1    N2    1.308646 D    
C6    H2    1.083815 S    
N1    C20   1.414817 S    
Cu1   Cu2   2.709257 S    
C5    C10   1.425870 A    
O1    Cu1   1.946795 S    
C9    C14   1.422464 A    
C10   C11   1.428144 A    
C18   O10   1.220866 D    
Cu1   N2    2.035769 S    
C12   C13   1.383478 A    
O4    C2    1.303518 A    
O3    Cu1   1.968869 S    
C15   C16   1.345753 D    
C6    C7    1.378401 A    
O8    C4    1.301865 A    
O2    C1    1.297958 A    
C17   O9    1.219639 D    
C8    C9    1.421921 A    
C18   H7    1.084621 S    
O7    C4    1.296712 A    
C2    C11   1.461823 S    
C13   C18   1.486244 S    
Cu2   N1    2.035769 S    
Cu1   O5    1.943913 S    
N2    C17   1.413577 S    
C20   H9    1.079868 S    
O3    C2    1.303833 A    
C17   H6    1.080719 S    
C13   C14   1.409531 A    
C1    C15   1.430225 S    
O5    C3    1.300043 A    
H1    C12   1.085682 S    
C16   C19   1.491698 S    
C4    C14   1.454157 S    
C11   C12   1.395437 A    
C8    H4    1.076125 S    
C3    C16   1.437762 S    
Cu2   O6    1.946793 S    
O2    Cu2   1.943914 S    
C20   O12   1.219792 D    
C5    C6    1.394158 A    
C7    C8    1.383233 A    
O6    C3    1.295572 A    
