data_mof_unit_32924.cif
_audit_creation_date              2012-10-26T21:24:46-0400
_audit_creation_method            fapswitch 2.2
_symmetry_space_group_name_H-M    P1
_symmetry_Int_Tables_number       1
_space_group_crystal_system       triclinic
_cell_length_a                    9.542553
_cell_length_b                    10.813143
_cell_length_c                    15.446265
_cell_angle_alpha                 90.053547
_cell_angle_beta                  74.505263
_cell_angle_gamma                 89.946875
_cell_volume                      1535.89339487

loop_
_atom_site_label
_atom_site_type_symbol
_atom_type_description
_atom_site_fract_x
_atom_site_fract_y
_atom_site_fract_z
_atom_type_partial_charge
C1    C     C_R   0.000868 0.262285 0.498043 0.549818
C2    C     C_R   0.232419 0.574955 0.047436 0.045828
C3    C     C_R   0.329722 0.527156 0.094214 0.024577
C4    C     C_R   0.918342 0.500114 0.672286 0.542848
C5    C     C_R   0.085444 0.593827 0.092119 -0.148835
C6    C     C_R   0.033702 0.566266 0.183066 -0.143841
C7    C     C_R   0.272234 0.491905 0.184277 -0.150231
C8    C     C_R   0.131263 0.063394 0.487301 0.013732
C9    C     C_R   0.004948 0.129189 0.488325 0.005698
C10   C     C_R   0.884012 0.064491 0.475831 -0.164962
C11   C     C_R   0.883989 0.935543 0.475771 -0.170181
C12   C     C_R   0.677280 0.518238 0.909511 0.031936
C13   C     C_R   0.004771 0.870679 0.488410 0.004059
C14   C     C_R   0.131010 0.936208 0.487584 0.043084
C15   C     C_3   0.227216 0.929592 0.549472 -0.252733
C16   C     C_R   0.000775 0.737674 0.498022 0.554189
C17   C     C_3   0.227692 0.070050 0.549085 -0.280619
C18   C     C_R   0.590341 0.595070 0.461338 0.122445
C19   C     C_R   0.554589 0.413235 0.546090 -0.019718
C20   C     C_R   0.405641 0.413333 0.546198 -0.033578
C21   C     C_R   0.442998 0.594878 0.461155 0.215449
C22   C     C_3   0.478671 0.632940 0.365065 0.124482
C23   C     C_R   0.778343 0.487343 0.958704 0.049299
C24   C     C_3   0.637895 0.633828 0.365408 -0.252275
C25   C     C_R   0.081731 0.501879 0.327779 0.545929
C26   C     C_R   0.873629 0.500092 0.770970 -0.004105
C27   C     C_R   0.127369 0.516243 0.229784 -0.003063
C28   C     C_R   0.925479 0.468102 0.914216 -0.144030
C29   C     C_R   0.973164 0.475602 0.820936 -0.142699
C30   C     C_R   0.727448 0.521581 0.815325 -0.136543
C31   C     C_3   0.437564 0.778011 0.265542 0.004422
C32   C     C_3   0.375219 0.906205 0.257276 -0.249281
C33   C     C_3   0.386932 0.938082 0.159370 -0.481896
C34   C     C_R   0.528819 0.540087 0.955696 0.032375
C35   C     C_R   0.480584 0.516555 0.049624 0.029882
C36   C     C_R   0.585325 0.487310 0.096321 -0.148327
C37   C     C_R   0.731439 0.474492 0.051611 -0.142663
C38   C     C_R   0.427761 0.586968 0.911464 -0.143057
C39   C     C_R   0.282859 0.605071 0.956927 -0.143469
Cu1   Cu    Cu3+1 0.140670 0.499980 0.500000 0.952748
Cu2   Cu    Cu3+1 0.859330 0.500020 0.500000 0.928479
H1    H     H_    0.807892 0.452039 0.090043 0.110406
H2    H     H_    0.334286 0.341987 0.582351 0.114311
H3    H     H_    0.450424 0.560041 0.321691 0.104500
H4    H     H_    0.338261 0.445983 0.221121 0.109119
H5    H     H_    0.701651 0.560754 0.321573 0.101892
H6    H     H_    0.688365 0.727219 0.357258 0.136345
H7    H     H_    0.921886 0.587295 0.217035 0.113786
H8    H     H_    0.209554 0.642671 0.920735 0.109655
H9    H     H_    0.003290 0.444996 0.951494 0.115707
H10   H     H_    0.086791 0.458727 0.787904 0.126331
H11   H     H_    0.653568 0.536383 0.774523 0.123226
H12   H     H_    0.011271 0.632913 0.057193 0.109221
H13   H     H_    0.558732 0.477330 0.168218 0.086182
H14   H     H_    0.458114 0.615391 0.842142 0.103972
H15   H     H_    0.375516 0.709603 0.236746 0.146937
H16   H     H_    0.554189 0.775956 0.226690 0.127200
H17   H     H_    0.258825 0.908628 0.295783 0.179150
H18   H     H_    0.434976 0.976527 0.286017 0.169240
H19   H     H_    0.502641 0.938260 0.119611 0.150409
H20   H     H_    0.340388 0.031434 0.155547 0.150452
H21   H     H_    0.325677 0.869821 0.129939 0.158384
H22   H     H_    0.787060 0.112760 0.470673 0.134018
H23   H     H_    0.787089 0.887438 0.470485 0.136323
H24   H     H_    0.171554 0.889238 0.615956 0.131551
H25   H     H_    0.335221 0.888782 0.516401 0.178025
H26   H     H_    0.172550 0.111490 0.615381 0.132782
H27   H     H_    0.335909 0.109938 0.515576 0.132204
H28   H     H_    0.594850 0.341620 0.582029 0.119877
N1    N     N_R   0.648210 0.500930 0.499430 -0.238257
N2    N     N_R   0.352300 0.500890 0.499430 -0.256094
O1    O     O_R   0.118810 0.319640 0.500000 -0.505216
O2    O     O_R   0.881230 0.319680 0.499990 -0.511680
O3    O     O_R   0.055580 0.499970 0.629840 -0.505723
O4    O     O_R   0.818000 0.500010 0.629830 -0.504665
O5    O     O_R   0.118770 0.680320 0.500010 -0.468926
O6    O     O_R   0.881190 0.680360 0.500000 -0.508548
O7    O     O_R   0.182000 0.499990 0.370170 -0.504922
O8    O     O_R   0.944420 0.500030 0.370160 -0.502987
O9    O     O_3   0.423473 0.752361 0.357004 -0.569359

loop_
_geom_bond_atom_site_label_1
_geom_bond_atom_site_label_2
_ccdc_geom_bond_type
C18   N1    A    
Cu1   N2    S    
C18   C21   A    
C10   H22   S    
C32   H17   S    
C1    O2    A    
C31   O9    S    
C12   C23   A    
C6    H7    S    
C21   N2    A    
C18   C24   S    
C7    H4    S    
C5    H12   S    
C28   C29   A    
C34   C35   A    
C3    C7    A    
Cu2   O6    S    
C38   C39   A    
C15   H24   S    
C7    C27   A    
C16   O6    A    
C37   H1    S    
C4    O4    A    
C28   H9    S    
C2    C39   A    
C22   H3    S    
C38   H14   S    
C19   C20   A    
C33   H21   S    
C20   N2    A    
C31   H15   S    
C9    C10   A    
C4    O3    A    
C16   O5    A    
C21   C22   S    
C17   H26   S    
C1    O1    A    
C25   O7    A    
C1    C9    S    
C11   H23   S    
C8    C9    A    
C23   C37   A    
C15   H25   S    
Cu1   O5    S    
C35   C36   A    
C34   C38   A    
Cu2   O4    S    
C6    C27   A    
C3    C35   A    
C23   C28   A    
Cu1   Cu2   S    
C39   H8    S    
C26   C30   A    
C33   H19   S    
Cu1   O7    S    
C19   H28   S    
C2    C5    A    
C12   C34   A    
C20   H2    S    
C29   H10   S    
C15   C17   S    
C30   H11   S    
C36   C37   A    
C17   H27   S    
C8    C14   A    
Cu1   O1    S    
C12   C30   A    
C25   O8    A    
C24   H6    S    
C31   C32   S    
Cu2   O8    S    
C4    C26   S    
C25   C27   S    
C8    C17   S    
C24   H5    S    
C32   C33   S    
C31   H16   S    
C2    C3    A    
C22   O9    S    
C11   C13   A    
C5    C6    A    
Cu1   O3    S    
C22   C24   S    
C36   H13   S    
C10   C11   A    
Cu2   O2    S    
C26   C29   A    
C33   H20   S    
C13   C16   S    
C14   C15   S    
C19   N1    A    
C32   H18   S    
C13   C14   A    
Cu2   N1    S    
