data_mof_unit_60275.cif
_audit_creation_date              2012-12-10T18:16:23-0500
_audit_creation_method            fapswitch 2.2
_symmetry_space_group_name_H-M    P1
_symmetry_Int_Tables_number       1
_space_group_crystal_system       triclinic
_cell_length_a                    42.430407
_cell_length_b                    29.208379
_cell_length_c                    29.202798
_cell_angle_alpha                 89.999783
_cell_angle_beta                  133.930409
_cell_angle_gamma                 89.993215
_cell_volume                      26064.6546108

loop_
_atom_site_label
_atom_site_type_symbol
_atom_type_description
_atom_site_fract_x
_atom_site_fract_y
_atom_site_fract_z
_atom_type_partial_charge
C1    C     C_R   0.499976 0.586678 0.499996 0.908078
C2    C     C_1   0.834495 0.999832 0.332885 0.199147
C3    C     C_3   0.761339 0.960232 0.237398 0.320202
C4    C     C_1   0.372529 0.499804 0.372424 -0.173901
C5    C     C_1   0.872523 0.999945 0.372412 -0.173952
C6    C     C_1   0.121136 0.499943 0.118441 -0.148658
C7    C     C_1   0.621131 0.999947 0.118276 -0.148832
C8    C     C_3   0.259628 0.502967 0.298199 0.321976
C9    C     C_3   0.759540 0.003516 0.297899 0.322551
C10   C     C_3   0.288945 0.499477 0.285024 -0.194122
C11   C     C_3   0.788937 0.999743 0.284890 -0.194211
C12   C     C_3   0.253216 0.598033 0.175312 -0.156407
C13   C     C_1   0.159056 0.499794 0.153536 0.219229
C14   C     C_3   0.252663 0.390815 0.191124 -0.156438
C15   C     C_3   0.753318 0.097285 0.173952 -0.157065
C16   C     C_3   0.752757 0.890179 0.192660 -0.155673
C17   C     C_3   0.245237 0.610394 0.289148 -0.259068
C18   C     C_3   0.244649 0.397801 0.305343 -0.258906
C19   C     C_3   0.745062 0.111329 0.287001 -0.256494
C20   C     C_3   0.744578 0.899244 0.307001 -0.262556
C21   C     C_3   0.244533 0.509078 0.360033 -0.268545
C22   C     C_3   0.744212 0.011658 0.359273 -0.267926
C23   C     C_1   0.659045 0.999829 0.153254 0.219361
C24   C     C_1   0.499960 0.637261 0.499954 -0.214380
C25   C     C_1   0.499954 0.362739 0.499948 -0.213831
C26   C     C_1   0.999960 0.137261 0.499954 -0.214399
C27   C     C_1   0.999954 0.862739 0.499948 -0.213808
C28   C     C_1   0.499952 0.679399 0.499939 0.008977
C29   C     C_1   0.499940 0.320601 0.499928 0.009535
C30   C     C_1   0.999951 0.179399 0.499939 0.008968
C31   C     C_R   0.499975 0.413322 0.499995 0.908961
C32   C     C_1   0.999940 0.820601 0.499928 0.009546
C33   C     C_1   0.499949 0.729134 0.499939 0.010435
C34   C     C_1   0.499931 0.270866 0.499921 0.010759
C35   C     C_1   0.999949 0.229134 0.499939 0.010421
C36   C     C_1   0.999931 0.770866 0.499921 0.010775
C37   C     C_1   0.499951 0.771270 0.499947 0.009705
C38   C     C_1   0.499929 0.228730 0.499926 0.009855
C39   C     C_1   0.999951 0.271270 0.499947 0.009687
C40   C     C_1   0.999929 0.728730 0.499926 0.009876
C41   C     C_1   0.499956 0.821006 0.499963 0.007432
C42   C     C_R   0.999975 0.086678 0.499995 0.908093
C43   C     C_1   0.499933 0.178994 0.499940 0.007483
C44   C     C_1   0.999956 0.321006 0.499963 0.007415
C45   C     C_1   0.999933 0.678994 0.499940 0.007502
C46   C     C_1   0.499960 0.863144 0.499977 -0.210774
C47   C     C_1   0.499940 0.136856 0.499956 -0.210773
C48   C     C_1   0.999960 0.363144 0.499976 -0.210791
C49   C     C_1   0.999940 0.636856 0.499956 -0.210759
C50   C     C_R   0.417103 0.500083 0.417198 0.935035
C51   C     C_R   0.917102 0.000072 0.417197 0.935035
C52   C     C_1   0.635840 0.500002 0.635628 -0.217841
C53   C     C_R   0.999975 0.913322 0.499995 0.908945
C54   C     C_1   0.135840 0.000002 0.635628 -0.217840
C55   C     C_1   0.677114 0.500005 0.676887 0.018699
C56   C     C_1   0.177114 0.000005 0.676887 0.018700
C57   C     C_1   0.726259 0.500007 0.726076 0.005639
C58   C     C_1   0.226259 0.000007 0.726076 0.005638
C59   C     C_1   0.767534 0.500009 0.767406 0.005579
C60   C     C_1   0.267534 0.000009 0.767406 0.005579
C61   C     C_1   0.816680 0.500011 0.816627 0.018461
C62   C     C_1   0.316680 0.000011 0.816627 0.018462
C63   C     C_1   0.857954 0.500010 0.857964 -0.217902
C64   C     C_3   0.204614 0.499581 0.197656 -0.273023
C65   C     C_1   0.357954 0.000010 0.857964 -0.217907
C66   C     C_R   0.994868 0.500000 0.081686 0.903949
C67   C     C_R   0.494868 1.000000 0.081686 0.903946
C68   C     C_R   0.076720 0.499993 0.077562 0.933717
C69   C     C_R   0.576724 0.999992 0.077561 0.933406
C70   C     C_R   0.993004 0.500000 0.906373 0.917970
C71   C     C_R   0.493004 0.000000 0.906373 0.917925
C72   C     C_R   0.907988 0.500004 0.908067 0.885864
C73   C     C_R   0.407988 0.000004 0.908067 0.885873
C74   C     C_R   0.585808 0.500000 0.585751 0.887113
C75   C     C_3   0.704605 0.999677 0.197359 -0.273221
C76   C     C_R   0.085808 1.000000 0.585751 0.887109
C77   C     C_R   0.499018 1.000000 0.412827 0.896842
C78   C     C_R   0.999018 0.500000 0.412827 0.896846
C79   C     C_R   0.499960 0.913727 0.499987 0.896882
C80   C     C_R   0.499953 0.086273 0.499980 0.896844
C81   C     C_R   0.999960 0.413727 0.499987 0.896876
C82   C     C_R   0.999953 0.586273 0.499980 0.896852
C83   C     C_R   0.500829 1.000000 0.587123 0.896860
C84   C     C_R   0.000829 0.500000 0.587123 0.896860
C85   C     C_1   0.995586 0.500000 0.132974 -0.215763
C86   C     C_3   0.233522 0.496041 0.183454 0.282966
C87   C     C_1   0.495586 1.000000 0.132975 -0.215812
C88   C     C_1   0.996189 0.500000 0.175710 0.007024
C89   C     C_1   0.496189 1.000000 0.175710 0.007004
C90   C     C_1   0.996890 0.500000 0.226136 0.009322
C91   C     C_1   0.496891 1.000000 0.226136 0.009310
C92   C     C_1   0.497465 1.000000 0.268843 0.008923
C93   C     C_1   0.997465 0.500000 0.268842 0.008932
C94   C     C_1   0.498102 1.000000 0.319205 0.006586
C95   C     C_1   0.998102 0.500000 0.319204 0.006591
C96   C     C_1   0.498579 1.000000 0.361815 -0.211503
C97   C     C_3   0.733588 0.995857 0.183315 0.283766
C98   C     C_1   0.998579 0.500000 0.361815 -0.211499
C99   C     C_1   0.994119 0.500000 0.856892 -0.201546
C100  C     C_1   0.494119 1.000000 0.856892 -0.201595
C101  C     C_3   0.232677 0.539049 0.245391 0.318543
C102  C     C_3   0.232470 0.463474 0.251168 0.318442
C103  C     C_3   0.732576 0.039343 0.244741 0.319454
C104  C     C_3   0.732479 0.963819 0.251228 0.316925
C105  C     C_1   0.995398 0.499999 0.816041 0.021460
C106  C     C_1   0.495398 0.999999 0.816041 0.021465
C107  C     C_1   0.997072 0.499999 0.767990 0.018897
C108  C     C_1   0.334504 0.499584 0.332937 0.199223
C109  C     C_1   0.497072 0.999999 0.767990 0.018922
C110  C     C_1   0.498465 0.999999 0.727258 0.014906
C111  C     C_1   0.998465 0.499999 0.727258 0.014882
C112  C     C_1   0.499908 0.999999 0.678966 0.010740
C113  C     C_1   0.999908 0.499999 0.678966 0.010721
C114  C     C_1   0.500731 1.000000 0.637643 -0.209284
C115  C     C_1   0.000731 0.500000 0.637643 -0.209298
C116  C     C_3   0.261474 0.535361 0.231458 0.318690
C117  C     C_3   0.261271 0.460155 0.237211 0.318958
C118  C     C_3   0.761465 0.035380 0.230985 0.317025
H1    H     H_    0.220374 0.600576 0.158601 0.182354
H2    H     H_    0.720140 0.890479 0.176830 0.183655
H3    H     H_    0.766038 0.855003 0.209475 0.151482
H4    H     H_    0.749320 0.897234 0.152064 0.229731
H5    H     H_    0.260218 0.626593 0.273700 0.191832
H6    H     H_    0.271069 0.594838 0.337023 0.191771
H7    H     H_    0.229568 0.637987 0.293648 0.177774
H8    H     H_    0.270617 0.416396 0.350624 0.191865
H9    H     H_    0.259476 0.376907 0.292645 0.192052
H10   H     H_    0.228843 0.373840 0.313787 0.177618
H11   H     H_    0.757964 0.128450 0.268935 0.191306
H12   H     H_    0.250294 0.584516 0.137023 0.230811
H13   H     H_    0.772440 0.096112 0.334569 0.189015
H14   H     H_    0.729872 0.138138 0.293389 0.176559
H15   H     H_    0.767331 0.918486 0.352497 0.194600
H16   H     H_    0.763253 0.880806 0.298975 0.193168
H17   H     H_    0.728140 0.873058 0.311883 0.178934
H18   H     H_    0.235102 0.486219 0.060195 0.382070
H19   H     H_    0.735341 0.983229 0.060489 0.382053
H20   H     H_    0.223886 0.477812 0.339289 0.196054
H21   H     H_    0.223786 0.539873 0.334088 0.196168
H22   H     H_    0.259738 0.511925 0.409730 0.179613
H23   H     H_    0.266366 0.633323 0.185921 0.151067
H24   H     H_    0.720300 0.983070 0.333300 0.193812
H25   H     H_    0.726993 0.044908 0.338337 0.196644
H26   H     H_    0.759063 0.010863 0.408892 0.179246
H27   H     H_    0.219762 0.391177 0.174418 0.182493
H28   H     H_    0.265542 0.355442 0.207144 0.150965
H29   H     H_    0.249936 0.398586 0.151323 0.230734
H30   H     H_    0.720306 0.099920 0.156681 0.181533
H31   H     H_    0.750832 0.083078 0.136336 0.231660
H32   H     H_    0.766289 0.132604 0.183852 0.151053
O1    O     O_R   0.500400 0.563130 0.536080 -0.597249
O2    O     O_R   0.963990 0.500000 0.400890 -0.593106
O3    O     O_R   0.534410 0.000000 0.471310 -0.593754
O4    O     O_R   0.034410 0.500000 0.471310 -0.593754
O5    O     O_R   0.464750 0.936830 0.464780 -0.593724
O6    O     O_R   0.464750 0.063170 0.464780 -0.593608
O7    O     O_R   0.964750 0.436830 0.464780 -0.593730
O8    O     O_R   0.964750 0.563170 0.464780 -0.593599
O9    O     O_R   0.535170 0.936820 0.535200 -0.592682
O10   O     O_R   0.535170 0.063180 0.535200 -0.592788
O11   O     O_R   0.035170 0.436820 0.535200 -0.592685
O12   O     O_R   0.500400 0.436870 0.536080 -0.597413
O13   O     O_R   0.035170 0.563180 0.535200 -0.592790
O14   O     O_R   0.465520 1.000000 0.528690 -0.594304
O15   O     O_R   0.965520 0.500000 0.528690 -0.594300
O16   O     O_R   0.535930 0.000000 0.599110 -0.590921
O17   O     O_R   0.035930 0.500000 0.599110 -0.590933
O18   O     O_R   0.499540 0.563080 0.463930 -0.594440
O19   O     O_R   0.499540 0.436920 0.463930 -0.593996
O20   O     O_R   0.999540 0.063080 0.463930 -0.594441
O21   O     O_R   0.999540 0.936920 0.463930 -0.593972
O22   O     O_R   0.438030 0.500000 0.473700 -0.611712
O23   O     O_R   0.000400 0.063130 0.536080 -0.597233
O24   O     O_R   0.938030 0.000000 0.473700 -0.611742
O25   O     O_R   0.437170 0.500000 0.401550 -0.599298
O26   O     O_R   0.937170 1.000000 0.401550 -0.599237
O27   O     O_R   0.562760 0.500000 0.598450 -0.592293
O28   O     O_R   0.062760 0.000000 0.598450 -0.592295
O29   O     O_R   0.561900 0.500000 0.526300 -0.592678
O30   O     O_R   0.061900 1.000000 0.526300 -0.592677
O31   O     O_R   0.994600 0.535610 0.057840 -0.597559
O32   O     O_R   0.994600 0.464390 0.057840 -0.597357
O33   O     O_R   0.494600 0.035610 0.057840 -0.597566
O34   O     O_R   0.000400 0.936870 0.536080 -0.597438
O35   O     O_R   0.494600 0.964390 0.057840 -0.597338
O36   O     O_R   0.056200 0.535620 0.056290 -0.605787
O37   O     O_R   0.056200 0.464380 0.056290 -0.603923
O38   O     O_R   0.556200 0.035620 0.056290 -0.605877
O39   O     O_R   0.556200 0.964380 0.056290 -0.603715
O40   O     O_R   0.993060 0.535640 0.930020 -0.594473
O41   O     O_R   0.993060 0.464360 0.930020 -0.593344
O42   O     O_R   0.493060 0.035640 0.930020 -0.594542
O43   O     O_R   0.493060 0.964360 0.930020 -0.593266
O44   O     O_3   0.283274 0.571296 0.230529 -0.598036
O45   O     O_R   0.931470 0.535630 0.931560 -0.593019
O46   O     O_3   0.282867 0.420918 0.242049 -0.598314
O47   O     O_3   0.783260 0.071226 0.229901 -0.598179
O48   O     O_3   0.783019 0.920964 0.242513 -0.598281
O49   O     O_3   0.212749 0.578634 0.243588 -0.600760
O50   O     O_3   0.212335 0.427397 0.255164 -0.601316
O51   O     O_3   0.712641 0.079019 0.242716 -0.600532
O52   O     O_3   0.712275 0.927776 0.255158 -0.601142
O53   O     O_2   0.181806 0.449623 0.072612 -0.323435
O54   O     O_2   0.181999 0.532966 0.066237 -0.324170
O55   O     O_3   0.250281 0.488509 0.105373 -0.537273
O56   O     O_R   0.931470 0.464370 0.931560 -0.593100
O57   O     O_2   0.681974 0.948668 0.073146 -0.323916
O58   O     O_2   0.682156 0.031913 0.065605 -0.323424
O59   O     O_3   0.750479 0.987073 0.105492 -0.536953
O60   O     O_3   0.278166 0.506406 0.361024 -0.606201
O61   O     O_3   0.777925 0.007168 0.360621 -0.606136
O62   O     O_R   0.431470 0.035630 0.931560 -0.593017
O63   O     O_R   0.431470 0.964370 0.931560 -0.593092
O64   O     O_R   0.463990 0.000000 0.400890 -0.593108
S1    S     S_3+6 0.209971 0.491694 0.103762 0.012495
S2    S     S_3+6 0.710121 0.990784 0.103738 0.012857
Zn1   Zn    Zn3+2 0.500540 0.500000 0.548170 0.980408
Zn2   Zn    Zn3+2 0.952950 0.500000 0.452980 0.972722
Zn3   Zn    Zn3+2 0.546980 0.000000 0.547020 0.976563
Zn4   Zn    Zn3+2 0.046980 0.500000 0.547020 0.976543
Zn5   Zn    Zn3+2 0.000540 1.000000 0.548170 0.980382
Zn6   Zn    Zn3+2 0.499390 0.500000 0.451830 0.993003
Zn7   Zn    Zn3+2 0.999390 0.000000 0.451830 0.993065
Zn8   Zn    Zn3+2 0.993830 0.547580 0.993940 0.987947
Zn9   Zn    Zn3+2 0.993830 0.452420 0.993940 0.989888
Zn10  Zn    Zn3+2 0.493830 0.047580 0.993940 0.987780
Zn11  Zn    Zn3+2 0.493830 0.952420 0.993940 0.990028
Zn12  Zn    Zn3+2 0.452950 0.000000 0.452980 0.972719

loop_
_geom_bond_atom_site_label_1
_geom_bond_atom_site_label_2
_ccdc_geom_bond_type
C3    C104  S    
C25   C31   S    
C83   O14   A    
C19   H11   S    
O26   Zn7   S    
O34   Zn5   S    
C73   O62   A    
C10   C108  S    
C19   O51   S    
O23   Zn5   S    
C66   C85   S    
C112  C114  T    
C95   C98   T    
C78   O2    A    
C21   O60   S    
C64   C102  S    
C4    C108  T    
O54   S1    D    
C26   C42   S    
C12   H12   S    
C30   C35   S    
C47   C80   S    
O53   S1    D    
O38   Zn10  S    
C16   H2    S    
C79   O9    A    
H18   O55   S    
C15   O47   S    
C7    C23   T    
C80   O10   A    
O10   Zn3   S    
C82   O13   A    
C58   C60   T    
O35   Zn11  S    
C75   C97   S    
C3    O48   S    
C65   C73   S    
C48   C81   S    
O30   Zn7   S    
C86   C116  S    
C16   O48   S    
C97   C118  S    
C61   C63   T    
C16   H4    S    
C86   S1    S    
O7    Zn2   S    
C14   O46   S    
C84   O15   A    
C42   O20   A    
C77   O3    A    
C17   H5    S    
C74   O29   A    
C68   O37   A    
C97   S2    S    
O2    Zn2   S    
C22   H25   S    
C78   C98   S    
C41   C46   T    
O1    Zn1   S    
O28   Zn5   S    
C1    O1    A    
C71   O42   A    
C89   C91   S    
O64   Zn12  S    
C8    C101  S    
O58   S2    D    
C52   C55   T    
C9    C103  S    
O62   Zn10  S    
O13   Zn4   S    
O6    Zn12  S    
C6    C68   S    
C66   O32   A    
O12   Zn1   S    
C68   O36   A    
C93   C95   S    
O31   Zn8   S    
C75   C103  S    
C19   H13   S    
C83   C114  S    
C73   O63   A    
O39   Zn11  S    
O24   Zn5   S    
C107  C111  T    
C21   H20   S    
C72   O45   A    
C8    O60   S    
C2    C11   S    
O33   Zn10  S    
C64   C86   S    
C77   O64   A    
C80   O6    A    
C25   C29   T    
C64   C101  S    
C99   C105  T    
C83   O16   A    
C54   C56   T    
O5    Zn12  S    
C59   C61   S    
O59   S2    S    
C81   O7    A    
O29   Zn6   S    
C103  C118  S    
C36   C40   T    
C3    C11   S    
O43   Zn11  S    
C111  C113  S    
C53   O34   A    
C69   O39   A    
C91   C92   T    
C78   O4    A    
C72   O56   A    
C70   O41   A    
C31   O19   A    
C1    O18   A    
C79   O5    A    
C14   H29   S    
C113  C115  T    
C33   C37   T    
H19   O59   S    
C50   O25   A    
C104  O52   S    
C49   C82   S    
C51   O24   A    
C35   C39   T    
C16   H3    S    
C103  O51   S    
O63   Zn11  S    
C102  O50   S    
C18   H9    S    
C12   H1    S    
C105  C107  S    
C3    C97   S    
C17   H6    S    
O19   Zn6   S    
C14   H27   S    
C45   C49   T    
O45   Zn8   S    
O8    Zn2   S    
C22   O61   S    
C22   H24   S    
O56   Zn9   S    
C92   C94   S    
O14   Zn12  S    
C82   O8    A    
C63   C72   S    
C94   C96   T    
C9    C11   S    
C69   O38   A    
C102  C117  S    
C67   O33   A    
O15   Zn2   S    
C54   C76   S    
C66   O31   A    
C88   C90   S    
C28   C33   S    
C26   C30   T    
C84   C115  S    
O9    Zn3   S    
C87   C89   T    
C18   O50   S    
C75   C104  S    
C20   H15   S    
C23   C75   S    
C21   H21   S    
O4    Zn4   S    
C18   H10   S    
C32   C36   S    
O17   Zn4   S    
C15   H31   S    
C10   C116  S    
C70   C99   S    
C70   O40   A    
C90   C93   T    
O41   Zn9   S    
C85   C88   T    
C19   H14   S    
O36   Zn8   S    
C117  O46   S    
C62   C65   T    
C27   C32   T    
C34   C38   T    
C81   O11   A    
C76   O28   A    
C101  O49   S    
C24   C28   T    
O18   Zn6   S    
C76   O30   A    
C42   O23   A    
O27   Zn1   S    
C7    C69   S    
O21   Zn7   S    
C27   C53   S    
O32   Zn9   S    
C39   C44   S    
C100  C106  T    
C71   C100  S    
C14   H28   S    
C77   C96   S    
C52   C74   S    
C55   C57   S    
C12   H23   S    
C116  O44   S    
C38   C43   S    
C84   O17   A    
C109  C110  T    
C18   H8    S    
C60   C62   S    
C11   C118  S    
C71   O43   A    
C17   H7    S    
C46   C79   S    
C13   C64   S    
C8    C102  S    
C9    O61   S    
C9    C104  S    
O37   Zn9   S    
C29   C34   S    
O42   Zn10  S    
O57   S2    D    
O25   Zn6   S    
C56   C58   S    
C17   O49   S    
C86   C117  S    
C20   H17   S    
C37   C41   S    
C51   O26   A    
C110  C112  S    
C31   O12   A    
C57   C59   T    
C53   O21   A    
C20   O52   S    
O20   Zn7   S    
C2    C5    T    
C67   O35   A    
O40   Zn8   S    
C74   O27   A    
C40   C45   S    
O55   S1    S    
C1    C24   S    
C8    C10   S    
O11   Zn4   S    
C4    C50   S    
C10   C117  S    
C101  C116  S    
C15   H30   S    
C5    C51   S    
O3    Zn3   S    
C50   O22   A    
C21   H22   S    
C20   H16   S    
C22   H26   S    
C118  O47   S    
C43   C47   T    
O16   Zn3   S    
C15   H32   S    
O22   Zn1   S    
C44   C48   T    
C67   C87   S    
C12   O44   S    
C6    C13   T    
C106  C109  S    
