data_mof_unit_15221.cif
_audit_creation_date              2013-03-05T15:59:21-0500
_audit_creation_method            fapswitch 2.2
_symmetry_space_group_name_H-M    P1
_symmetry_Int_Tables_number       1
_space_group_crystal_system       triclinic
_cell_length_a                    10.486979
_cell_length_b                    12.599511
_cell_length_c                    13.135077
_cell_angle_alpha                 82.233298
_cell_angle_beta                  90.740254
_cell_angle_gamma                 101.934486
_cell_volume                      1682.25495005

loop_
_atom_site_label
_atom_site_type_symbol
_atom_site_description
_atom_site_fract_x
_atom_site_fract_y
_atom_site_fract_z
_atom_type_partial_charge
O1    O     O_R   0.467970 0.366730 0.627150 -0.609919
O2    O     O_R   0.510820 0.544830 0.662520 -0.617548
C1    C     C_R   0.476323 0.439082 0.690884 0.852389
O3    O     O_R   0.664630 0.410960 0.482340 -0.627196
O4    O     O_R   0.707470 0.589060 0.517710 -0.620560
C2    C     C_R   0.742159 0.500095 0.500189 0.861816
Zn1   Zn    Zn3+2 0.471390 0.381080 0.476380 0.925117
Zn2   Zn    Zn3+2 0.528610 0.618920 0.523620 0.913689
O5    O     O_R   0.489180 0.455170 0.337480 -0.611596
O6    O     O_R   0.532030 0.633270 0.372850 -0.637379
O7    O     O_R   0.292530 0.410940 0.482290 -0.629478
O8    O     O_R   0.335370 0.589040 0.517660 -0.651652
C3    C     C_R   0.517277 0.561065 0.308512 0.866288
C4    C     C_R   0.257876 0.499960 0.499601 0.841708
C5    C     C_3   0.934377 0.401790 0.479704 -0.142250
C6    C     C_3   0.023887 0.420861 0.572481 -0.183284
H1    H     H_    0.048152 0.356538 0.631496 0.131881
H2    H     H_    0.877131 0.321512 0.463388 0.139924
C7    C     C_3   0.122613 0.500314 0.499590 0.041608
C8    C     C_3   0.035833 0.481462 0.406836 -0.179481
C9    C     C_3   0.976171 0.579108 0.427007 -0.181834
C10   C     C_3   0.065720 0.598200 0.519797 -0.148281
C11   C     C_3   0.964305 0.518546 0.592650 -0.181356
C12   C     C_3   0.877482 0.499702 0.499937 0.035256
H3    H     H_    0.069918 0.466512 0.331384 0.131470
H4    H     H_    0.950887 0.642862 0.367922 0.128854
H5    H     H_    0.123165 0.678209 0.536560 0.144016
H6    H     H_    0.930430 0.533698 0.668087 0.131219
C13   C     C_R   0.488192 0.729010 0.052346 0.117734
H7    H     H_    0.534856 0.768473 0.205586 0.151945
H8    H     H_    0.381135 0.733480 0.860901 0.159231
C14   C     C_R   0.519420 0.597075 0.198234 -0.085635
C15   C     C_R   0.455569 0.292757 0.839250 -0.194602
C16   C     C_R   0.451630 0.260597 0.944624 -0.157283
C17   C     C_R   0.451781 0.337637 0.011209 -0.195080
C18   C     C_R   0.449348 0.448090 0.972586 0.097570
C19   C     C_R   0.428002 0.474067 0.867298 0.088660
C20   C     C_R   0.470123 0.534218 0.033926 0.047560
C21   C     C_R   0.455099 0.641391 0.992482 0.140724
C22   C     C_R   0.405844 0.656920 0.893295 -0.275612
C23   C     C_R   0.390122 0.573720 0.832358 -0.200560
C24   C     C_R   0.510393 0.516862 0.134542 -0.262685
C25   C     C_R   0.516997 0.704604 0.156538 -0.259834
C26   C     C_R   0.448046 0.400479 0.799896 -0.124458
H9    H     H_    0.532072 0.439438 0.166472 0.164136
H10   H     H_    0.467186 0.234007 0.788816 0.160167
H11   H     H_    0.451646 0.307770 0.092093 0.131144
H12   H     H_    0.454561 0.176869 0.974936 0.142455
H13   H     H_    0.349209 0.588900 0.757077 0.177802
C27   C     C_R   0.261707 0.076477 0.407395 0.005395
H14   H     H_    0.248359 0.245345 0.395629 0.149779
N1    N     N_R   0.432930 0.222190 0.444670 -0.115475
C28   C     C_R   0.664081 0.802341 0.621725 0.023848
C29   C     C_R   0.702815 0.908983 0.643472 -0.268664
C30   C     C_R   0.640417 0.989491 0.596148 -0.193717
C31   C     C_R   0.538535 0.963232 0.526338 0.028978
C32   C     C_R   0.502922 0.853832 0.507127 0.193317
C33   C     C_R   0.467919 0.040214 0.478242 -0.058677
C34   C     C_R   0.349000 0.003443 0.426855 0.085670
C35   C     C_R   0.324185 0.896395 0.398091 0.030667
C36   C     C_R   0.404073 0.825045 0.437691 -0.247207
C37   C     C_R   0.509237 0.152758 0.482082 -0.065025
C38   C     C_R   0.311228 0.187311 0.410709 -0.027181
N2    N     N_R   0.566370 0.776980 0.554790 -0.125078
H15   H     H_    0.600398 0.187345 0.515135 0.129948
H16   H     H_    0.712602 0.739378 0.657592 0.136021
H17   H     H_    0.670819 0.070221 0.618157 0.134543
H18   H     H_    0.780327 0.929054 0.697232 0.146476
H19   H     H_    0.389017 0.746899 0.412581 0.219746
C39   C     C_3   0.219144 0.857219 0.322120 -0.435335
C40   C     C_3   0.266880 0.802882 0.236434 -0.349978
C41   C     C_3   0.163789 0.782082 0.154253 -0.894034
H20   H     H_    0.072740 0.728840 0.189042 0.261507
H21   H     H_    0.142203 0.860645 0.116504 0.257087
H22   H     H_    0.200292 0.740325 0.094894 0.254971
H23   H     H_    0.355531 0.857852 0.200342 0.222537
H24   H     H_    0.289419 0.722668 0.267795 0.224370
H25   H     H_    0.137470 0.798786 0.364724 0.197895
H26   H     H_    0.182110 0.927020 0.282315 0.234232
C42   C     C_3   0.113920 0.039846 0.412604 -0.442913
C43   C     C_3   0.046687 0.085195 0.316356 -0.360003
C44   C     C_3   0.902570 0.030146 0.316191 -0.864132
H27   H     H_    0.891629 0.940897 0.313825 0.260647
H28   H     H_    0.852210 0.042957 0.386069 0.266317
H29   H     H_    0.855657 0.066009 0.247390 0.246144
H30   H     H_    0.054049 0.174649 0.314838 0.213516
H31   H     H_    0.094257 0.073076 0.245054 0.218724
H32   H     H_    0.082687 0.949747 0.429642 0.209856
H33   H     H_    0.077926 0.070706 0.479941 0.200243
C45   C     C_3   0.493943 0.847758 0.008184 -0.444685
C46   C     C_3   0.608070 0.890704 0.931345 -0.323815
C47   C     C_3   0.612833 0.009862 0.886891 -0.897713
H34   H     H_    0.521804 0.017605 0.844972 0.261743
H35   H     H_    0.625224 0.062384 0.949232 0.258027
H36   H     H_    0.696681 0.039029 0.832390 0.247732
H37   H     H_    0.701230 0.884881 0.970928 0.221942
H38   H     H_    0.599433 0.841038 0.867004 0.230707
H39   H     H_    0.399885 0.856949 0.971946 0.198255
H40   H     H_    0.508295 0.900527 0.070363 0.195992

loop_
_geom_bond_atom_site_label_1
_geom_bond_atom_site_label_2
_geom_bond_distance
_ccdc_geom_bond_type
C33   C37   1.402028 A    
C5    H2    1.110638 S    
C9    H4    1.110015 S    
C15   H10   1.083294 S    
C39   H25   1.108625 S    
C3    C14   1.457234 S    
C7    C8    1.526148 S    
C30   C31   1.415032 A    
C17   H11   1.078005 S    
C43   C44   1.527097 S    
C28   C29   1.388148 A    
C31   C32   1.407755 A    
Zn1   O7    1.992321 S    
C27   C34   1.424394 A    
C18   C19   1.403493 A    
Zn1   N1    2.056935 S    
C20   C24   1.385080 A    
O3    Zn1   1.985675 S    
C40   H23   1.106834 S    
O7    C4    1.296690 A    
C29   H18   1.082473 S    
C8    H3    1.110371 S    
C5    C6    1.542814 S    
H8    C22   1.080876 S    
C16   C17   1.391359 A    
C42   H33   1.112759 S    
O5    C3    1.309515 A    
C46   H37   1.111926 S    
C17   C18   1.420652 A    
C6    H1    1.110327 S    
C11   C12   1.525948 S    
C39   C40   1.533162 S    
C43   H30   1.111137 S    
C46   C47   1.526523 S    
C34   C35   1.421135 A    
C9    C10   1.543201 S    
C13   C25   1.404556 A    
C27   C38   1.391969 A    
C41   H22   1.110464 S    
C23   H13   1.081808 S    
C13   C45   1.519091 S    
C5    C8    1.542945 S    
C1    C26   1.462149 S    
C7    C10   1.531144 S    
H14   C38   1.079545 S    
C41   H21   1.110865 S    
C21   C22   1.399277 A    
C42   C43   1.539545 S    
C33   C34   1.431535 A    
O6    C3    1.308417 A    
C47   H36   1.110054 S    
C35   C36   1.398013 A    
O1    C1    1.307998 A    
C24   H9    1.076051 S    
C20   C21   1.425351 A    
C35   C39   1.527326 S    
Zn2   O8    1.985677 S    
C2    C12   1.420207 S    
C13   C21   1.423575 A    
C47   H35   1.110612 S    
C15   C16   1.387296 A    
C11   H6    1.110294 S    
C46   H38   1.109752 S    
C28   H16   1.081641 S    
C43   H31   1.109759 S    
Zn2   N2    2.044614 S    
O3    C2    1.290687 A    
C22   C23   1.385137 A    
O8    C4    1.290795 A    
C6    C11   1.544629 S    
C44   H28   1.111414 S    
C10   H5    1.110409 S    
H7    C25   1.082770 S    
C16   H12   1.082554 S    
C45   H40   1.110826 S    
C40   H24   1.109392 S    
C32   N2    1.365338 A    
C36   H19   1.060788 S    
Zn1   O5    1.926482 S    
C29   C30   1.391804 A    
C5    C12   1.531537 S    
C37   H15   1.077250 S    
C39   H26   1.099718 S    
O1    Zn1   1.964239 S    
C15   C26   1.403270 A    
C4    C7    1.419427 S    
O2    Zn2   1.926480 S    
C41   H20   1.110869 S    
N1    C38   1.351787 A    
C27   C42   1.522523 S    
O4    Zn2   1.992318 S    
C30   H17   1.078328 S    
C32   C36   1.395505 A    
C44   H29   1.110404 S    
C19   C26   1.412409 A    
C18   C20   1.417125 A    
O2    C1    1.309522 A    
C40   C41   1.527034 S    
C42   H32   1.107032 S    
N1    C37   1.345476 A    
C45   C46   1.536109 S    
O4    C2    1.297031 A    
C6    C7    1.525986 S    
C47   H34   1.111029 S    
C28   N2    1.357318 A    
C14   C25   1.396220 A    
C31   C33   1.416916 A    
C19   C23   1.410941 A    
C8    C9    1.544682 S    
Zn2   O6    1.964242 S    
C44   H27   1.111130 S    
C9    C12   1.525798 S    
C14   C24   1.384624 A    
C10   C11   1.542506 S    
C45   H39   1.110472 S    
