data_mof_unit_21094.cif
_audit_creation_date              2013-03-05T16:36:14-0500
_audit_creation_method            fapswitch 2.2
_symmetry_space_group_name_H-M    P1
_symmetry_Int_Tables_number       1
_space_group_crystal_system       monoclinic
_cell_length_a                    27.857812
_cell_length_b                    9.08418
_cell_length_c                    7.775316
_cell_angle_alpha                 89.981792
_cell_angle_beta                  90.0
_cell_angle_gamma                 90.0
_cell_volume                      1967.66318803

loop_
_atom_site_label
_atom_site_type_symbol
_atom_site_description
_atom_site_fract_x
_atom_site_fract_y
_atom_site_fract_z
_atom_type_partial_charge
O1    O     O_R   0.500000 0.288390 0.642760 -0.583972
O2    O     O_R   0.500000 0.711610 0.357240 -0.583972
O3    O     O_R   0.500000 0.711610 0.642760 -0.576042
O4    O     O_R   0.500000 0.288390 0.357240 -0.576042
C1    C     C_R   0.500000 0.219996 0.500014 0.829167
C2    C     C_R   0.500000 0.780004 0.499986 0.829167
O5    O     O_R   0.430260 0.500000 0.642770 -0.529703
O6    O     O_R   0.569740 0.500000 0.357230 -0.529747
O7    O     O_R   0.569740 0.500000 0.642770 -0.529747
O8    O     O_R   0.430260 0.500000 0.357230 -0.529703
C3    C     C_R   0.407100 0.500000 0.500000 0.876856
C4    C     C_R   0.592899 0.500000 0.500000 0.877011
Cu1   Cu    Cu3+1 0.500000 0.500000 0.669080 1.117616
Cu2   Cu    Cu3+1 0.500000 0.500000 0.330920 1.117616
C5    C     C_R   0.177853 0.370253 0.522797 0.567006
C6    C     C_R   0.822144 0.629755 0.477269 0.567007
C7    C     C_R   0.177853 0.629746 0.477202 0.567006
C8    C     C_R   0.822144 0.370245 0.522732 0.567007
O9    O     O_2   0.202740 0.244185 0.544986 -0.500858
O10   O     O_2   0.797257 0.755832 0.455136 -0.500835
O11   O     O_2   0.202740 0.755815 0.455013 -0.500858
O12   O     O_2   0.797257 0.244168 0.544865 -0.500835
N1    N     N_R   0.201824 0.500000 0.500000 -0.443406
N2    N     N_R   0.798173 0.500000 0.500000 -0.443405
C9    C     C_R   0.278223 0.527411 0.652320 -0.170617
C10   C     C_R   0.721773 0.472162 0.347783 -0.170560
C11   C     C_R   0.278223 0.472589 0.347679 -0.170617
C12   C     C_R   0.721773 0.527838 0.652217 -0.170561
C13   C     C_R   0.328276 0.527440 0.653146 0.562259
C14   C     C_R   0.671719 0.472135 0.346956 0.562271
C15   C     C_R   0.328276 0.472560 0.346853 0.562259
C16   C     C_R   0.671719 0.527865 0.653044 0.562272
C17   C     C_R   0.253190 0.500000 0.500000 0.170461
C18   C     C_R   0.746807 0.500000 0.500000 0.170416
C19   C     C_R   0.101829 0.500000 0.500000 -0.043157
C20   C     C_R   0.898168 0.500000 0.500000 -0.043160
C21   C     C_R   0.127463 0.367836 0.523425 -0.034697
C22   C     C_R   0.872534 0.632171 0.476635 -0.034693
C23   C     C_R   0.127463 0.632164 0.476575 -0.034697
C24   C     C_R   0.872534 0.367829 0.523365 -0.034693
C25   C     C_R   0.102442 0.236433 0.547114 -0.140999
C26   C     C_R   0.897555 0.763580 0.453000 -0.140982
C27   C     C_R   0.102442 0.763566 0.452885 -0.140999
C28   C     C_R   0.897555 0.236419 0.547000 -0.140982
C29   C     C_R   0.354015 0.500000 0.500000 -0.329874
C30   C     C_R   0.645980 0.500000 0.500000 -0.329710
H1    H     H_    0.258751 0.451135 0.229742 0.185074
H2    H     H_    0.741243 0.549619 0.770069 0.185113
H3    H     H_    0.258751 0.548865 0.770257 0.185074
H4    H     H_    0.741243 0.450381 0.229931 0.185112
H5    H     H_    0.121323 0.133380 0.565749 0.186388
H6    H     H_    0.878674 0.866641 0.434420 0.186369
H7    H     H_    0.121323 0.866620 0.434250 0.186388
H8    H     H_    0.878674 0.133359 0.565581 0.186369
C31   C     C_R   0.974459 0.365390 0.524192 0.044298
C32   C     C_R   0.025538 0.634607 0.475785 0.044299
C33   C     C_R   0.974459 0.634610 0.475808 0.044298
C34   C     C_R   0.025538 0.365392 0.524215 0.044299
C35   C     C_R   0.949261 0.500000 0.500000 0.070846
C36   C     C_R   0.050736 0.500000 0.500000 0.070850
C37   C     C_R   0.947369 0.234869 0.547628 -0.203917
C38   C     C_R   0.052628 0.765120 0.452275 -0.203938
C39   C     C_R   0.947369 0.765131 0.452372 -0.203918
C40   C     C_R   0.052628 0.234880 0.547725 -0.203938
H9    H     H_    0.963289 0.128405 0.567217 0.130696
H10   H     H_    0.036709 0.871574 0.432621 0.130726
H11   H     H_    0.963289 0.871595 0.432784 0.130696
H12   H     H_    0.036709 0.128426 0.567379 0.130726
C41   C     C_1   0.500000 0.065381 0.500019 -0.124981
C42   C     C_1   0.500000 0.934619 0.499981 -0.124981
N3    N     N_1   0.500000 0.500000 0.076820 0.006901
N4    N     N_1   0.500000 0.500000 0.923180 0.006901
F1    F     F_    0.351237 0.443937 0.196510 -0.580106
F2    F     F_    0.648757 0.556907 0.803267 -0.580404
F3    F     F_    0.351237 0.556063 0.803490 -0.580106
F4    F     F_    0.648757 0.443093 0.196733 -0.580404

loop_
_geom_bond_atom_site_label_1
_geom_bond_atom_site_label_2
_geom_bond_distance
_ccdc_geom_bond_type
O5    Cu1   1.953544 S    
C31   C35   1.422428 A    
Cu2   N3    1.975707 S    
C20   C35   1.423328 A    
C11   C17   1.396849 A    
C5    O9    1.349758 S    
C7    N1    1.366175 A    
O1    C1    1.272136 A    
C40   H12   1.074761 S    
C19   C21   1.408698 A    
C22   C26   1.394458 A    
C10   H4    1.083119 S    
C16   F2    1.357664 S    
C15   F1    1.357727 S    
C34   C36   1.422426 A    
C32   C33   1.422944 A    
C7    C23   1.403935 A    
O7    Cu1   1.953541 S    
C5    C21   1.403935 A    
C8    C24   1.403933 A    
C27   H7    1.083498 S    
N1    C17   1.430917 S    
C1    C41   1.404549 S    
C8    N2    1.366173 A    
O3    Cu1   1.933101 S    
C6    O10   1.349767 S    
O3    C2    1.271979 A    
C5    N1    1.366176 A    
C12   C18   1.396875 A    
C6    N2    1.366173 A    
Cu1   Cu2   2.629302 S    
C21   C25   1.394458 A    
O2    C2    1.272136 A    
C10   C18   1.396877 A    
C33   C39   1.417186 A    
C9    C13   1.394382 A    
C39   H11   1.074763 S    
C38   H10   1.074762 S    
C11   C15   1.394382 A    
C12   C16   1.394404 A    
C4    C30   1.478737 S    
O8    Cu2   1.953544 S    
C23   C27   1.394459 A    
C34   C40   1.417188 A    
N2    C18   1.430944 S    
C32   C36   1.422425 A    
C13   C29   1.412230 A    
C19   C36   1.423328 A    
C19   C23   1.408697 A    
C37   H9    1.074764 S    
C14   F4    1.357665 S    
O5    C3    1.283963 A    
C20   C24   1.408692 A    
O6    C4    1.283940 A    
C9    C17   1.396850 A    
C10   C14   1.394404 A    
C32   C38   1.417188 A    
C3    C29   1.478815 S    
O1    Cu1   1.933232 S    
C11   H1    1.083157 S    
C2    C42   1.404549 S    
C12   H2    1.083118 S    
O6    Cu2   1.953541 S    
C8    O12   1.349767 S    
C16   C30   1.412236 A    
C14   C30   1.412235 A    
O4    C1    1.271979 A    
C13   F3    1.357726 S    
Cu1   N4    1.975707 S    
C28   C37   1.387792 A    
C20   C22   1.408691 A    
N3    N4    1.194600 T    
C31   C37   1.417185 A    
O4    Cu2   1.933102 S    
C41   C42   1.187863 T    
O2    Cu2   1.933231 S    
O7    C4    1.283940 A    
C9    H3    1.083157 S    
C33   C35   1.422427 A    
O8    C3    1.283962 A    
C28   H8    1.083497 S    
C24   C28   1.394457 A    
C15   C29   1.412231 A    
C31   C34   1.422944 A    
C6    C22   1.403933 A    
C25   C40   1.387800 A    
C26   C39   1.387792 A    
C25   H5    1.083496 S    
C27   C38   1.387797 A    
C26   H6    1.083496 S    
C7    O11   1.349758 S    
