data_mof_unit_60291.cif
_audit_creation_date              2012-12-10T18:20:19-0500
_audit_creation_method            fapswitch 2.2
_symmetry_space_group_name_H-M    P1
_symmetry_Int_Tables_number       1
_space_group_crystal_system       triclinic
_cell_length_a                    21.525118
_cell_length_b                    21.571225
_cell_length_c                    22.036566
_cell_angle_alpha                 119.235974
_cell_angle_beta                  119.442901
_cell_angle_gamma                 89.628257
_cell_volume                      7399.03751521

loop_
_atom_site_label
_atom_site_type_symbol
_atom_type_description
_atom_site_fract_x
_atom_site_fract_y
_atom_site_fract_z
_atom_type_partial_charge
C1    C     C_R   0.499775 0.121181 0.500041 0.889077
C2    C     C_R   0.501918 0.880695 0.503719 0.885743
C3    C     C_3   0.710230 0.214881 0.917215 0.125761
C4    C     C_3   0.290088 0.785298 0.082842 0.125515
C5    C     C_3   0.767961 0.348173 0.050040 -0.092419
C6    C     C_3   0.235166 0.652333 0.950155 -0.095459
C7    C     C_3   0.794388 0.295844 0.082500 0.035555
C8    C     C_3   0.205939 0.704120 0.917553 0.042014
C9    C     C_3   0.721203 0.241302 0.048696 0.366424
C10   C     C_3   0.277523 0.760898 0.951317 0.361698
C11   C     C_3   0.673555 0.191873 0.951833 -0.517850
C12   C     C_3   0.325116 0.810348 0.048181 -0.516368
C13   C     C_1   0.839106 0.339465 0.174231 0.050868
C14   C     C_1   0.161134 0.660478 0.825804 0.047905
C15   C     C_1   0.663502 0.166258 0.825630 -0.009718
C16   C     C_1   0.336649 0.834025 0.174405 -0.007243
C17   C     C_1   0.625529 0.126859 0.750710 -0.191596
C18   C     C_1   0.374520 0.873447 0.249313 -0.193022
C19   C     C_3   0.422613 0.203682 0.477346 -0.462486
C20   C     C_3   0.582240 0.821079 0.569564 -0.494974
C21   C     C_3   0.421650 0.274558 0.475700 0.707123
C22   C     C_3   0.582896 0.750504 0.571929 0.735892
C23   C     C_R   0.580981 0.080962 0.661931 0.886842
C24   C     C_R   0.419025 0.919280 0.338077 0.886359
C25   C     C_3   0.561039 0.257916 0.589590 -0.059338
C26   C     C_3   0.481087 0.745599 0.415455 -0.027919
C27   C     C_3   0.514544 0.179991 0.433128 0.004347
C28   C     C_3   0.446276 0.796405 0.524830 -0.000673
C29   C     C_3   0.499632 0.188882 0.499400 0.021956
C30   C     C_3   0.501952 0.812460 0.503556 0.021740
C31   C     C_3   0.500402 0.310194 0.500065 -0.003730
C32   C     C_3   0.503009 0.689701 0.499939 -0.019892
C33   C     C_3   0.562976 0.328535 0.588241 -0.468610
C34   C     C_3   0.481646 0.673214 0.413767 -0.479871
C35   C     C_3   0.514060 0.251636 0.432800 -0.029056
C36   C     C_3   0.443482 0.720868 0.517018 0.004855
C37   C     C_3   0.761241 0.555242 0.589951 -0.534249
C38   C     C_3   0.247360 0.421816 0.424984 -0.541965
C39   C     C_3   0.768222 0.420442 0.465333 0.489021
C40   C     C_3   0.213506 0.564572 0.495890 0.510711
C41   C     C_3   0.696556 0.421429 0.464525 0.461452
C42   C     C_3   0.283256 0.561042 0.492851 0.432927
C43   C     C_3   0.689921 0.501469 0.499671 -0.094366
C44   C     C_3   0.310305 0.497105 0.500425 -0.101611
C45   C     C_3   0.755535 0.523734 0.440140 -0.475531
C46   C     C_3   0.253684 0.508403 0.581489 -0.495503
C47   C     C_3   0.685784 0.527059 0.443489 -0.396697
C48   C     C_3   0.325861 0.509498 0.583080 -0.369660
C49   C     C_R   0.877667 0.498936 0.497406 0.959894
C50   C     C_R   0.121093 0.499871 0.499940 0.934616
C51   C     C_R   0.919328 0.419239 0.338089 0.926961
C52   C     C_R   0.080694 0.580759 0.661918 0.917165
C53   C     C_R   0.378406 0.496734 0.500066 0.934185
C54   C     C_R   0.621820 0.501376 0.500113 0.881858
C55   C     C_R   0.500833 0.378517 0.500213 0.885419
C56   C     C_R   0.503229 0.621338 0.499743 0.876070
C57   C     C_3   0.809637 0.499462 0.497510 -0.145380
C58   C     C_3   0.189331 0.499484 0.500100 -0.137437
C59   C     C_3   0.831760 0.555829 0.588226 0.358860
C60   C     C_3   0.175202 0.423880 0.423554 0.358672
C61   C     C_3   0.721713 0.300728 0.950365 0.399619
C62   C     C_3   0.281407 0.699721 0.049833 0.398642
C63   C     C_3   0.787324 0.200164 0.949289 -0.491591
C64   C     C_3   0.211825 0.797538 0.050697 -0.490493
C65   C     C_3   0.839360 0.250646 0.046838 0.735180
C66   C     C_3   0.159893 0.746805 0.953156 0.740134
C67   C     C_1   0.875690 0.375514 0.249229 -0.114667
C68   C     C_1   0.124446 0.624463 0.750795 -0.129361
H1    H     H_    0.757007 0.612921 0.617236 0.192239
H2    H     H_    0.265616 0.375175 0.429947 0.199952
H3    H     H_    0.615437 0.195201 0.926810 0.175296
H4    H     H_    0.383808 0.808821 0.073215 0.173985
H5    H     H_    0.668438 0.132327 0.930126 0.239057
H6    H     H_    0.328313 0.869637 0.069846 0.237615
H7    H     H_    0.687421 0.273901 0.069512 0.115944
H8    H     H_    0.312162 0.730080 0.930518 0.109544
H9    H     H_    0.729017 0.370118 0.068876 0.142326
H10   H     H_    0.274644 0.632375 0.931433 0.140583
H11   H     H_    0.411933 0.209567 0.524238 0.164976
H12   H     H_    0.621624 0.830634 0.553860 0.168573
H13   H     H_    0.375867 0.154862 0.415971 0.218919
H14   H     H_    0.603289 0.871758 0.632683 0.206416
H15   H     H_    0.783755 0.579781 0.460754 0.192061
H16   H     H_    0.238767 0.461382 0.584893 0.185314
H17   H     H_    0.543702 0.265637 0.632288 0.162644
H18   H     H_    0.525596 0.757177 0.406874 0.180346
H19   H     H_    0.556229 0.371484 0.637715 0.183003
H20   H     H_    0.521936 0.649276 0.398913 0.158771
H21   H     H_    0.570686 0.172030 0.451760 0.206960
H22   H     H_    0.389614 0.793430 0.479007 0.201998
H23   H     H_    0.466903 0.237411 0.370185 0.248538
H24   H     H_    0.458199 0.729248 0.577161 0.253139
H25   H     H_    0.618532 0.354270 0.605624 0.214457
H26   H     H_    0.426467 0.629417 0.361939 0.234108
H27   H     H_    0.766171 0.537374 0.631347 0.234854
H28   H     H_    0.235570 0.410481 0.364747 0.249666
H29   H     H_    0.682515 0.585056 0.468915 0.162737
H30   H     H_    0.347369 0.465397 0.591313 0.168271
H31   H     H_    0.804903 0.403158 0.507530 0.096730
H32   H     H_    0.167302 0.559914 0.438479 0.085682
H33   H     H_    0.738345 0.483754 0.374329 0.240395
H34   H     H_    0.263344 0.560932 0.637661 0.238527
H35   H     H_    0.858969 0.613002 0.610519 0.135160
H36   H     H_    0.158174 0.376801 0.425784 0.147359
H37   H     H_    0.699758 0.403153 0.504934 -0.006602
H38   H     H_    0.267966 0.550246 0.431725 0.022244
H39   H     H_    0.634629 0.490908 0.378642 0.245943
H40   H     H_    0.369334 0.564075 0.638395 0.256098
H41   H     H_    0.777870 0.139954 0.926123 0.168357
H42   H     H_    0.219315 0.857613 0.073748 0.168634
H43   H     H_    0.814912 0.208675 0.921417 0.212173
H44   H     H_    0.185177 0.787479 0.078618 0.212171
O1    O     O_R   0.447710 0.092600 0.500010 -0.633699
O2    O     O_R   0.552290 0.907400 0.499990 -0.632828
O3    O     O_R   0.441990 0.534630 0.569310 -0.596098
O4    O     O_R   0.558010 0.465370 0.430690 -0.579236
O5    O     O_R   0.465370 0.372730 0.430660 -0.579509
O6    O     O_R   0.534630 0.627270 0.569340 -0.552354
O7    O     O_R   0.534650 0.442080 0.569370 -0.650898
O8    O     O_R   0.465350 0.557920 0.430630 -0.646348
O9    O     O_R   0.552280 0.092600 0.499960 -0.624546
O10   O     O_R   0.447720 0.907400 0.500040 -0.626765
O11   O     O_R   0.509140 0.061430 0.622880 -0.616803
O12   O     O_R   0.490860 0.938570 0.377120 -0.613386
O13   O     O_R   0.613710 0.061430 0.622840 -0.618549
O14   O     O_R   0.386290 0.938570 0.377160 -0.608139
O15   O     O_R   0.907580 0.552300 0.500030 -0.657122
O16   O     O_R   0.092420 0.447700 0.499970 -0.651267
O17   O     O_R   0.907560 0.447760 0.500050 -0.577558
O18   O     O_R   0.092440 0.552240 0.499950 -0.573795
O19   O     O_R   0.938770 0.490850 0.377130 -0.632724
O20   O     O_R   0.061230 0.509150 0.622870 -0.620937
O21   O     O_R   0.938740 0.386300 0.377150 -0.590090
O22   O     O_R   0.061260 0.613700 0.622850 -0.597481
O23   O     O_R   0.372700 0.465280 0.430600 -0.632122
O24   O     O_R   0.627300 0.534720 0.569400 -0.641282
Zn1   Zn    Zn3+2 0.430180 0.000000 0.500030 0.961367
Zn2   Zn    Zn3+2 0.569820 0.000000 0.499970 0.956535
Zn3   Zn    Zn3+2 0.000200 0.569810 0.499990 1.022307
Zn4   Zn    Zn3+2 0.999800 0.430190 0.500010 1.028822
Zn5   Zn    Zn3+2 0.453740 0.453690 0.407380 1.019249
Zn6   Zn    Zn3+2 0.546260 0.546310 0.592620 1.015770
C69   C     C_3   0.873318 0.202773 0.081322 -0.708645
H45   H     H_    0.829610 0.155567 0.058783 0.248152
H46   H     H_    0.909622 0.178512 0.059475 0.229702
H47   H     H_    0.908921 0.237016 0.150945 0.250267
C70   C     C_3   0.123261 0.793857 0.918529 -0.725745
H48   H     H_    0.165438 0.842322 0.940965 0.250741
H49   H     H_    0.087630 0.759495 0.848907 0.244016
H50   H     H_    0.086470 0.816245 0.940370 0.228487
C71   C     C_3   0.645072 0.316254 0.916138 -0.921963
H51   H     H_    0.612698 0.303323 0.937274 0.220519
H52   H     H_    0.653984 0.376285 0.939301 0.244056
H53   H     H_    0.610147 0.283237 0.846464 0.252057
C72   C     C_3   0.359300 0.686632 0.084248 -0.921859
H54   H     H_    0.390811 0.701291 0.063242 0.219917
H55   H     H_    0.394163 0.719645 0.153930 0.254319
H56   H     H_    0.352337 0.626739 0.061107 0.244020
F1    F     F_    0.736318 0.197329 0.080551 -0.636749
F2    F     F_    0.259971 0.804825 0.919404 -0.642572
F3    F     F_    0.367063 0.253630 0.394639 -0.663903
F4    F     F_    0.598286 0.771135 0.649474 -0.649115
C73   C     C_3   0.398176 0.328475 0.532860 -0.909927
H57   H     H_    0.435860 0.344401 0.598428 0.199870
H58   H     H_    0.398012 0.379569 0.532492 0.221866
H59   H     H_    0.340361 0.301394 0.509118 0.252117
C74   C     C_3   0.647557 0.722507 0.566927 -0.906406
H60   H     H_    0.642307 0.708816 0.508793 0.184619
H61   H     H_    0.701981 0.766677 0.621169 0.262189
H62   H     H_    0.649822 0.672629 0.569890 0.233014
C75   C     C_3   0.459380 0.110118 0.343467 -0.924602
H63   H     H_    0.476524 0.105553 0.301782 0.260202
H64   H     H_    0.459766 0.058275 0.342576 0.246475
H65   H     H_    0.401262 0.113262 0.316554 0.273456
C76   C     C_3   0.465079 0.858757 0.612480 -0.882660
H66   H     H_    0.419005 0.846752 0.618496 0.263343
H67   H     H_    0.517510 0.861760 0.663726 0.285895
H68   H     H_    0.471080 0.914564 0.622678 0.256618
C77   C     C_3   0.585112 0.281236 0.442163 -0.896466
H69   H     H_    0.587991 0.238316 0.389318 0.282081
H70   H     H_    0.582549 0.330933 0.439383 0.284612
H71   H     H_    0.636905 0.295613 0.501691 0.234242
C78   C     C_3   0.362674 0.666594 0.451117 -0.876234
H72   H     H_    0.326013 0.688983 0.473123 0.282215
H73   H     H_    0.338445 0.658864 0.389580 0.232965
H74   H     H_    0.361035 0.611194 0.441521 0.266758
C79   C     C_3   0.640657 0.250751 0.629966 -0.873887
H75   H     H_    0.641813 0.206920 0.642850 0.252961
H76   H     H_    0.662191 0.238555 0.590110 0.252470
H77   H     H_    0.679779 0.303879 0.691599 0.241969
C80   C     C_3   0.407088 0.735092 0.340052 -0.908629
H78   H     H_    0.411031 0.784392 0.336647 0.238580
H79   H     H_    0.395951 0.686019 0.280593 0.247318
H80   H     H_    0.358695 0.726429 0.343622 0.248090
F5    F     F_    0.751268 0.368224 0.385642 -0.601925
F6    F     F_    0.228302 0.633068 0.564816 -0.594238
F7    F     F_    0.634560 0.371877 0.383295 -0.603929
F8    F     F_    0.339889 0.628717 0.556931 -0.624188
F9    F     F_    0.882658 0.538156 0.642459 -0.658287
F10   F     F_    0.117668 0.413843 0.349240 -0.662736
C81   C     C_3   0.829364 0.421209 0.096028 -0.771073
H81   H     H_    0.803817 0.457032 0.074033 0.219827
H82   H     H_    0.854621 0.454202 0.164569 0.235125
H83   H     H_    0.875019 0.411311 0.086110 0.306359
C82   C     C_3   0.175887 0.577761 0.904201 -0.764366
H84   H     H_    0.150671 0.545063 0.835676 0.236963
H85   H     H_    0.203327 0.542633 0.926329 0.218677
H86   H     H_    0.130018 0.585598 0.914006 0.307394
C83   C     C_3   0.761193 0.323371 0.917583 -0.807865
H87   H     H_    0.730639 0.285810 0.848252 0.224558
H88   H     H_    0.762641 0.380780 0.932670 0.234193
H89   H     H_    0.819772 0.321850 0.945183 0.259456
C84   C     C_3   0.243469 0.674948 0.082602 -0.808035
H90   H     H_    0.244054 0.617848 0.067644 0.234415
H91   H     H_    0.273838 0.712421 0.151919 0.228461
H92   H     H_    0.184312 0.674625 0.054894 0.259668
F11   F     F_    0.899502 0.300173 0.069819 -0.657739
F12   F     F_    0.101385 0.695361 0.930261 -0.659536

loop_
_geom_bond_atom_site_label_1
_geom_bond_atom_site_label_2
_ccdc_geom_bond_type
C69   H47   S    
C75   H63   S    
C63   C65   S    
O14   Zn1   S    
C8    C66   S    
C21   C73   S    
C20   H14   S    
C72   H55   S    
C81   H82   S    
C81   H81   S    
C70   H48   S    
C53   O23   A    
C38   H2    S    
C63   H43   S    
C39   C41   S    
C55   O7    A    
C84   H90   S    
C46   H34   S    
C45   C57   S    
C17   C23   S    
C22   C32   S    
C18   C24   S    
C32   C36   S    
O12   Zn2   S    
C73   H58   S    
C12   H6    S    
C78   H73   S    
C5    C81   S    
C65   C69   S    
C11   H3    S    
C6    H10   S    
C27   C29   S    
C9    F1    S    
C58   C60   S    
C69   H45   S    
C39   C57   S    
C4    C62   S    
C24   O12   A    
C83   H89   S    
C49   C57   S    
C62   C72   S    
C37   H27   S    
C53   O3    A    
C7    C9    S    
O11   Zn1   S    
C71   H53   S    
C79   H77   S    
O24   Zn6   S    
C50   O18   A    
C83   H88   S    
C10   H8    S    
C44   C53   S    
C26   C34   S    
C69   H46   S    
C73   H57   S    
C59   F9    S    
C6    C82   S    
C54   O4    A    
C34   H20   S    
C2    O10   A    
C71   H51   S    
C31   C33   S    
C4    C12   S    
C25   C79   S    
C41   C43   S    
C52   C68   S    
C23   O13   A    
C77   H71   S    
C36   H24   S    
C82   H85   S    
C12   H4    S    
O3    Zn6   S    
C46   C58   S    
C72   H56   S    
C24   O14   A    
C56   O8    A    
C45   H15   S    
O15   Zn3   S    
O18   Zn3   S    
C10   C12   S    
C25   H17   S    
C74   H62   S    
C3    C61   S    
C25   C29   S    
C49   O15   A    
C75   H65   S    
C46   C48   S    
C70   H49   S    
C40   C58   S    
C20   H12   S    
C80   H78   S    
C52   O20   A    
C42   F8    S    
C70   H50   S    
C21   F3    S    
C76   H67   S    
C11   H5    S    
C78   H74   S    
C74   H60   S    
C5    C7    S    
O19   Zn3   S    
C51   O19   A    
C76   H68   S    
C45   H33   S    
C23   O11   A    
C27   C35   S    
C82   H84   S    
C39   F5    S    
C77   H69   S    
C74   H61   S    
C32   C34   S    
O9    Zn2   S    
C4    C16   S    
O5    Zn5   S    
C78   H72   S    
C80   H79   S    
C38   C44   S    
C39   H31   S    
C7    C65   S    
C21   C31   S    
C37   H1    S    
C43   C54   S    
C64   H42   S    
C76   H66   S    
O23   Zn5   S    
C26   H18   S    
C54   O24   A    
C73   H59   S    
C25   C33   S    
C1    C29   S    
C83   H87   S    
C50   C58   S    
C5    C61   S    
C36   C78   S    
C51   C67   S    
C61   C83   S    
C19   H11   S    
C61   C71   S    
C84   H91   S    
C66   C70   S    
C37   C59   S    
C41   H37   S    
C46   H16   S    
C22   C74   S    
O2    Zn2   S    
C41   F7    S    
C20   C22   S    
C26   C30   S    
C47   H39   S    
C9    C11   S    
C51   O21   A    
C81   H83   S    
C38   C60   S    
C37   C43   S    
C57   C59   S    
C50   O16   A    
C5    H9    S    
C19   C29   S    
C10   F2    S    
O22   Zn3   S    
C3    C15   S    
C40   F6    S    
C55   O5    A    
C82   H86   S    
C15   C17   T    
C84   H92   S    
C8    C14   S    
C19   C21   S    
C56   O6    A    
C16   C18   T    
C13   C67   T    
O8    Zn5   S    
C34   H26   S    
O10   Zn1   S    
O6    Zn6   S    
C33   H25   S    
C40   H32   S    
C6    C8    S    
C26   C80   S    
C28   C76   S    
C3    C63   S    
O13   Zn2   S    
O20   Zn4   S    
C48   H30   S    
C4    C64   S    
C47   H29   S    
C2    C30   S    
C59   H35   S    
C6    C62   S    
C28   C30   S    
C33   H19   S    
C42   C44   S    
C79   H75   S    
C66   F12   S    
C19   H13   S    
C20   C30   S    
C65   F11   S    
C2    O2    A    
C35   C77   S    
C48   H40   S    
O17   Zn4   S    
C49   O17   A    
C22   F4    S    
C31   C35   S    
C40   C42   S    
C62   C84   S    
C27   H21   S    
O1    Zn1   S    
C71   H52   S    
O16   Zn4   S    
C1    O9    A    
C79   H76   S    
C64   H44   S    
C3    C11   S    
C1    O1    A    
C60   F10   S    
O4    Zn5   S    
C42   H38   S    
C75   H64   S    
C52   O22   A    
C7    C13   S    
C45   C47   S    
C28   C36   S    
O21   Zn4   S    
C8    C10   S    
C38   H28   S    
C72   H54   S    
O7    Zn6   S    
C14   C68   T    
C28   H22   S    
C9    H7    S    
C31   C55   S    
C60   H36   S    
C27   C75   S    
C43   C47   S    
C32   C56   S    
C80   H80   S    
C44   C48   S    
C64   C66   S    
C63   H41   S    
C77   H70   S    
C35   H23   S    
