data_mof_unit_13100.cif
_audit_creation_date              2012-12-10T20:45:32-0500
_audit_creation_method            fapswitch 2.2
_symmetry_space_group_name_H-M    P1
_symmetry_Int_Tables_number       1
_space_group_crystal_system       triclinic
_cell_length_a                    10.693661
_cell_length_b                    10.644861
_cell_length_c                    9.843775
_cell_angle_alpha                 89.678122
_cell_angle_beta                  90.059029
_cell_angle_gamma                 90.230266
_cell_volume                      1120.51456137

loop_
_atom_site_label
_atom_site_type_symbol
_atom_type_description
_atom_site_fract_x
_atom_site_fract_y
_atom_site_fract_z
_atom_type_partial_charge
C1    C     C_R   0.505073 0.259815 0.500347 0.887822
C2    C     C_R   0.227669 0.791306 0.078216 -0.243111
C3    C     C_R   0.932768 0.559867 0.396021 -0.246362
C4    C     C_R   0.872294 0.495915 0.501255 -0.080071
C5    C     C_R   0.938770 0.436950 0.607128 0.061317
C6    C     C_R   0.067009 0.443034 0.604616 -0.202705
C7    C     C_R   0.127678 0.507433 0.499599 -0.095883
C8    C     C_R   0.061132 0.568248 0.394690 0.024902
C9    C     C_R   0.861738 0.428741 0.846001 0.479146
C10   C     C_R   0.801604 0.365585 0.953814 -0.261440
C11   C     C_R   0.757509 0.243318 0.937111 -0.276886
C12   C     C_R   0.260177 0.504151 0.499731 0.875659
C13   C     C_R   0.773233 0.182202 0.813482 -0.113348
C14   C     C_R   0.832580 0.242295 0.704199 0.392976
C15   C     C_R   0.877673 0.367241 0.720494 -0.044590
C16   C     C_R   0.523988 0.063041 0.624255 0.158714
C17   C     C_R   0.528604 0.128694 0.501829 -0.064883
C18   C     C_R   0.560847 0.065927 0.381867 -0.158855
C19   C     C_R   0.562034 0.935753 0.381796 -0.151567
C20   C     C_R   0.529961 0.871154 0.501363 -0.085502
C21   C     C_R   0.524874 0.935107 0.624112 0.130475
C22   C     C_3   0.432217 0.926029 0.737424 -0.489368
C23   C     C_R   0.505747 0.740085 0.499830 0.880822
C24   C     C_3   0.431112 0.068308 0.737320 -0.514352
C25   C     C_R   0.453294 0.399396 0.072023 0.209050
C26   C     C_R   0.557055 0.593438 0.071529 -0.145604
C27   C     C_R   0.557452 0.593208 0.927430 -0.120223
C28   C     C_R   0.451149 0.400569 0.929285 0.234758
C29   C     C_3   0.318516 0.356243 0.926803 -0.532589
C30   C     C_3   0.323316 0.349764 0.080675 -0.492142
C31   C     C_R   0.739843 0.496875 0.500377 0.884516
C32   C     C_R   0.242643 0.827314 0.214776 0.511622
C33   C     C_R   0.190211 0.752745 0.317918 -0.107169
C34   C     C_R   0.120826 0.644571 0.285831 0.048455
C35   C     C_R   0.103513 0.612078 0.149078 -0.194306
C36   C     C_R   0.158391 0.684062 0.045986 -0.158824
H1    H     H_    0.268306 0.846860 0.996927 0.131453
H2    H     H_    0.710817 0.195691 0.020366 0.161919
H3    H     H_    0.739084 0.086930 0.802487 0.162032
H4    H     H_    0.575370 0.116004 0.287023 0.150005
H5    H     H_    0.577078 0.886939 0.286961 0.155498
H6    H     H_    0.341680 0.883631 0.705425 0.212276
H7    H     H_    0.473764 0.885022 0.831191 0.195446
H8    H     H_    0.340005 0.108468 0.704592 0.207721
H9    H     H_    0.472121 0.109251 0.831074 0.201833
H10   H     H_    0.601204 0.669917 0.125540 0.140710
H11   H     H_    0.602306 0.669278 0.872601 0.156860
H12   H     H_    0.253369 0.429317 0.888101 0.220831
H13   H     H_    0.307313 0.262783 0.879343 0.198711
H14   H     H_    0.258465 0.415350 0.131287 0.234584
H15   H     H_    0.320818 0.252070 0.121163 0.204817
H16   H     H_    0.201942 0.780184 0.423025 0.123925
H17   H     H_    0.049296 0.529585 0.122629 0.149438
H18   H     H_    0.146501 0.657165 0.940863 0.187526
H19   H     H_    0.879601 0.607514 0.317238 0.158479
H20   H     H_    0.119567 0.394960 0.683452 0.150813
H21   H     H_    0.788151 0.411386 0.050641 0.148656
N1    N     N_R   0.499160 0.499140 0.142800 -0.102316
N2    N     N_R   0.499160 0.499180 0.857150 -0.104373
O1    O     O_R   0.500020 0.316790 0.614690 -0.616891
O2    O     O_R   0.500000 0.316760 0.385350 -0.625088
O3    O     O_R   0.316770 0.500030 0.614670 -0.624162
O4    O     O_R   0.316750 0.499990 0.385330 -0.609837
O5    O     O_R   0.500000 0.683240 0.614650 -0.624534
O6    O     O_R   0.499980 0.683210 0.385310 -0.621934
O7    O     O_R   0.683250 0.500010 0.614670 -0.601990
O8    O     O_R   0.683230 0.499970 0.385330 -0.636352
Zn1   Zn    Zn3+2 0.500010 0.500020 0.653130 0.957901
Zn2   Zn    Zn3+2 0.499990 0.499980 0.346870 0.946048
O9    O     O_3   0.843982 0.175441 0.584950 -0.782265
H22   H     H_    0.889669 0.225930 0.516455 0.331126
O10   O     O_3   0.305798 0.935345 0.250271 -0.791727
H23   H     H_    0.336871 0.977138 0.166475 0.316077
O11   O     O_3   0.903045 0.551161 0.859461 -0.781473
H24   H     H_    0.879793 0.582091 0.950813 0.317801

loop_
_geom_bond_atom_site_label_1
_geom_bond_atom_site_label_2
_ccdc_geom_bond_type
C31   O7    A    
O7    Zn1   S    
C30   H15   S    
C16   C21   A    
C35   H17   S    
C35   C36   A    
C7    C8    A    
C32   O10   S    
C29   H13   S    
C33   H16   S    
C31   O8    A    
C26   C27   A    
C24   H9    S    
O5    Zn1   S    
C28   C29   S    
C18   C19   A    
C5    C6    A    
C2    C36   A    
C2    C32   A    
C34   C35   A    
C18   H4    S    
C3    H19   S    
C19   C20   A    
C16   C17   A    
O9    H22   S    
C9    C10   A    
C30   H14   S    
C16   C24   S    
C21   C22   S    
C14   O9    S    
C33   C34   A    
C7    C12   S    
C5    C15   S    
O11   H24   S    
C29   H12   S    
O4    Zn2   S    
C10   H21   S    
C3    C8    A    
C1    O1    A    
C12   O4    A    
O10   H23   S    
C25   C28   A    
C11   H2    S    
C29   C30   S    
N2    Zn1   S    
C12   O3    A    
C22   H7    S    
C20   C23   S    
C17   C18   A    
C8    C34   S    
C26   N1    A    
C23   O5    A    
C24   H8    S    
C22   C24   S    
C25   N1    A    
C3    C4    A    
C28   N2    A    
C27   H11   S    
C25   C30   S    
C6    H20   S    
C4    C5    A    
C1    O2    A    
N1    Zn2   S    
C6    C7    A    
C1    C17   S    
O3    Zn1   S    
O2    Zn2   S    
C32   C33   A    
C23   O6    A    
C9    C15   A    
C27   N2    A    
C11   C13   A    
C2    H1    S    
C22   H6    S    
O6    Zn2   S    
C13   H3    S    
C4    C31   S    
C36   H18   S    
C10   C11   A    
C26   H10   S    
C20   C21   A    
O1    Zn1   S    
C9    O11   S    
C14   C15   A    
O8    Zn2   S    
C13   C14   A    
C19   H5    S    
