data_mof_unit_30688.cif
_audit_creation_date              2012-12-11T16:26:25-0500
_audit_creation_method            fapswitch 2.2
_symmetry_space_group_name_H-M    P1
_symmetry_Int_Tables_number       1
_space_group_crystal_system       triclinic
_cell_length_a                    6.936056
_cell_length_b                    17.427783
_cell_length_c                    19.580619
_cell_angle_alpha                 108.515152
_cell_angle_beta                  89.590915
_cell_angle_gamma                 90.59427
_cell_volume                      2244.2558018

loop_
_atom_site_label
_atom_site_type_symbol
_atom_type_description
_atom_site_fract_x
_atom_site_fract_y
_atom_site_fract_z
_atom_type_partial_charge
O1    O     O_R   0.494330 0.415720 0.413720 -0.537604
O2    O     O_R   0.819330 0.430070 0.560210 -0.544869
O3    O     O_R   0.994320 0.584280 0.586280 -0.535901
C1    C     C_R   0.650213 0.415190 0.582037 0.706083
O4    O     O_R   0.823730 0.406300 0.412670 -0.538023
O5    O     O_R   0.998760 0.560340 0.437690 -0.541276
C2    C     C_R   0.654724 0.383056 0.385464 0.691539
O6    O     O_R   0.489890 0.439660 0.562310 -0.542040
O7    O     O_3   0.662340 0.550560 0.508380 -0.368422
V1    V     V_3+5 0.935370 0.490620 0.498450 1.411931
O8    O     O_R   0.328750 0.569930 0.439790 -0.546497
C3    C     C_R   0.160805 0.584901 0.418011 0.705965
O9    O     O_R   0.324340 0.593700 0.587330 -0.537830
C4    C     C_R   0.155493 0.616665 0.614913 0.695697
V2    V     V_3+5 0.435940 0.509380 0.501550 1.409254
O10   O     O_3   0.159100 0.449440 0.491620 -0.368051
H1    H     H_    0.871938 0.854891 0.573182 0.113188
C5    C     C_R   0.291712 0.600524 0.749180 -0.146565
C6    C     C_R   0.356754 0.590358 0.812873 -0.122580
C7    C     C_R   0.344266 0.653555 0.877317 -0.117682
C8    C     C_R   0.266630 0.727420 0.878591 -0.133569
C9    C     C_R   0.200981 0.739938 0.814685 0.069891
C10   C     C_R   0.213834 0.675092 0.748531 0.069505
C11   C     C_R   0.119920 0.814919 0.816196 -0.185229
C12   C     C_R   0.051798 0.824914 0.751390 0.070757
C13   C     C_R   0.064629 0.760066 0.685236 0.069705
C14   C     C_R   0.145645 0.685072 0.683724 -0.186271
C15   C     C_R   0.973999 0.899500 0.750747 -0.149573
C16   C     C_R   0.909003 0.909683 0.687056 -0.127057
C17   C     C_R   0.921446 0.846481 0.622610 -0.117790
C18   C     C_R   0.999003 0.772597 0.621333 -0.132452
H2    H     H_    0.302085 0.549006 0.700764 0.110493
H3    H     H_    0.416014 0.532899 0.812247 0.120866
H4    H     H_    0.393801 0.645154 0.926747 0.115378
H5    H     H_    0.257273 0.774131 0.930344 0.103061
H6    H     H_    0.963660 0.951020 0.799165 0.106667
H7    H     H_    0.849808 0.967156 0.687686 0.115670
H8    H     H_    0.008330 0.725882 0.569581 0.103272
C19   C     C_R   0.990413 0.629154 0.324384 -0.215066
C20   C     C_R   0.152991 0.633887 0.368330 -0.089112
C21   C     C_R   0.307773 0.685192 0.364167 -0.231725
C22   C     C_R   0.299794 0.732140 0.317684 0.090621
C23   C     C_R   0.136899 0.726469 0.273461 0.050851
C24   C     C_R   0.982206 0.674426 0.276579 0.086300
C25   C     C_R   0.451617 0.784922 0.314762 -0.183428
C26   C     C_R   0.443504 0.830915 0.267823 -0.188757
C27   C     C_R   0.283283 0.825032 0.222978 0.087638
C28   C     C_R   0.128629 0.772960 0.226066 0.050962
C29   C     C_R   0.965708 0.767312 0.181859 0.089864
C30   C     C_R   0.813926 0.714501 0.184759 -0.181748
C31   C     C_R   0.822024 0.668515 0.231708 -0.187240
C32   C     C_R   0.274944 0.870410 0.175266 -0.214477
C33   C     C_R   0.112265 0.865770 0.131388 -0.086972
C34   C     C_R   0.957608 0.814360 0.135457 -0.230154
H9    H     H_    0.871012 0.589354 0.326652 0.126007
H10   H     H_    0.433447 0.689468 0.397831 0.129075
H11   H     H_    0.577412 0.790328 0.348534 0.133029
H12   H     H_    0.563287 0.870796 0.266317 0.129285
H13   H     H_    0.394291 0.910256 0.173049 0.124364
H14   H     H_    0.831907 0.810119 0.101817 0.128773
H15   H     H_    0.688125 0.709101 0.150992 0.133771
H16   H     H_    0.702214 0.628649 0.233227 0.131675
C35   C     C_R   0.785277 0.177934 0.862822 -0.211859
C36   C     C_R   0.623480 0.129245 0.864707 -0.043203
C37   C     C_R   0.466728 0.127447 0.818865 -0.179102
C38   C     C_R   0.470507 0.173546 0.771646 0.084831
C39   C     C_R   0.631422 0.223559 0.771191 0.052316
C40   C     C_R   0.789044 0.225940 0.817130 0.087909
C41   C     C_R   0.315835 0.170809 0.725040 -0.187585
C42   C     C_R   0.318954 0.218191 0.679137 -0.186975
C43   C     C_R   0.476862 0.269147 0.678938 0.091833
C44   C     C_R   0.634536 0.271424 0.724840 0.053547
C45   C     C_R   0.795377 0.321492 0.724481 0.086098
C46   C     C_R   0.950041 0.324259 0.771088 -0.186062
C47   C     C_R   0.946929 0.276894 0.816971 -0.177883
C48   C     C_R   0.480475 0.317425 0.633408 -0.230504
C49   C     C_R   0.642104 0.366305 0.631761 -0.087049
C50   C     C_R   0.798974 0.367821 0.677497 -0.216368
H17   H     H_    0.906070 0.180067 0.898246 0.135416
H18   H     H_    0.342019 0.089666 0.819640 0.114969
H19   H     H_    0.191482 0.132446 0.724484 0.130788
H20   H     H_    0.197061 0.215340 0.644075 0.132609
H21   H     H_    0.359420 0.315673 0.598197 0.127738
H22   H     H_    0.923463 0.405847 0.677076 0.124813
H23   H     H_    0.074304 0.362690 0.771709 0.135017
H24   H     H_    0.068725 0.279813 0.852097 0.150791
H25   H     H_    0.864875 0.129472 0.418099 0.114334
C51   C     C_R   0.504800 0.409951 0.259205 -0.143936
C52   C     C_R   0.430726 0.426886 0.200307 -0.181542
C53   C     C_R   0.434806 0.368728 0.133364 -0.092911
C54   C     C_R   0.512262 0.291925 0.124016 -0.002218
C55   C     C_R   0.569237 0.269331 0.185428 -0.012865
C56   C     C_R   0.571454 0.331624 0.253916 0.077617
C57   C     C_R   0.623257 0.188562 0.181754 -0.189121
C58   C     C_R   0.687714 0.173158 0.245082 0.084186
C59   C     C_R   0.701171 0.237179 0.311538 0.068719
C60   C     C_R   0.643483 0.316182 0.315863 -0.176074
C61   C     C_R   0.736480 0.093811 0.243990 -0.144051
C62   C     C_R   0.800840 0.078718 0.305668 -0.127910
C63   C     C_R   0.816028 0.141544 0.370148 -0.116327
C64   C     C_R   0.765725 0.219785 0.373490 -0.139978
H26   H     H_    0.508268 0.459839 0.308875 0.121157
H27   H     H_    0.377507 0.486855 0.206092 0.129181
H28   H     H_    0.387924 0.385885 0.087586 0.151409
H29   H     H_    0.724130 0.042036 0.195900 0.110436
H30   H     H_    0.837831 0.017751 0.303450 0.116392
H31   H     H_    0.775720 0.266020 0.425486 0.104557
O11   O     O_R   0.775200 0.060470 0.937800 -0.553327
O12   O     O_R   0.441110 0.093720 0.087350 -0.530375
O13   O     O_R   0.266330 0.939630 0.062280 -0.543380
C65   C     C_R   0.610333 0.118704 0.113751 0.680966
O14   O     O_R   0.445750 0.069950 0.939820 -0.524814
O15   O     O_R   0.271000 0.915700 0.913700 -0.540449
C66   C     C_R   0.614592 0.081721 0.915551 0.722553
O16   O     O_R   0.770530 0.084400 0.086380 -0.539533
O17   O     O_3   0.602830 0.949510 0.991680 -0.373906
V3    V     V_3+5 0.329710 0.009370 0.001550 1.452949
O18   O     O_R   0.940990 0.906170 0.912570 -0.540139
C67   C     C_R   0.109902 0.883291 0.885015 0.688852
O19   O     O_R   0.936350 0.929940 0.060100 -0.545787
C68   C     C_R   0.104316 0.914934 0.081852 0.702997
V4    V     V_3+5 0.829160 0.990450 0.998310 1.409306
O20   O     O_3   0.105910 0.050480 0.008320 -0.361270
C69   C     C_2   0.553562 0.243583 0.048866 0.361095
H32   H     H_    0.684245 0.208480 0.035802 0.026352
O21   O     O_2   0.446692 0.246178 0.000336 -0.538407

loop_
_geom_bond_atom_site_label_1
_geom_bond_atom_site_label_2
_ccdc_geom_bond_type
C64   H31   S    
C21   C22   A    
C58   C59   A    
C1    O6    A    
O14   C66   A    
C58   C61   A    
O12   V3    S    
C35   H17   S    
C33   C34   A    
O19   C68   A    
C40   C47   A    
C25   H11   S    
C13   C14   A    
C61   H29   S    
O17   V4    S    
C8    C9    A    
C15   C16   A    
C39   C44   A    
O12   C65   A    
O13   C68   A    
O18   V4    S    
C17   C18   A    
C38   C41   A    
V2    O10   S    
C61   C62   A    
C57   C65   S    
O17   V3    S    
C48   H21   S    
C5    C6    A    
C45   C46   A    
O11   C66   A    
O18   C67   A    
C55   C56   A    
O15   C67   A    
O8    V2    S    
C19   H9    S    
C62   C63   A    
C45   C50   A    
C42   C43   A    
O1    V2    S    
C10   C14   A    
C4    C14   S    
C23   C28   A    
C7    H4    S    
C38   C39   A    
C13   C18   A    
O16   V4    S    
C59   C64   A    
C52   H27   S    
H1    C17   S    
C41   C42   A    
C31   H16   S    
O13   V3    S    
O19   V4    S    
C36   C66   S    
C46   C47   A    
C39   C40   A    
C11   C12   A    
C6    H3    S    
C52   C53   A    
C19   C20   A    
O4    C2    A    
C51   C56   A    
C34   H14   S    
C12   C13   A    
C49   C50   A    
C5    C10   A    
C12   C15   A    
C22   C25   A    
C3    C20   S    
O2    C1    A    
C23   C24   A    
C21   H10   S    
C16   C17   A    
C32   H13   S    
C50   H22   S    
C65   O16   A    
C47   H24   S    
C27   C28   A    
C59   C60   A    
C7    C8    A    
C55   C57   A    
C30   C31   A    
C48   C49   A    
C53   H28   S    
C27   C32   A    
O3    C4    A    
O15   V3    S    
C24   C31   A    
C20   C21   A    
C37   C38   A    
O6    V2    S    
C54   C69   S    
O9    V2    S    
C9    C11   A    
C5    H2    S    
C22   C23   A    
O2    V1    S    
C56   C60   A    
C43   C48   A    
C54   C55   A    
C32   C33   A    
C69   O21   D    
H25   C63   S    
O7    V1    S    
C62   H30   S    
C26   C27   A    
C28   C29   A    
C11   C67   S    
C2    C60   S    
O1    C2    A    
O11   V4    S    
C44   C45   A    
O5    V1    S    
C51   H26   S    
O8    C3    A    
C19   C24   A    
C8    H5    S    
C35   C40   A    
C18   H8    S    
C36   C37   A    
C6    C7    A    
V3    O20   S    
C1    C49   S    
O3    V1    S    
C33   C68   S    
O5    C3    A    
C53   C54   A    
O14   V3    S    
C63   C64   A    
C46   H23   S    
O7    V2    S    
C57   C58   A    
C42   H20   S    
C41   H19   S    
C35   C36   A    
C25   C26   A    
O4    V1    S    
C43   C44   A    
C51   C52   A    
C15   H6    S    
C29   C30   A    
C16   H7    S    
C37   H18   S    
C30   H15   S    
C9    C10   A    
V1    O10   S    
V4    O20   S    
O9    C4    A    
C26   H12   S    
C29   C34   A    
C69   H32   S    
