data_mof_unit_67809.cif
_audit_creation_date              2013-03-05T15:41:23-0500
_audit_creation_method            fapswitch 2.2
_symmetry_space_group_name_H-M    P1
_symmetry_Int_Tables_number       1
_space_group_crystal_system       triclinic
_cell_length_a                    7.911297
_cell_length_b                    8.722953
_cell_length_c                    10.762632
_cell_angle_alpha                 92.732993
_cell_angle_beta                  87.262524
_cell_angle_gamma                 92.065609
_cell_volume                      740.611953896

loop_
_atom_site_label
_atom_site_type_symbol
_atom_site_description
_atom_site_fract_x
_atom_site_fract_y
_atom_site_fract_z
_atom_type_partial_charge
O1    O     O_R   0.389250 0.738570 0.508370 -0.603917
O2    O     O_R   0.678390 0.711620 0.486510 -0.656955
C1    C     C_R   0.545080 0.792835 0.506859 0.906375
O3    O     O_R   0.355430 0.513500 0.696140 -0.584820
O4    O     O_R   0.644580 0.486550 0.674270 -0.607005
C2    C     C_R   0.504494 0.509760 0.741463 0.832866
Zn1   Zn    Zn3+2 0.306940 0.517990 0.514600 1.113217
Zn2   Zn    Zn3+2 0.693060 0.482010 0.485400 1.088306
O5    O     O_R   0.321610 0.288380 0.513490 -0.572534
O6    O     O_R   0.610750 0.261430 0.491630 -0.592506
O7    O     O_R   0.355420 0.513450 0.325730 -0.575934
O8    O     O_R   0.644570 0.486500 0.303860 -0.553921
C3    C     C_R   0.457396 0.206350 0.507736 0.924318
C4    C     C_R   0.493973 0.495719 0.258294 0.895403
C5    C     C_3   0.326554 0.554463 0.932651 -0.433236
H1    H     H_    0.243791 0.459330 0.896457 0.250867
H2    H     H_    0.282056 0.656695 0.888483 0.256986
C6    C     C_3   0.311414 0.572338 0.077450 0.496684
H3    H     H_    0.485915 0.266168 0.857387 0.158977
C7    C     C_3   0.554137 0.355473 0.915633 -0.510281
C8    C     C_3   0.638250 0.637570 0.931946 -0.029948
C9    C     C_3   0.507406 0.516716 0.878863 -0.096826
H4    H     H_    0.765456 0.605611 0.892285 0.231287
C10   C     C_3   0.484782 0.503194 0.121796 -0.236160
C11   C     C_3   0.517698 0.333101 0.058222 0.303440
C12   C     C_3   0.637842 0.617343 0.076977 -0.083379
H5    H     H_    0.754048 0.553131 0.090348 0.257809
H6    H     H_    0.688485 0.340952 0.884919 0.263561
C13   C     C_2   0.573063 0.954014 0.527693 -0.109046
C14   C     C_2   0.439175 0.043055 0.514547 -0.369761
H7    H     H_    0.312637 0.994421 0.500539 0.207341
N1    N     N_2   0.950330 0.457950 0.465890 0.080890
N2    N     N_2   0.049670 0.542050 0.534110 0.037451
N3    N     N_R   0.664686 0.261478 0.111678 0.235949
O9    O     O_R   0.650005 0.203258 0.220808 -0.390467
O10   O     O_R   0.802250 0.232989 0.045297 -0.359579
C15   C     C_3   0.751698 0.017352 0.552858 -0.312119
C16   C     C_3   0.884584 0.910672 0.595637 -0.709965
H8    H     H_    0.824665 0.825496 0.657543 0.273197
H9    H     H_    0.950449 0.851586 0.514376 0.267000
H10   H     H_    0.982378 0.977156 0.648150 0.278791
H11   H     H_    0.801432 0.059600 0.462675 0.303093
H12   H     H_    0.742240 0.110152 0.627132 0.246954
N4    N     N_R   0.003239 0.311175 0.436637 0.304671
O11   O     O_R   0.964869 0.247815 0.329595 -0.349294
O12   O     O_R   0.024981 0.222237 0.527347 -0.415702
N5    N     N_R   0.996913 0.553807 0.659081 0.283560
O13   O     O_R   0.955596 0.429261 0.716964 -0.358513
O14   O     O_R   0.052758 0.671420 0.725591 -0.463192
N6    N     N_R   0.296253 0.737264 0.117532 0.177098
O15   O     O_R   0.297677 0.778371 0.235292 -0.419141
O16   O     O_R   0.229936 0.832506 0.045731 -0.483842
N7    N     N_R   0.152267 0.492530 0.123625 0.199796
O17   O     O_R   0.047603 0.428469 0.045938 -0.379699
O18   O     O_R   0.084494 0.533324 0.231801 -0.347726
C17   C     C_3   0.365692 0.211346 0.064903 -0.440341
C18   C     C_3   0.294873 0.162447 0.192164 -0.545175
H13   H     H_    0.378312 0.081963 0.234158 0.259558
H14   H     H_    0.272155 0.261001 0.256873 0.260894
H15   H     H_    0.172119 0.099288 0.179679 0.297448
H16   H     H_    0.260067 0.244822 0.010070 0.250937
H17   H     H_    0.409234 0.103966 0.015589 0.229519
C19   C     C_3   0.608868 0.801672 0.885797 -0.424298
C20   C     C_3   0.762313 0.913163 0.893850 -0.785259
H18   H     H_    0.773500 0.965341 0.987623 0.309260
H19   H     H_    0.881992 0.855968 0.866807 0.298992
H20   H     H_    0.746420 0.009933 0.832776 0.255473
H21   H     H_    0.577961 0.792851 0.786319 0.191865
H22   H     H_    0.498583 0.854861 0.933982 0.256309
C21   C     C_3   0.660494 0.770496 0.159505 -0.366273
C22   C     C_3   0.845651 0.815307 0.180809 -0.684528
H23   H     H_    0.891259 0.750188 0.257775 0.292453
H24   H     H_    0.925113 0.790655 0.095381 0.306684
H25   H     H_    0.858296 0.939437 0.207990 0.280829
H26   H     H_    0.595118 0.867587 0.123692 0.254165
H27   H     H_    0.601415 0.762184 0.253648 0.231063

loop_
_geom_bond_atom_site_label_1
_geom_bond_atom_site_label_2
_geom_bond_distance
_ccdc_geom_bond_type
C15   H12   1.112134 S    
C22   H25   1.110306 S    
N6    O16   1.301546 A    
C8    C12   1.579030 S    
C21   C22   1.527531 S    
C17   H16   1.101337 S    
C5    C6    1.558097 S    
C12   C21   1.578161 S    
H3    C7    1.116498 S    
C11   C17   1.576782 S    
C19   H22   1.099307 S    
C11   N3    1.491359 S    
Zn2   O8    2.011516 S    
N1    N2    1.287285 D    
C2    C9    1.478385 S    
N7    O18   1.297774 A    
O2    C1    1.295812 A    
C12   H5    1.112234 S    
C5    C9    1.557991 S    
C22   H23   1.107798 S    
N5    O14   1.299090 A    
O1    Zn1   2.012098 S    
N7    O17   1.298151 A    
C20   H18   1.093345 S    
Zn1   O7    2.049302 S    
Zn1   N2    2.053415 S    
C14   H7    1.087457 S    
C1    C13   1.424164 S    
C18   H13   1.106826 S    
C13   C14   1.352541 D    
O3    Zn1   2.011517 S    
C6    C10   1.619375 S    
O3    C2    1.299605 A    
O8    C4    1.316403 A    
C16   H9    1.111263 S    
C15   C16   1.529964 S    
C10   C12   1.610437 S    
N6    O15   1.301058 A    
N3    O10   1.298035 A    
C8    H4    1.113799 S    
N1    N4    1.378813 S    
O4    C2    1.310672 A    
N2    N5    1.389279 S    
O7    C4    1.295275 A    
C17   H17   1.111797 S    
C18   H14   1.094741 S    
O4    Zn2   2.049303 S    
C8    C19   1.566083 S    
C17   C18   1.528733 S    
C21   H27   1.099842 S    
C4    C10   1.478987 S    
C5    H1    1.106105 S    
Zn2   N1    2.053415 S    
C20   H20   1.108539 S    
Zn1   O5    2.009844 S    
C3    C14   1.431523 S    
C21   H26   1.102311 S    
C16   H8    1.101044 S    
C10   C11   1.628317 S    
C6    N6    1.489458 S    
C16   H10   1.110176 S    
Zn2   O6    2.012097 S    
N3    O9    1.300196 A    
C7    C11   1.567974 S    
C13   C15   1.530305 S    
C15   H11   1.104475 S    
C5    H2    1.106425 S    
O5    C3    1.309448 A    
C19   H21   1.108051 S    
C18   H15   1.109752 S    
C7    H6    1.107771 S    
C6    N7    1.492273 S    
O1    C1    1.304195 A    
C8    C9    1.558737 S    
C22   H24   1.105664 S    
N4    O12   1.297096 A    
O2    Zn2   2.009844 S    
N4    O11   1.298242 A    
C19   C20   1.530975 S    
C7    C9    1.541463 S    
N5    O13   1.301810 A    
O6    C3    1.295627 A    
C20   H19   1.106331 S    
