data_mof_unit_54692.cif
_audit_creation_date              2012-12-10T19:45:04-0500
_audit_creation_method            fapswitch 2.2
_symmetry_space_group_name_H-M    P1
_symmetry_Int_Tables_number       1
_space_group_crystal_system       triclinic
_cell_length_a                    14.986765
_cell_length_b                    10.8382
_cell_length_c                    13.855127
_cell_angle_alpha                 89.11016
_cell_angle_beta                  91.900184
_cell_angle_gamma                 86.119532
_cell_volume                      2243.73148943

loop_
_atom_site_label
_atom_site_type_symbol
_atom_type_description
_atom_site_fract_x
_atom_site_fract_y
_atom_site_fract_z
_atom_type_partial_charge
C1    C     C_R   0.496252 0.262807 0.500188 0.802882
C2    C     C_R   0.503750 0.737193 0.499811 0.802851
C3    C     C_R   0.059066 0.285318 0.556646 -0.204248
C4    C     C_R   0.940934 0.714690 0.443339 -0.204244
C5    C     C_R   0.299803 0.257615 0.255306 -0.077204
C6    C     C_R   0.700248 0.742326 0.744608 -0.077244
C7    C     C_R   0.340687 0.197537 0.336854 -0.120312
C8    C     C_R   0.659339 0.802417 0.663079 -0.120306
C9    C     C_R   0.423488 0.129875 0.329934 0.127592
C10   C     C_R   0.576558 0.870119 0.670043 0.127591
C11   C     C_R   0.464547 0.122655 0.240334 -0.119961
C12   C     C_R   0.535547 0.877371 0.759669 -0.119920
C13   C     C_R   0.423630 0.183490 0.159024 -0.127694
C14   C     C_R   0.576491 0.816526 0.840962 -0.127663
C15   C     C_R   0.341180 0.250474 0.166450 -0.122394
C16   C     C_R   0.658918 0.749496 0.833490 -0.122357
C17   C     C_R   0.476003 0.937796 0.416652 -0.230138
C18   C     C_R   0.524015 0.062202 0.583340 -0.230141
C19   C     C_R   0.506806 0.871121 0.499794 -0.089025
C20   C     C_R   0.493204 0.128877 0.500201 -0.089038
C21   C     C_R   0.533417 0.934042 0.583532 -0.012538
C22   C     C_R   0.466602 0.065956 0.416459 -0.012545
C23   C     C_R   0.328978 0.499991 0.498779 0.824312
C24   C     C_R   0.671022 0.500015 0.501221 0.824311
C25   C     C_R   0.575537 0.453057 0.799351 0.537824
C26   C     C_R   0.424457 0.546921 0.200646 0.537826
C27   C     C_R   0.424897 0.540435 0.790573 -0.070204
C28   C     C_R   0.575106 0.459572 0.209428 -0.070204
C29   C     C_R   0.422114 0.534345 0.892481 -0.001999
C30   C     C_R   0.577889 0.465654 0.107519 -0.001997
C31   C     C_R   0.500398 0.501037 0.948450 0.046539
C32   C     C_R   0.499608 0.498971 0.051548 0.046532
C33   C     C_R   0.579268 0.468258 0.901682 -0.099884
C34   C     C_R   0.420733 0.531724 0.098315 -0.099917
C35   C     C_R   0.342136 0.558344 0.939584 -0.211021
C36   C     C_R   0.657861 0.441607 0.060415 -0.211063
C37   C     C_R   0.340896 0.553245 0.040429 -0.102028
C38   C     C_R   0.659101 0.446676 0.959569 -0.102029
C39   C     C_R   0.807095 0.607555 0.473548 -0.280535
C40   C     C_R   0.192905 0.392453 0.526444 -0.280506
C41   C     C_R   0.767491 0.500974 0.503456 -0.037326
C42   C     C_R   0.232510 0.499035 0.496541 -0.037247
C43   C     C_R   0.819788 0.393772 0.530966 -0.153348
C44   C     C_R   0.180214 0.606236 0.469023 -0.153304
C45   C     C_R   0.912807 0.392649 0.530274 0.093944
C46   C     C_R   0.087194 0.607359 0.469712 0.093936
C47   C     C_R   0.953230 0.500293 0.500803 0.057023
C48   C     C_R   0.046771 0.499717 0.499186 0.057023
C49   C     C_R   0.900119 0.608299 0.472484 0.120729
C50   C     C_R   0.099881 0.391710 0.527505 0.120723
C51   C     C_R   0.965994 0.285725 0.557884 -0.192598
C52   C     C_R   0.034007 0.714282 0.442098 -0.192599
Cu1   Cu    Cu3+1 0.500010 0.499980 0.597420 1.015570
Cu2   Cu    Cu3+1 0.499990 0.500020 0.402580 1.015588
H1    H     H_    0.765367 0.689344 0.451134 0.125468
H2    H     H_    0.234633 0.310663 0.548855 0.125465
H3    H     H_    0.455972 0.890302 0.352146 0.200439
H4    H     H_    0.544057 0.109694 0.647842 0.200475
H5    H     H_    0.365480 0.573109 0.748933 0.158688
H6    H     H_    0.634522 0.426898 0.251068 0.158688
H7    H     H_    0.280021 0.579168 0.898480 0.146167
H8    H     H_    0.719972 0.420744 0.101519 0.146167
H9    H     H_    0.276066 0.565980 0.071923 0.211636
H10   H     H_    0.723925 0.433855 0.928076 0.211677
H11   H     H_    0.788162 0.310754 0.550856 0.151966
H12   H     H_    0.211841 0.689250 0.449122 0.151984
H13   H     H_    0.935597 0.202575 0.580530 0.149402
H14   H     H_    0.064404 0.797431 0.419449 0.149399
H15   H     H_    0.099109 0.201911 0.578407 0.145156
H16   H     H_    0.900892 0.798096 0.421576 0.145156
H17   H     H_    0.309377 0.296888 0.103357 0.138321
H18   H     H_    0.690741 0.703071 0.896568 0.138334
H19   H     H_    0.235965 0.309478 0.261003 0.163991
H20   H     H_    0.764069 0.690430 0.738873 0.163975
H21   H     H_    0.307959 0.203436 0.405282 0.098881
H22   H     H_    0.692030 0.796498 0.594630 0.098843
H23   H     H_    0.528424 0.070986 0.233795 0.127240
H24   H     H_    0.471687 0.929073 0.766242 0.127245
H25   H     H_    0.455774 0.178663 0.090240 0.144349
H26   H     H_    0.544384 0.821381 0.909768 0.144323
N1    N     N_R   0.499960 0.499900 0.743810 -0.235675
N2    N     N_R   0.500040 0.500100 0.256190 -0.235659
O1    O     O_R   0.500000 0.319630 0.582270 -0.529487
O2    O     O_R   0.500000 0.680370 0.417730 -0.529513
O3    O     O_R   0.499990 0.319660 0.417730 -0.585264
O4    O     O_R   0.500010 0.680340 0.582270 -0.585266
O5    O     O_R   0.370260 0.499960 0.582280 -0.615196
O6    O     O_R   0.629740 0.500040 0.417720 -0.615177
O7    O     O_R   0.370250 0.499990 0.417740 -0.491638
O8    O     O_R   0.629750 0.500010 0.582260 -0.491706
S1    S     S_3+6 0.667336 0.355676 0.754548 -0.013225
O9    O     O_2   0.745685 0.433472 0.742808 -0.332351
O10   O     O_2   0.693233 0.256351 0.829403 -0.338379
O11   O     O_3   0.650525 0.280644 0.651759 -0.539533
H27   H     H_    0.693177 0.206636 0.655307 0.345041
S2    S     S_3+6 0.332622 0.644221 0.245458 -0.013223
O12   O     O_2   0.306586 0.743457 0.170577 -0.338401
O13   O     O_2   0.254351 0.566314 0.257324 -0.332288
O14   O     O_3   0.349479 0.719372 0.348187 -0.539559
H28   H     H_    0.306828 0.793386 0.344610 0.345046

loop_
_geom_bond_atom_site_label_1
_geom_bond_atom_site_label_2
_ccdc_geom_bond_type
Cu2   O6    S    
C13   H25   S    
C27   C29   A    
C18   C21   A    
C2    O2    A    
C16   H18   S    
Cu2   O2    S    
C39   C41   A    
Cu1   Cu2   S    
C23   C42   S    
C4    C52   A    
C19   C21   A    
C9    C22   S    
C45   C51   A    
C34   C37   A    
S2    O14   S    
C46   C52   A    
C8    H22   S    
Cu1   N1    S    
C11   H23   S    
C44   H12   S    
C26   C34   A    
C39   H1    S    
C31   C32   A    
C40   H2    S    
C12   H24   S    
C23   O7    A    
Cu1   O4    S    
C14   H26   S    
C52   H14   S    
C3    H15   S    
C48   C50   A    
C26   N2    A    
C23   O5    A    
C25   N1    A    
C24   C41   S    
C41   C43   A    
C42   C44   A    
Cu1   O5    S    
C36   H8    S    
C4    H16   S    
C37   H9    S    
C3    C50   A    
C44   C46   A    
C6    H20   S    
C38   H10   S    
C45   C47   A    
C10   C21   S    
C26   S2    S    
C46   C48   A    
C25   S1    S    
C28   N2    A    
C47   C48   A    
C27   N1    A    
Cu2   O7    S    
C47   C49   A    
S1    O9    D    
C5    C7    A    
C3    C51   A    
C6    C8    A    
S2    O13   D    
C32   C34   A    
S1    O10   D    
C24   O6    A    
O14   H28   S    
C43   H11   S    
S2    O12   D    
C31   C33   A    
C35   H7    S    
C51   H13   S    
C9    C11   A    
C28   H6    S    
C10   C12   A    
C8    C10   A    
C39   C49   A    
C20   C22   A    
C13   C15   A    
C14   C16   A    
C1    O3    A    
Cu2   N2    S    
C7    C9    A    
C1    C20   S    
C35   C37   A    
C2    C19   S    
C33   C38   A    
C12   C14   A    
C40   C42   A    
C24   O8    A    
Cu2   O3    S    
C7    H21   S    
C1    O1    A    
C15   H17   S    
C29   C35   A    
C17   C22   A    
C30   C36   A    
C4    C49   A    
Cu1   O1    S    
C36   C38   A    
C43   C45   A    
C27   H5    S    
S1    O11   S    
C30   C32   A    
C11   C13   A    
C40   C50   A    
C28   C30   A    
C17   C19   A    
C18   H4    S    
C2    O4    A    
C18   C20   A    
C5    H19   S    
O11   H27   S    
C5    C15   A    
C6    C16   A    
C29   C31   A    
C17   H3    S    
Cu1   O8    S    
C25   C33   A    
