data_mof_unit_16499.cif
_audit_creation_date              2012-12-10T17:45:13-0500
_audit_creation_method            fapswitch 2.2
_symmetry_space_group_name_H-M    P1
_symmetry_Int_Tables_number       1
_space_group_crystal_system       triclinic
_cell_length_a                    17.90113
_cell_length_b                    17.870105
_cell_length_c                    17.864014
_cell_angle_alpha                 115.425512
_cell_angle_beta                  92.558148
_cell_angle_gamma                 69.631406
_cell_volume                      4801.19858671

loop_
_atom_site_label
_atom_site_type_symbol
_atom_type_description
_atom_site_fract_x
_atom_site_fract_y
_atom_site_fract_z
_atom_type_partial_charge
C1    C     C_R   0.464099 0.462810 0.287664 0.501698
C2    C     C_R   0.923447 0.578767 0.593497 -0.089001
C3    C     C_R   0.962776 0.630933 0.648634 0.259812
C4    C     C_R   0.536015 0.535466 0.712031 0.500037
C5    C     C_R   0.042034 0.617081 0.623702 0.024243
C6    C     C_R   0.080199 0.551012 0.542203 -0.004713
C7    C     C_R   0.085107 0.665869 0.679114 -0.053252
C8    C     C_R   0.165673 0.647522 0.656878 0.086306
C9    C     C_R   0.161897 0.532348 0.521957 -0.127983
C10   C     C_R   0.541599 0.560897 0.801526 0.029676
C11   C     C_R   0.451740 0.447063 0.202114 0.042145
C12   C     C_R   0.842801 0.346196 0.354218 -0.084741
C13   C     C_R   0.542680 0.673663 0.938795 -0.083995
C14   C     C_R   0.546963 0.643427 0.852715 -0.141467
C15   C     C_R   0.534119 0.507268 0.837649 0.075471
C16   C     C_R   0.463799 0.730143 0.554316 0.499612
C17   C     C_R   0.514713 0.544494 0.925371 0.036573
C18   C     C_R   0.525841 0.625642 0.976746 0.017569
C19   C     C_R   0.485282 0.502838 0.963165 0.035931
C20   C     C_R   0.484235 0.530588 0.050511 -0.014690
C21   C     C_R   0.501463 0.607599 0.099434 -0.114904
C22   C     C_R   0.519642 0.656515 0.064360 0.239219
C23   C     C_R   0.835195 0.482214 0.473064 -0.129951
C24   C     C_R   0.450850 0.439036 0.917003 -0.054896
C25   C     C_R   0.426788 0.394529 0.952577 -0.083174
C26   C     C_R   0.435078 0.412971 0.035798 0.040489
C27   C     C_R   0.463265 0.481828 0.086282 0.040541
C28   C     C_R   0.536648 0.268914 0.445596 0.531732
C29   C     C_R   0.414855 0.363403 0.069199 -0.102135
C30   C     C_R   0.423800 0.379968 0.151933 -0.108851
C31   C     C_R   0.471178 0.497545 0.170102 -0.105488
C32   C     C_R   0.558232 0.173689 0.424910 0.062564
C33   C     C_R   0.449736 0.822667 0.575650 0.043035
C34   C     C_R   0.916838 0.464187 0.454482 -0.035523
C35   C     C_R   0.637903 0.016664 0.344622 -0.099265
C36   C     C_R   0.617946 0.105020 0.358827 0.091769
C37   C     C_R   0.520706 0.151525 0.475397 -0.077255
C38   C     C_R   0.546443 0.064316 0.467387 0.040546
C39   C     C_R   0.602015 0.996005 0.397479 0.030258
C40   C     C_R   0.288537 0.554891 0.554320 0.525438
C41   C     C_R   0.514102 0.042733 0.523770 -0.030651
C42   C     C_R   0.525735 0.952121 0.499688 -0.009886
C43   C     C_R   0.580071 0.885677 0.427537 -0.084403
C44   C     C_R   0.619433 0.907503 0.379387 -0.072899
C45   C     C_R   0.957897 0.392789 0.376407 0.025306
C46   C     C_R   0.472099 0.108144 0.603756 0.191023
C47   C     C_R   0.418580 0.090350 0.643478 0.265778
C48   C     C_R   0.426828 0.000891 0.618527 0.009430
C49   C     C_R   0.483408 0.930978 0.548755 -0.012679
C50   C     C_R   0.382938 0.978868 0.664641 -0.059171
C51   C     C_R   0.393665 0.890855 0.642650 -0.121979
C52   C     C_R   0.712495 0.446251 0.445934 0.519628
C53   C     C_R   0.494305 0.842051 0.529488 -0.096067
C54   C     C_R   0.797749 0.424908 0.422808 -0.024400
C55   C     C_R   0.203693 0.579722 0.578171 0.080240
C56   C     C_R   0.957962 0.516368 0.510797 -0.012834
C57   C     C_R   0.923540 0.327483 0.332219 0.270361
C58   C     C_R   0.036858 0.503110 0.484555 -0.010809
C59   C     C_R   0.068582 0.445431 0.400141 -0.087913
C60   C     C_R   0.029333 0.392606 0.345516 0.270208
H1    H     H_    0.057538 0.717476 0.740669 0.198173
H2    H     H_    0.393059 0.311077 0.030954 0.152355
H3    H     H_    0.661194 0.854453 0.325286 0.164981
H4    H     H_    0.537032 0.785552 0.479149 0.102250
H5    H     H_    0.359624 0.875830 0.679364 0.129883
H6    H     H_    0.681733 0.964087 0.292002 0.137964
H7    H     H_    0.469857 0.202669 0.519996 0.192808
H8    H     H_    0.594240 0.815561 0.405854 0.136723
H9    H     H_    0.341790 0.028483 0.719936 0.205915
H10   H     H_    0.815883 0.297544 0.319620 0.189131
H11   H     H_    0.798378 0.542621 0.524959 0.151622
H12   H     H_    0.495700 0.545588 0.211294 0.104692
H13   H     H_    0.121993 0.444274 0.373469 0.163843
H14   H     H_    0.866051 0.586606 0.618023 0.160141
H15   H     H_    0.113416 0.390931 0.162207 0.380739
H16   H     H_    0.470486 0.799910 0.252535 0.352657
H17   H     H_    0.616950 0.388889 0.757628 0.260427
H18   H     H_    0.520656 0.398246 0.742999 0.303212
H19   H     H_    0.215712 0.208633 0.756414 0.381434
H20   H     H_    0.648035 0.089237 0.243891 0.249022
H21   H     H_    0.719622 0.099625 0.308520 0.248883
H22   H     H_    0.635560 0.112672 0.631205 0.353384
H23   H     H_    0.409111 0.340484 0.176830 0.131577
H24   H     H_    0.251593 0.653528 0.733863 0.244704
H25   H     H_    0.171372 0.748532 0.767477 0.246433
H26   H     H_    0.936480 0.735343 0.876299 0.383829
H27   H     H_    0.976443 0.087809 0.247248 0.381022
H28   H     H_    0.401911 0.344984 0.914465 0.195453
H29   H     H_    0.549530 0.736707 0.974839 0.209944
H30   H     H_    0.554096 0.685170 0.826143 0.158960
H31   H     H_    0.496809 0.634143 0.166308 0.145303
H32   H     H_    0.438398 0.425363 0.853805 0.188499
H33   H     H_    0.196166 0.478410 0.464081 0.106225
N1    N     N_3   0.559131 0.412601 0.788055 -0.572823
N2    N     N_3   0.657946 0.123988 0.305249 -0.567889
N3    N     N_3   0.209490 0.696673 0.714076 -0.608534
O1    O     O_3   0.500000 0.500000 0.500000 -0.460718
O2    O     O_R   0.309700 0.585900 0.509470 -0.526769
O3    O     O_R   0.674980 0.398780 0.398780 -0.534399
O4    O     O_R   0.340340 0.501790 0.578230 -0.530478
O5    O     O_R   0.674980 0.513530 0.513520 -0.536186
O6    O     O_2   0.121387 0.259303 0.203655 -0.187706
O7    O     O_2   0.986960 0.350411 0.190029 -0.222646
O8    O     O_3   0.097626 0.418172 0.223231 -0.534907
O9    O     O_2   0.618729 0.747435 0.108751 -0.237565
O10   O     O_2   0.475318 0.833750 0.125401 -0.274193
O11   O     O_3   0.528780 0.771670 0.232803 -0.531352
O12   O     O_R   0.524320 0.685780 0.578230 -0.533761
O13   O     O_2   0.362246 0.185156 0.806639 -0.283454
O14   O     O_2   0.327525 0.267466 0.722207 -0.202225
O15   O     O_3   0.253876 0.161661 0.706390 -0.528219
O16   O     O_2   0.456694 0.281368 0.669646 -0.248423
O17   O     O_2   0.510170 0.202710 0.754443 -0.228177
O18   O     O_3   0.603358 0.168831 0.628318 -0.512517
O19   O     O_2   0.904334 0.801353 0.763199 -0.265063
O20   O     O_2   0.828921 0.709230 0.760045 -0.254665
O21   O     O_3   0.964550 0.685410 0.821846 -0.513884
O22   O     O_2   0.983936 0.194356 0.178024 -0.180297
O23   O     O_R   0.567430 0.291230 0.398780 -0.501851
O24   O     O_2   0.066424 0.192471 0.291718 -0.223227
O25   O     O_3   0.941270 0.149669 0.284335 -0.531072
O26   O     O_R   0.417260 0.532000 0.348010 -0.532431
O27   O     O_R   0.490990 0.490990 0.674980 -0.536602
O28   O     O_R   0.524330 0.409580 0.302030 -0.531355
O29   O     O_R   0.567420 0.567430 0.674980 -0.536082
O30   O     O_R   0.417260 0.693460 0.509470 -0.527914
O31   O     O_R   0.490990 0.329540 0.513520 -0.522955
S1    S     S_3+6 0.058525 0.351363 0.237227 0.072262
S2    S     S_3+6 0.536083 0.755054 0.132826 0.007949
S3    S     S_3+6 0.340529 0.180061 0.722766 0.047431
S4    S     S_3+6 0.509232 0.193581 0.666773 0.036770
S5    S     S_3+6 0.911544 0.710037 0.749962 0.016972
S6    S     S_3+6 0.982358 0.214157 0.268738 0.079925
Zn1   Zn    Zn3+2 0.565540 0.565550 0.565540 0.963736
Zn2   Zn    Zn3+2 0.412570 0.576510 0.467300 0.967592
Zn3   Zn    Zn3+2 0.456340 0.456340 0.565550 0.983305
Zn4   Zn    Zn3+2 0.565550 0.401610 0.401610 0.980547

loop_
_geom_bond_atom_site_label_1
_geom_bond_atom_site_label_2
_ccdc_geom_bond_type
O29   Zn1   S    
O10   S2    D    
C45   C60   A    
C34   C56   A    
O18   S4    S    
C6    C58   A    
C35   C36   A    
C8    N3    S    
O11   S2    S    
C15   N1    S    
C7    C8    A    
O5    Zn1   S    
C45   C57   A    
C26   C27   A    
C29   C30   A    
C13   C18   A    
C32   C36   A    
C50   H9    S    
O6    S1    D    
C10   C15   A    
H24   N3    S    
C38   C39   A    
H21   N2    S    
C53   H4    S    
H17   N1    S    
O24   S6    D    
C51   H5    S    
C30   H23   S    
O21   S5    S    
C1    O26   A    
C7    H1    S    
C17   C19   A    
C29   H2    S    
C14   H30   S    
C19   C20   A    
C11   C30   A    
C43   H8    S    
O8    S1    S    
C41   C46   A    
C9    C55   A    
C59   H13   S    
C2    H14   S    
C28   O31   A    
C23   C34   A    
C48   C50   A    
C41   C42   A    
C11   C31   A    
C59   C60   A    
C13   C14   A    
C57   S6    S    
O1    Zn1   S    
C6    C9    A    
C24   H32   S    
C8    C55   A    
O1    Zn4   S    
C52   C54   S    
C50   C51   A    
O19   S5    D    
C44   H3    S    
C33   C53   A    
C52   O5    A    
C47   S3    S    
C27   C31   A    
C3    S5    S    
O23   Zn4   S    
C23   H11   S    
O28   Zn4   S    
C28   C32   S    
C24   C25   A    
H22   O18   S    
C38   C41   A    
C10   C14   A    
C46   S4    S    
C5    C7    A    
O9    S2    D    
C35   H6    S    
C58   C59   A    
O2    Zn2   S    
C25   H28   S    
C4    O27   A    
C35   C39   A    
C43   C44   A    
O12   Zn1   S    
C37   C38   A    
C16   C33   S    
O15   S3    S    
C47   C48   A    
O20   S5    D    
C60   S1    S    
C40   C55   S    
C17   C18   A    
C34   C45   A    
C32   C37   A    
O31   Zn3   S    
H20   N2    S    
O7    S1    D    
O22   S6    D    
C12   C57   A    
C4    O29   A    
C48   C49   A    
O30   Zn2   S    
H16   O11   S    
C22   S2    S    
H15   O8    S    
C42   C43   A    
O1    Zn2   S    
C4    C10   S    
C9    H33   S    
C23   C54   A    
H27   O25   S    
C21   H31   S    
C15   C17   A    
C12   H10   S    
C46   C47   A    
C31   H12   S    
O17   S4    D    
C13   H29   S    
C18   C22   A    
C19   C24   A    
C3    C5    A    
C28   O23   A    
C40   O4    A    
C39   C44   A    
C20   C27   A    
C33   C51   A    
C52   O3    A    
H19   O15   S    
O27   Zn3   S    
C2    C3    A    
C25   C26   A    
C1    O28   A    
C2    C56   A    
C40   O2    A    
C36   N2    S    
C5    C6    A    
H18   N1    S    
C49   C53   A    
C37   H7    S    
H25   N3    S    
C56   C58   A    
O14   S3    D    
H26   O21   S    
O16   S4    D    
O26   Zn2   S    
C16   O12   A    
C42   C49   A    
C20   C21   A    
C26   C29   A    
O13   S3    D    
O3    Zn4   S    
C1    C11   S    
O1    Zn3   S    
O25   S6    S    
C21   C22   A    
C16   O30   A    
C12   C54   A    
O4    Zn3   S    
