data_mof_unit_50319.cif
_audit_creation_date              2012-12-11T14:35:55-0500
_audit_creation_method            fapswitch 2.2
_symmetry_space_group_name_H-M    P1
_symmetry_Int_Tables_number       1
_space_group_crystal_system       triclinic
_cell_length_a                    14.691253
_cell_length_b                    16.045441
_cell_length_c                    6.909092
_cell_angle_alpha                 90.0
_cell_angle_beta                  81.045615
_cell_angle_gamma                 90.000019
_cell_volume                      1608.81467765

loop_
_atom_site_label
_atom_site_type_symbol
_atom_type_description
_atom_site_fract_x
_atom_site_fract_y
_atom_site_fract_z
_atom_type_partial_charge
O1    O     O_R   0.337460 0.413110 0.524760 -0.517950
O2    O     O_R   0.662540 0.913110 0.475240 -0.517949
O3    O     O_R   0.348690 0.587910 0.191230 -0.545168
O4    O     O_R   0.651310 0.087910 0.808770 -0.545167
O5    O     O_R   0.166530 0.586890 0.082470 -0.545194
O6    O     O_R   0.833470 0.086890 0.917530 -0.545194
C1    C     C_R   0.371677 0.615398 0.352454 0.605247
C2    C     C_R   0.628322 0.115398 0.647546 0.605246
O7    O     O_R   0.348700 0.413830 0.191250 -0.530298
O8    O     O_R   0.651300 0.913830 0.808750 -0.530296
O9    O     O_R   0.166530 0.411570 0.082490 -0.516514
O10   O     O_R   0.833470 0.911570 0.917510 -0.516512
C3    C     C_R   0.371292 0.385566 0.353658 0.817383
C4    C     C_R   0.628707 0.885567 0.646342 0.817385
O11   O     O_R   0.337460 0.588430 0.524740 -0.565737
O12   O     O_R   0.662540 0.088430 0.475260 -0.565739
O13   O     O_3   0.192230 0.499460 0.407330 -0.353703
O14   O     O_3   0.807770 0.999460 0.592670 -0.353705
V1    V     V_3+5 0.263080 0.500100 0.108540 1.520640
V2    V     V_3+5 0.736920 0.000100 0.891460 1.520647
O15   O     O_R   0.155290 0.412090 0.756570 -0.537602
O16   O     O_R   0.844710 0.912090 0.243430 -0.537602
C5    C     C_R   0.132857 0.382499 0.933841 0.765235
C6    C     C_R   0.867143 0.882499 0.066159 0.765249
O17   O     O_R   0.155290 0.586170 0.756550 -0.523203
O18   O     O_R   0.844710 0.086170 0.243450 -0.523204
C7    C     C_R   0.132447 0.615165 0.932889 0.737213
C8    C     C_R   0.867554 0.115165 0.067111 0.737212
V3    V     V_3+5 0.240910 0.499900 0.616030 1.528399
V4    V     V_3+5 0.759090 0.999900 0.383970 1.528403
O19   O     O_3   0.311760 0.500540 0.867100 -0.375190
O20   O     O_3   0.688240 0.000540 0.132900 -0.375190
C9    C     C_3   0.055920 0.723124 0.174464 -0.382727
C10   C     C_3   0.944081 0.223123 0.825535 -0.382726
H1    H     H_    0.038620 0.673686 0.287158 0.203853
H2    H     H_    0.961380 0.173685 0.712841 0.203853
H3    H     H_    0.124498 0.748639 0.192987 0.182504
H4    H     H_    0.875503 0.248639 0.807013 0.182505
C11   C     C_3   0.982916 0.793164 0.212372 -0.355525
C12   C     C_3   0.017085 0.293163 0.787626 -0.355522
H5    H     H_    0.015634 0.850611 0.259730 0.228661
H6    H     H_    0.984369 0.350610 0.740265 0.228660
H7    H     H_    0.928995 0.774418 0.336087 0.192208
H8    H     H_    0.071007 0.274416 0.663913 0.192210
H9    H     H_    0.941867 0.608627 0.064868 0.151534
H10   H     H_    0.058135 0.108627 0.935130 0.151534
H11   H     H_    0.839419 0.710021 0.103163 0.083755
H12   H     H_    0.160584 0.210021 0.896843 0.083757
C13   C     C_3   0.962263 0.653841 0.944352 0.180862
C14   C     C_3   0.037738 0.153841 0.055648 0.180862
C15   C     C_3   0.086635 0.757226 0.816270 -0.332249
C16   C     C_3   0.913365 0.257226 0.183729 -0.332250
C17   C     C_3   0.060774 0.685349 0.965174 -0.064179
C18   C     C_3   0.939227 0.185348 0.034825 -0.064177
H13   H     H_    0.088533 0.733792 0.664149 0.164072
H14   H     H_    0.911468 0.233791 0.335850 0.164072
H15   H     H_    0.157516 0.779166 0.826719 0.175311
H16   H     H_    0.842484 0.279164 0.173282 0.175310
C19   C     C_3   0.937685 0.810750 0.027186 -0.062990
C20   C     C_3   0.062316 0.310750 0.972814 -0.062988
C21   C     C_3   0.890758 0.727494 0.974979 0.049363
C22   C     C_3   0.109243 0.227494 0.025025 0.049359
C23   C     C_3   0.016276 0.830477 0.852696 0.168535
C24   C     C_3   0.983724 0.330477 0.147301 0.168537
H17   H     H_    0.985615 0.840046 0.717059 0.157960
H18   H     H_    0.014383 0.340048 0.282939 0.157959
H19   H     H_    0.433812 0.696269 0.642228 0.093885
H20   H     H_    0.566184 0.196267 0.357774 0.093885
C25   C     C_2   0.443669 0.680490 0.335101 0.338645
C26   C     C_2   0.556329 0.180488 0.664901 0.338648
C27   C     C_2   0.467455 0.715963 0.498258 -0.306533
C28   C     C_2   0.532543 0.215961 0.501744 -0.306529
H21   H     H_    0.520389 0.801625 0.795748 0.158051
H22   H     H_    0.479605 0.301619 0.204253 0.158055
C29   C     C_2   0.558570 0.818825 0.654035 -0.433419
C30   C     C_2   0.441428 0.318822 0.345967 -0.433418
C31   C     C_2   0.540996 0.779844 0.489595 0.523448
C32   C     C_2   0.459003 0.279844 0.510408 0.523443
Br1   Br    Br    0.959229 0.587975 0.704631 -0.458394
Br2   Br    Br    0.040772 0.087972 0.295366 -0.458392
Br3   Br    Br    0.819446 0.741090 0.757593 -0.602573
Br4   Br    Br    0.180551 0.241091 0.242416 -0.602576
O21   O     O_3   0.589560 0.801004 0.308576 -0.509682
C33   C     C_3   0.667467 0.749079 0.270043 -0.099279
H23   H     H_    0.695044 0.756069 0.113125 0.169389
H24   H     H_    0.650987 0.681949 0.297402 0.120744
H25   H     H_    0.721433 0.768443 0.356971 0.129589
O22   O     O_3   0.410447 0.301012 0.691430 -0.509681
C34   C     C_3   0.332534 0.249093 0.729981 -0.099259
H26   H     H_    0.304956 0.256095 0.886895 0.169383
H27   H     H_    0.349008 0.181961 0.702647 0.120748
H28   H     H_    0.278570 0.268454 0.643043 0.129578
O23   O     O_3   0.481282 0.710077 0.150245 -0.527281
C35   C     C_3   0.526112 0.645423 0.032349 -0.177615
H29   H     H_    0.479952 0.620242 0.933819 0.147606
H30   H     H_    0.551672 0.593839 0.117875 0.103242
H31   H     H_    0.586872 0.672032 0.937027 0.172710
O24   O     O_3   0.518716 0.210075 0.849757 -0.527281
C36   C     C_3   0.473887 0.145419 0.967651 -0.177628
H32   H     H_    0.520047 0.120239 0.066184 0.147609
H33   H     H_    0.448329 0.093835 0.882124 0.103242
H34   H     H_    0.413125 0.172028 0.062970 0.172709
Br5   Br    Br    0.080839 0.933806 0.889123 -0.547056
Br6   Br    Br    0.919160 0.433806 0.110868 -0.547055

loop_
_geom_bond_atom_site_label_1
_geom_bond_atom_site_label_2
_ccdc_geom_bond_type
C23   H17   S    
O23   C35   S    
C12   C20   S    
O13   V3    S    
C33   H25   S    
O4    C2    A    
V1    O19   S    
C11   H5    S    
O9    V1    S    
C14   C18   S    
H22   C30   S    
C10   C12   S    
C33   H24   S    
O3    C1    A    
C31   O21   S    
O12   V4    S    
C2    C26   S    
O14   V2    S    
C20   C22   S    
C25   C27   D    
O7    C3    A    
C28   C32   S    
O13   V1    S    
O5    C7    A    
O7    V1    S    
O6    C8    A    
O21   C33   S    
O8    V2    S    
O3    V1    S    
O14   V4    S    
C34   H27   S    
H19   C27   S    
C12   H6    S    
C22   Br4   S    
C2    O12   A    
O17   V3    S    
H21   C29   S    
C16   C18   S    
O11   V3    S    
C9    C17   S    
C5    C20   S    
C19   C21   S    
C13   C21   S    
C15   C23   S    
C33   H23   S    
C23   Br5   S    
C16   C24   S    
C8    C18   S    
C11   H7    S    
C1    O11   A    
C35   H31   S    
O15   V3    S    
C9    H3    S    
C13   Br1   S    
C15   C17   S    
C24   H18   S    
H11   C21   S    
H12   C22   S    
C36   H32   S    
C3    C30   S    
H9    C13   S    
H20   C28   S    
C11   C19   S    
O10   V2    S    
O1    V3    S    
C9    C11   S    
C34   H28   S    
C35   H30   S    
C29   C31   D    
C16   H16   S    
C15   H15   S    
C36   H33   S    
C10   C18   S    
O15   C5    A    
O8    C4    A    
C14   C22   S    
O16   C6    A    
C19   C23   S    
O1    C3    A    
C27   C31   S    
V2    O20   S    
C32   O22   S    
C24   Br6   S    
O10   C6    A    
O16   V4    S    
C10   H4    S    
O18   C8    A    
C30   C32   D    
C14   Br2   S    
C1    C25   S    
C7    C17   S    
O18   V4    S    
O5    V1    S    
O17   C7    A    
O6    V2    S    
H10   C14   S    
C25   O23   S    
O2    V4    S    
C20   C24   S    
C4    C29   S    
V3    O19   S    
C21   Br3   S    
V4    O20   S    
C6    C19   S    
C13   C17   S    
O9    C5    A    
C9    H1    S    
C10   H2    S    
C15   H13   S    
C35   H29   S    
O2    C4    A    
O4    V2    S    
C26   O24   S    
C12   H8    S    
C36   H34   S    
O22   C34   S    
O24   C36   S    
C26   C28   D    
C34   H26   S    
C16   H14   S    
