data_mof_unit_6041.cif
_audit_creation_date              2012-12-10T17:03:29-0500
_audit_creation_method            fapswitch 2.2
_symmetry_space_group_name_H-M    P1
_symmetry_Int_Tables_number       1
_space_group_crystal_system       triclinic
_cell_length_a                    15.072401
_cell_length_b                    10.829738
_cell_length_c                    9.769158
_cell_angle_alpha                 109.216706
_cell_angle_beta                  98.968363
_cell_angle_gamma                 90.714661
_cell_volume                      1483.87928012

loop_
_atom_site_label
_atom_site_type_symbol
_atom_type_description
_atom_site_fract_x
_atom_site_fract_y
_atom_site_fract_z
_atom_type_partial_charge
C1    C     C_R   0.488315 0.253780 0.443466 0.851445
C2    C     C_2   0.490524 0.492404 0.919980 -0.081570
C3    C     C_R   0.328627 0.500479 0.500660 0.790479
C4    C     C_R   0.671452 0.500071 0.499510 0.826782
C5    C     C_R   0.801897 0.496310 0.371895 -0.248002
C6    C     C_R   0.198541 0.506645 0.629272 -0.253523
C7    C     C_R   0.768345 0.500386 0.499260 -0.079281
C8    C     C_R   0.231963 0.501946 0.501603 -0.069474
C9    C     C_R   0.827637 0.505442 0.627299 -0.242866
C10   C     C_R   0.172805 0.498515 0.374150 -0.251535
C11   C     C_R   0.920180 0.506189 0.628865 0.107830
C12   C     C_R   0.499307 0.746003 0.556001 0.851898
C13   C     C_R   0.080359 0.498749 0.373004 0.108810
C14   C     C_R   0.953752 0.502176 0.500645 0.061620
C15   C     C_R   0.046796 0.502713 0.501240 0.062734
C16   C     C_R   0.894368 0.497438 0.371766 0.110610
C17   C     C_R   0.106172 0.506989 0.629964 0.112800
C18   C     C_R   0.979621 0.510794 0.756381 -0.211672
C19   C     C_R   0.020988 0.494754 0.245722 -0.214536
C20   C     C_3   0.375852 0.828513 0.335828 -0.340310
C21   C     C_3   0.304451 0.889370 0.251693 -0.375265
C22   C     C_3   0.249846 0.783771 0.118884 -0.851998
C23   C     C_R   0.072179 0.511166 0.756918 -0.216350
C24   C     C_3   0.389820 0.153548 0.633783 -0.367331
C25   C     C_3   0.307519 0.086887 0.663011 -0.357969
C26   C     C_3   0.270491 0.177098 0.794551 -0.867486
C27   C     C_R   0.928432 0.493980 0.245074 -0.211911
C28   C     C_2   0.472776 0.113920 0.417778 -0.396284
C29   C     C_2   0.484620 0.884506 0.577869 -0.403371
C30   C     C_2   0.430299 0.066590 0.504336 0.112177
C31   C     C_2   0.430987 0.924420 0.476960 0.091591
C32   C     C_2   0.507369 0.511302 0.081103 -0.083989
Cu1   Cu    Cu3+1 0.515770 0.521810 0.644910 0.931348
Cu2   Cu    Cu3+1 0.484230 0.478190 0.355090 0.924628
H1    H     H_    0.756212 0.492926 0.273093 0.152931
H2    H     H_    0.213857 0.712859 0.154906 0.247365
H3    H     H_    0.199308 0.829989 0.059267 0.250271
H4    H     H_    0.257600 0.941516 0.324730 0.220470
H5    H     H_    0.337079 0.960151 0.211535 0.229306
H6    H     H_    0.422572 0.780355 0.259911 0.215358
H7    H     H_    0.339992 0.752898 0.365269 0.207747
H8    H     H_    0.320833 0.196739 0.896269 0.244957
H9    H     H_    0.253440 0.271206 0.777787 0.248722
H10   H     H_    0.208566 0.128988 0.808220 0.252629
H11   H     H_    0.253529 0.061474 0.565161 0.217750
H12   H     H_    0.244219 0.509262 0.727809 0.148864
H13   H     H_    0.325736 0.995675 0.685906 0.231600
H14   H     H_    0.442727 0.182533 0.733584 0.197724
H15   H     H_    0.366683 0.243275 0.611897 0.201079
H16   H     H_    0.518468 0.956658 0.679798 0.147479
H17   H     H_    0.496814 0.046274 0.323491 0.140599
H18   H     H_    0.435703 0.424479 0.849130 0.157040
H19   H     H_    0.560459 0.582210 0.152949 0.158495
H20   H     H_    0.591402 0.618209 0.932345 0.190710
H21   H     H_    0.409891 0.379835 0.067193 0.190461
H22   H     H_    0.801898 0.508306 0.725867 0.155996
H23   H     H_    0.198559 0.495792 0.275617 0.153795
H24   H     H_    0.954524 0.513946 0.855511 0.138422
H25   H     H_    0.046124 0.491937 0.146713 0.137479
H26   H     H_    0.117124 0.514596 0.856398 0.140115
H27   H     H_    0.883527 0.490582 0.145597 0.138565
H28   H     H_    0.294707 0.730353 0.042247 0.255167
N1    N     N_2   0.460520 0.445420 0.137370 -0.287018
N2    N     N_2   0.539480 0.554580 0.862630 -0.284450
O1    O     O_R   0.508410 0.332340 0.577400 -0.572866
O2    O     O_R   0.491590 0.667660 0.422600 -0.584974
O3    O     O_R   0.481780 0.295500 0.332650 -0.564671
O4    O     O_R   0.518220 0.704500 0.667350 -0.562628
O5    O     O_R   0.383570 0.518390 0.622380 -0.591172
O6    O     O_R   0.616430 0.481610 0.377620 -0.579108
O7    O     O_R   0.356940 0.481550 0.377630 -0.587178
O8    O     O_R   0.643060 0.518450 0.622370 -0.577060

loop_
_geom_bond_atom_site_label_1
_geom_bond_atom_site_label_2
_ccdc_geom_bond_type
Cu2   O3    S    
C1    C28   S    
C1    O1    A    
C5    C7    A    
C11   C18   A    
C12   C29   S    
C22   H28   S    
C22   H2    S    
Cu2   O6    S    
C3    O7    A    
C28   H17   S    
C21   H5    S    
Cu1   O5    S    
C30   C31   S    
C9    C11   A    
C7    C9    A    
Cu2   O2    S    
C16   C27   A    
C4    O6    A    
Cu1   Cu2   S    
Cu1   O1    S    
C29   C31   D    
C9    H22   S    
C10   C13   A    
C21   C22   S    
C24   C25   S    
C12   O4    A    
C17   C23   A    
C2    H18   S    
C4    C7    S    
H20   N2    S    
C5    H1    S    
C28   C30   D    
Cu2   N1    S    
C1    O3    A    
C3    O5    A    
C2    N2    D    
C26   H9    S    
C20   H7    S    
C24   C30   S    
C29   H16   S    
C13   C15   A    
C6    H12   S    
C23   H26   S    
C20   H6    S    
C11   C14   A    
C14   C16   A    
C13   C19   A    
C26   H10   S    
C18   C23   A    
C24   H14   S    
C25   H11   S    
C32   H19   S    
C4    O8    A    
C10   H23   S    
C19   C27   A    
C20   C21   S    
C26   H8    S    
C2    C32   S    
C3    C8    S    
C24   H15   S    
C15   C17   A    
C6    C17   A    
C25   H13   S    
C14   C15   A    
C5    C16   A    
C6    C8    A    
C27   H27   S    
Cu1   O8    S    
C19   H25   S    
C25   C26   S    
C22   H3    S    
C12   O2    A    
Cu2   O7    S    
C18   H24   S    
C8    C10   A    
C21   H4    S    
C32   N1    D    
H21   N1    S    
Cu1   O4    S    
C20   C31   S    
Cu1   N2    S    
