data_mof_unit_59485.cif
_audit_creation_date              2013-03-05T15:45:30-0500
_audit_creation_method            fapswitch 2.2
_symmetry_space_group_name_H-M    P1
_symmetry_Int_Tables_number       1
_space_group_crystal_system       triclinic
_cell_length_a                    9.810502
_cell_length_b                    11.057276
_cell_length_c                    13.37188
_cell_angle_alpha                 94.400922
_cell_angle_beta                  81.496871
_cell_angle_gamma                 111.609986
_cell_volume                      1333.37597854

loop_
_atom_site_label
_atom_site_type_symbol
_atom_site_description
_atom_site_fract_x
_atom_site_fract_y
_atom_site_fract_z
_atom_type_partial_charge
O1    O     O_R   0.426290 0.668220 0.490680 -0.602909
O2    O     O_R   0.659360 0.703290 0.520190 -0.514874
C1    C     C_R   0.557545 0.745959 0.506934 0.769972
O3    O     O_R   0.326580 0.473880 0.629020 -0.572793
O4    O     O_R   0.559660 0.508940 0.658530 -0.578432
C2    C     C_R   0.420838 0.482265 0.690610 0.802379
Cu1   Cu    Cu3+1 0.362000 0.479240 0.482530 0.974934
Cu2   Cu    Cu3+1 0.638000 0.520760 0.517470 0.982394
O5    O     O_R   0.340640 0.296710 0.479810 -0.552018
O6    O     O_R   0.573710 0.331780 0.509320 -0.590340
O7    O     O_R   0.440340 0.491060 0.341470 -0.569289
O8    O     O_R   0.673420 0.526120 0.370980 -0.575513
C3    C     C_R   0.443132 0.254380 0.492328 0.852401
C4    C     C_R   0.577089 0.509076 0.309167 0.798600
C5    C     C_R   0.741153 0.406754 0.060235 -0.184131
H1    H     H_    0.800966 0.435690 0.210587 0.162030
H2    H     H_    0.739588 0.332419 0.866076 0.158817
H3    H     H_    0.828812 0.370933 0.031431 0.145684
C6    C     C_R   0.615246 0.493115 0.200082 -0.064001
C7    C     C_R   0.246263 0.498352 0.839681 -0.274364
C8    C     C_R   0.199534 0.494211 0.942913 -0.122016
C9    C     C_R   0.280061 0.467257 0.009994 0.396404
C10   C     C_R   0.417609 0.452456 0.972997 -0.032236
C11   C     C_R   0.451311 0.435616 0.867095 0.041663
C12   C     C_R   0.523012 0.453859 0.036355 0.071903
C13   C     C_R   0.639839 0.410096 0.997399 0.162011
C14   C     C_R   0.654107 0.370389 0.896233 -0.226394
C15   C     C_R   0.562442 0.384248 0.831622 -0.159414
C16   C     C_R   0.520608 0.504331 0.135754 -0.242271
C17   C     C_R   0.727414 0.446064 0.161683 -0.168137
C18   C     C_R   0.370909 0.468370 0.800226 -0.096724
H4    H     H_    0.444468 0.552310 0.165131 0.199389
H5    H     H_    0.183007 0.523429 0.790302 0.170904
H6    H     H_    0.097683 0.509570 0.971051 0.159273
H7    H     H_    0.577808 0.350750 0.754262 0.180193
H8    H     H_    0.631778 0.138804 0.492539 0.219714
H9    H     H_    0.377474 0.865823 0.485853 0.169608
C19   C     C_2   0.592531 0.886466 0.511584 0.177953
C20   C     C_2   0.487941 0.932252 0.497381 -0.270405
H10   H     H_    0.296862 0.048316 0.487128 0.182144
C21   C     C_2   0.410100 0.114918 0.489622 -0.352366
C22   C     C_2   0.518711 0.071011 0.493024 -0.096821
H11   H     H_    0.125612 0.576866 0.568886 0.150992
H12   H     H_    0.872697 0.420173 0.433190 0.158186
N1    N     N_2   0.845330 0.551960 0.543750 -0.280083
C23   C     C_2   0.922089 0.489337 0.491627 -0.044258
H13   H     H_    0.106263 0.385107 0.399760 0.212739
N2    N     N_2   0.154690 0.448120 0.456210 -0.268756
C24   C     C_2   0.077014 0.509117 0.509462 -0.046224
H14   H     H_    0.895175 0.617520 0.598423 0.204497
N3    N     N_R   0.737474 0.972023 0.532153 0.122357
O9    O     O_R   0.854646 0.954549 0.484500 -0.348819
O10   O     O_R   0.751559 0.054820 0.608094 -0.366491
O11   O     O_3   0.212983 0.443447 0.108277 -0.753364
H15   H     H_    0.240049 0.374506 0.133742 0.326303

loop_
_geom_bond_atom_site_label_1
_geom_bond_atom_site_label_2
_geom_bond_distance
_ccdc_geom_bond_type
C5    H3    1.083656 S    
C10   C11   1.419783 A    
C8    H6    1.082972 S    
C16   H4    1.080205 S    
C21   C22   1.331113 D    
H8    C22   1.085603 S    
H13   N2    1.030772 S    
Cu2   O8    1.939767 S    
Cu1   N2    2.014022 S    
C3    C21   1.452971 S    
O2    C1    1.289985 A    
C11   C18   1.421818 A    
Cu1   Cu2   2.680719 S    
H9    C20   1.087867 S    
O1    Cu1   1.946981 S    
N1    C23   1.298888 D    
Cu1   O7    1.923742 S    
C9    O11   1.378145 S    
C23   C24   1.506364 S    
C13   C14   1.393014 A    
C19   C20   1.341736 D    
N1    H14   1.030719 S    
O3    Cu1   1.939768 S    
C7    H5    1.083507 S    
O3    C2    1.300888 A    
N2    C24   1.298867 D    
H12   C23   1.085164 S    
C2    C18   1.476096 S    
C20   C22   1.454632 S    
C10   C12   1.425672 A    
C12   C16   1.401875 A    
O4    C2    1.294832 A    
O7    C4    1.292703 A    
O2    Cu2   1.948889 S    
O4    Cu2   1.923742 S    
H1    C17   1.083272 S    
N3    O9    1.301095 A    
H2    C14   1.084199 S    
C11   C15   1.413550 A    
C7    C8    1.387404 A    
C15   H7    1.079900 S    
C5    C17   1.394964 A    
Cu2   O6    1.946983 S    
C14   C15   1.389326 A    
Cu1   O5    1.948891 S    
O5    C3    1.290962 A    
O11   H15   0.991581 S    
H10   C21   1.087278 S    
C5    C13   1.405018 A    
C19   N3    1.441339 S    
N3    O10   1.301561 A    
C12   C13   1.418579 A    
C8    C9    1.393398 A    
C6    C17   1.399594 A    
C4    C6    1.465154 S    
O6    C3    1.293758 A    
C9    C10   1.430127 A    
H11   C24   1.085126 S    
Cu2   N1    2.013858 S    
C1    C19   1.460863 S    
O8    C4    1.299130 A    
O1    C1    1.297319 A    
C7    C18   1.401630 A    
C6    C16   1.398104 A    
