data_mof_unit_68354.cif
_audit_creation_date              2013-03-05T16:34:12-0500
_audit_creation_method            fapswitch 2.2
_symmetry_space_group_name_H-M    P1
_symmetry_Int_Tables_number       1
_space_group_crystal_system       triclinic
_cell_length_a                    11.020878
_cell_length_b                    10.994512
_cell_length_c                    9.68391
_cell_angle_alpha                 87.559565
_cell_angle_beta                  92.636785
_cell_angle_gamma                 89.456623
_cell_volume                      1171.00897412

loop_
_atom_site_label
_atom_site_type_symbol
_atom_site_description
_atom_site_fract_x
_atom_site_fract_y
_atom_site_fract_z
_atom_type_partial_charge
O1    O     O_R   0.500000 0.319640 0.618810 -0.541656
O2    O     O_R   0.500010 0.319680 0.381230 -0.593604
C1    C     C_R   0.502715 0.262675 0.502365 0.860027
O3    O     O_R   0.319640 0.499990 0.618790 -0.505391
O4    O     O_R   0.319650 0.500030 0.381210 -0.558673
C2    C     C_R   0.262438 0.503495 0.496435 0.904328
Cu1   Cu    Cu3+1 0.499990 0.499980 0.640670 1.045388
Cu2   Cu    Cu3+1 0.500010 0.500020 0.359330 1.030706
O5    O     O_R   0.499990 0.680320 0.618770 -0.587184
O6    O     O_R   0.500000 0.680360 0.381190 -0.524645
O7    O     O_R   0.680350 0.499970 0.618790 -0.612930
O8    O     O_R   0.680360 0.500010 0.381210 -0.579510
C3    C     C_R   0.504514 0.736886 0.498044 0.887973
C4    C     C_R   0.737597 0.495294 0.503336 0.852346
C5    C     C_R   0.189300 0.867813 0.233477 -0.196800
H1    H     H_    0.229206 0.954742 0.256093 0.214224
C6    C     C_R   0.164664 0.784182 0.342598 0.228492
C7    C     C_R   0.109109 0.671745 0.309991 -0.045847
C8    C     C_R   0.080946 0.645857 0.169054 0.458535
C9    C     C_R   0.102226 0.734226 0.065576 -0.235000
H2    H     H_    0.068687 0.718838 0.960957 0.189169
C10   C     C_R   0.153712 0.845798 0.096198 0.367094
C11   C     C_R   0.928132 0.595928 0.432256 0.362197
C12   C     C_R   0.872126 0.500645 0.508230 -0.252963
C13   C     C_R   0.944494 0.405504 0.573591 -0.158966
C14   C     C_R   0.071190 0.402963 0.558567 0.252869
C15   C     C_R   0.127736 0.500072 0.489724 -0.262467
C16   C     C_R   0.055639 0.591697 0.417469 -0.022001
C17   C     C_R   0.907749 0.343773 0.813582 -0.169330
H3    H     H_    0.932392 0.434542 0.842275 0.157390
C18   C     C_R   0.891754 0.254789 0.917590 -0.222945
H4    H     H_    0.895803 0.280025 0.024039 0.169776
C19   C     C_R   0.875160 0.133483 0.885265 0.444063
C20   C     C_R   0.867981 0.104209 0.744950 -0.138460
H5    H     H_    0.861577 0.011040 0.716682 0.184943
C21   C     C_R   0.874880 0.195392 0.639748 -0.182095
H6    H     H_    0.874004 0.170416 0.532713 0.167659
C22   C     C_R   0.895632 0.316343 0.674129 0.153266
C23   C     C_R   0.521891 0.054255 0.622876 -0.023429
C24   C     C_R   0.509120 0.129277 0.503252 -0.068422
C25   C     C_R   0.508597 0.070090 0.376170 -0.278416
H7    H     H_    0.506316 0.122407 0.279563 0.167682
C26   C     C_R   0.513454 0.941770 0.371018 0.451962
C27   C     C_R   0.516335 0.869489 0.495459 -0.091624
C28   C     C_R   0.532282 0.931185 0.617896 -0.153755
C29   C     C_3   0.548920 0.910919 0.772832 0.661253
C30   C     C_3   0.536064 0.051427 0.778000 0.072622
H8    H     H_    0.618784 0.098548 0.816609 0.073594
C31   C     C_R   0.589437 0.556682 0.075455 0.227163
N1    N     N_R   0.500790 0.500930 0.147930 -0.251052
C32   C     C_R   0.408729 0.449803 0.073664 0.413721
C33   C     C_R   0.404126 0.457338 0.924944 0.473490
N2    N     N_R   0.500790 0.500890 0.852020 -0.262206
C34   C     C_R   0.590010 0.555357 0.928725 0.207752
C35   C     C_3   0.717950 0.515112 0.934944 -0.517496
C36   C     C_3   0.719730 0.521327 0.089616 -0.389615
H9    H     H_    0.719255 0.420856 0.900835 0.209798
H10   H     H_    0.780262 0.580145 0.885321 0.217097
H11   H     H_    0.736528 0.431025 0.143612 0.198369
H12   H     H_    0.775241 0.596833 0.129027 0.283217
N3    N     N_R   0.157181 0.941483 0.990577 0.216941
O9    O     O_R   0.161030 0.054266 0.025240 -0.335437
O10   O     O_R   0.133352 0.918998 0.861350 -0.228077
N4    N     N_R   0.871008 0.041374 0.995083 0.130398
O11   O     O_R   0.882822 0.926943 0.969938 -0.333504
O12   O     O_R   0.868064 0.071852 0.123327 -0.399857
O13   O     O_3   0.516328 0.887571 0.244897 -0.563667
C37   C     C_3   0.627005 0.915973 0.183312 0.024753
H13   H     H_    0.616467 0.000809 0.117394 0.165488
H14   H     H_    0.651585 0.840931 0.116635 0.239583
H15   H     H_    0.704662 0.925602 0.259817 0.187856
N5    N     N_R   0.449396 0.842408 0.833961 0.160996
O14   O     O_R   0.461100 0.797642 0.960270 -0.353767
O15   O     O_R   0.346126 0.830997 0.765715 -0.266231
O16   O     O_3   0.664795 0.873587 0.832015 -0.612114
C38   C     C_3   0.732907 0.803323 0.744459 -0.250516
H16   H     H_    0.752117 0.855569 0.648049 0.186008
H17   H     H_    0.688552 0.716668 0.723474 0.205196
H18   H     H_    0.821950 0.779517 0.796573 0.223168
N6    N     N_R   0.427330 0.089768 0.844956 0.164525
O17   O     O_R   0.412685 0.054724 0.972843 -0.353505
O18   O     O_R   0.359108 0.176777 0.788825 -0.220615
O19   O     O_3   0.316983 0.396268 0.145243 -0.610448
C39   C     C_3   0.313581 0.271254 0.121509 -0.127154
H19   H     H_    0.269596 0.223868 0.209101 0.202196
H20   H     H_    0.405798 0.231233 0.115008 0.161881
H21   H     H_    0.258007 0.255762 0.025906 0.266554
O20   O     O_3   0.299107 0.423293 0.855905 -0.508363
C40   C     C_3   0.212324 0.517241 0.867372 -0.188243
H22   H     H_    0.244865 0.606642 0.825975 0.213245
H23   H     H_    0.188607 0.525768 0.975421 0.159145
H24   H     H_    0.128468 0.495234 0.807351 0.179308
N7    N     N_R   0.185415 0.821219 0.483422 0.145392
O21   O     O_R   0.230715 0.927690 0.506989 -0.279954
O22   O     O_R   0.150705 0.755138 0.588645 -0.345797
O23   O     O_3   0.001235 0.554250 0.131517 -0.601687
C41   C     C_3   0.044299 0.436410 0.172810 -0.315195
H25   H     H_    0.972402 0.387493 0.228491 0.182914
H26   H     H_    0.127434 0.433527 0.240168 0.225299
H27   H     H_    0.064113 0.386037 0.079887 0.204463
N8    N     N_R   0.855918 0.700086 0.378414 0.117048
O24   O     O_R   0.765877 0.738674 0.446778 -0.463514
O25   O     O_R   0.881926 0.762244 0.266750 -0.357231
N9    N     N_R   0.142448 0.297045 0.604661 0.169141
O26   O     O_R   0.135618 0.249957 0.729430 -0.240078
O27   O     O_R   0.210014 0.243364 0.518301 -0.338226

loop_
_geom_bond_atom_site_label_1
_geom_bond_atom_site_label_2
_geom_bond_distance
_ccdc_geom_bond_type
C35   C36   1.501530 S    
N7    O21   1.301917 A    
Cu2   N1    2.047192 S    
N5    O15   1.299388 A    
C25   H7    1.076311 S    
C8    C9    1.395050 A    
C39   H21   1.106570 S    
O16   C38   1.408008 S    
N9    O27   1.301233 A    
C41   H25   1.109301 S    
Cu1   Cu2   2.724462 S    
C28   C29   1.509930 S    
C33   N2    1.383108 A    
Cu1   O7    2.008655 S    
C14   C15   1.401050 A    
N8    O24   1.295907 A    
C21   H6    1.083163 S    
C38   H17   1.097328 S    
C7    C8    1.426835 A    
C19   N4    1.439537 S    
O4    C2    1.308432 A    
Cu2   O6    2.002961 S    
O7    C4    1.311447 A    
C31   C34   1.421919 A    
C5    C6    1.408627 A    
C20   H5    1.073633 S    
C4    C12   1.483015 S    
N3    O10   1.301331 A    
O5    C3    1.303872 A    
N9    O26   1.299767 A    
C14   N9    1.441606 S    
C34   C35   1.471604 S    
C39   H19   1.109467 S    
C5    C10   1.400340 A    
O19   C39   1.403735 S    
C37   H13   1.109670 S    
C17   C22   1.396910 A    
C11   C12   1.417082 A    
C38   H18   1.106585 S    
C40   H23   1.097723 S    
C29   N5    1.469115 S    
C23   C28   1.359935 A    
O20   C40   1.412372 S    
N7    O22   1.300210 A    
C25   C26   1.414421 A    
C30   N6    1.455798 S    
O3    Cu1   1.989158 S    
C29   O16   1.424944 S    
C41   H26   1.099390 S    
C6    C7    1.425665 A    
C32   C33   1.437580 A    
C30   H8    1.110577 S    
C33   O20   1.372960 S    
C7    C16   1.481007 S    
C12   C13   1.418532 A    
N6    O18   1.296285 A    
C23   C24   1.394107 A    
N6    O17   1.298916 A    
N1    C32   1.356722 A    
C13   C14   1.410639 A    
N2    C34   1.363479 A    
C36   H12   1.106443 S    
O1    C1    1.314390 A    
N4    O12   1.301766 A    
C26   C27   1.413927 A    
C26   O13   1.383089 S    
C17   H3    1.081062 S    
C13   C22   1.475064 S    
C2    C15   1.483869 S    
Cu2   O8    1.989159 S    
O23   C41   1.410847 S    
C18   C19   1.394674 A    
C19   C20   1.408547 A    
C11   C16   1.419574 A    
C38   H16   1.105108 S    
C40   H24   1.103299 S    
O3    C2    1.315200 A    
C24   C25   1.416197 A    
C9    C10   1.394035 A    
C1    C24   1.467314 S    
C35   H9    1.101155 S    
C6    N7    1.448522 S    
Cu1   N2    2.046760 S    
C32   O19   1.374884 S    
C41   H27   1.105610 S    
C27   C28   1.395843 A    
C23   C30   1.502111 S    
Cu1   O5    1.985060 S    
C29   C30   1.553106 S    
O1    Cu1   2.002961 S    
C18   H4    1.077948 S    
O2    Cu2   1.985062 S    
O8    C4    1.313317 A    
N5    O14   1.299241 A    
O6    C3    1.313215 A    
O4    Cu2   2.008655 S    
O13   C37   1.413961 S    
C31   C36   1.482759 S    
C36   H11   1.112113 S    
N4    O11   1.298074 A    
C21   C22   1.402853 A    
O2    C1    1.305210 A    
C17   C18   1.392248 A    
C10   N3    1.437740 S    
C11   N8    1.452698 S    
C37   H15   1.114739 S    
C20   C21   1.403669 A    
N3    O9    1.298916 A    
C9    H2    1.083046 S    
N8    O25   1.299155 A    
C31   N1    1.364027 A    
C35   H10   1.106417 S    
C15   C16   1.417529 A    
C37   H14   1.108259 S    
C39   H20   1.109159 S    
C40   H22   1.114366 S    
C3    C27   1.464207 S    
C8    O23   1.391703 S    
C5    H1    1.082476 S    
