data_mof_unit_40215.cif
_audit_creation_date              2012-12-11T20:41:36-0500
_audit_creation_method            fapswitch 2.2
_symmetry_space_group_name_H-M    P1
_symmetry_Int_Tables_number       1
_space_group_crystal_system       triclinic
_cell_length_a                    8.356845
_cell_length_b                    18.912365
_cell_length_c                    26.925398
_cell_angle_alpha                 97.378766
_cell_angle_beta                  92.289967
_cell_angle_gamma                 86.35829
_cell_volume                      4209.56054613

loop_
_atom_site_label
_atom_site_type_symbol
_atom_type_description
_atom_site_fract_x
_atom_site_fract_y
_atom_site_fract_z
_atom_type_partial_charge
Ba1   Ba    Ba6+2 0.852670 0.466460 0.522850 1.645737
Ba2   Ba    Ba6+2 0.337150 0.533490 0.477140 1.651121
C1    C     C_3   0.493530 0.255043 0.688851 -0.347520
C2    C     C_R   0.939871 0.572364 0.182359 0.588546
C3    C     C_2   0.770483 0.548685 0.273499 -0.102310
C4    C     C_3   0.082968 0.303442 0.652193 0.326962
C5    C     C_3   0.745884 0.574698 0.328015 -0.080975
C6    C     C_1   0.982494 0.495319 0.346527 0.038708
C7    C     C_2   0.023968 0.488651 0.298573 -0.107212
C8    C     C_2   0.912094 0.515273 0.258850 0.209395
C9    C     C_R   0.032577 0.505288 0.104252 -0.081807
C10   C     C_R   0.062218 0.444680 0.129604 -0.033714
C11   C     C_R   0.130108 0.381797 0.103115 -0.058393
C12   C     C_3   0.573709 0.293721 0.651028 0.365806
C13   C     C_R   0.971846 0.569549 0.131056 -0.025607
C14   C     C_2   0.859004 0.538908 0.363954 -0.196276
C15   C     C_2   0.345927 0.482200 0.641121 -0.260952
C16   C     C_3   0.062660 0.273751 0.701367 -0.373130
C17   C     C_R   0.184615 0.438702 0.975531 0.038351
C18   C     C_R   0.042091 0.556961 0.973545 -0.021905
C19   C     C_R   0.132721 0.497135 0.949057 -0.001422
C20   C     C_R   0.279620 0.381812 0.949968 -0.095570
C21   C     C_R   0.318134 0.381353 0.899970 -0.059516
C22   C     C_R   0.263716 0.437490 0.873014 -0.012379
C23   C     C_3   0.502603 0.641077 0.631223 0.287396
C24   C     C_R   0.170427 0.495358 0.897550 -0.084183
C25   C     C_R   0.113742 0.551161 0.870432 -0.076309
C26   C     C_R   0.157458 0.550466 0.820095 0.608185
C27   C     C_R   0.300259 0.436720 0.821951 0.582743
C28   C     C_3   0.182734 0.317204 0.414077 0.314321
C29   C     C_2   0.446795 0.480372 0.729560 -0.087699
C30   C     C_3   0.490553 0.487247 0.676269 -0.052264
C31   C     C_1   0.209311 0.513287 0.657234 0.008917
C32   C     C_2   0.168211 0.511987 0.704397 -0.136698
C33   C     C_2   0.292465 0.493893 0.743784 0.212266
C34   C     C_3   0.483336 0.666710 0.686714 -0.388884
C35   C     C_R   0.140594 0.439189 0.026443 0.022690
C36   C     C_R   0.065379 0.502052 0.052177 0.040972
C37   C     C_R   0.024426 0.562263 0.026533 0.039955
C38   C     C_R   0.169978 0.379227 0.052939 -0.100416
C39   C     C_R   0.947705 0.630552 0.106354 -0.081633
C40   C     C_3   0.187871 0.236467 0.401110 -0.362998
C41   C     C_R   0.969252 0.608567 0.944024 0.401166
C42   C     C_R   0.009257 0.605518 0.893368 -0.113156
C43   C     C_R   0.974975 0.627175 0.055462 -0.055053
C44   C     C_2   0.407567 0.299417 0.518322 -0.254424
C45   C     C_3   0.993395 0.710829 0.351332 0.354104
C46   C     C_3   0.324105 0.251724 0.548333 -0.022348
C47   C     C_2   0.354590 0.173028 0.530842 -0.118652
C48   C     C_2   0.482644 0.149749 0.502537 -0.073428
C49   C     C_2   0.576303 0.204499 0.482470 -0.136320
C50   C     C_1   0.528631 0.273431 0.489961 0.058343
C51   C     C_R   0.643793 0.931815 0.490142 0.459999
C52   C     C_3   0.949160 0.686994 0.645501 0.678802
C53   C     C_R   0.536159 0.072100 0.495633 0.462867
C54   C     C_R   0.614639 0.807665 0.511746 -0.113087
C55   C     C_R   0.674839 0.737451 0.514576 0.068031
C56   C     C_3   0.974995 0.745207 0.303252 -0.343791
C57   C     C_R   0.915145 0.760195 0.473532 -0.000093
C58   C     C_R   0.855144 0.830620 0.469712 -0.154824
C59   C     C_R   0.705313 0.855834 0.490081 -0.061850
C60   C     C_R   0.827861 0.715935 0.498195 -0.219552
C61   C     C_3   0.002612 0.703861 0.700634 -0.373350
C62   C     C_3   0.673311 0.380255 0.373257 0.298191
C63   C     C_3   0.682132 0.362313 0.316725 -0.344386
C64   C     C_3   0.675855 0.239777 0.616704 -0.285368
C65   C     C_3   0.010690 0.791195 0.612044 0.215841
C66   C     C_3   0.537054 0.756385 0.377395 -0.303810
C67   C     C_3   0.507667 0.714057 0.325654 0.370901
C68   C     C_3   0.841789 0.722775 0.950433 0.135597
C69   C     C_3   0.825592 0.560448 0.418752 -0.200936
C70   C     C_3   0.423192 0.763047 0.290682 -0.335037
C71   C     C_R   0.021961 0.448157 0.180712 0.594380
H1    H     H_    0.263622 0.219815 0.368194 0.122302
H2    H     H_    0.584786 0.227626 0.711930 0.127474
H3    H     H_    0.773398 0.317847 0.307364 0.133689
H4    H     H_    0.715891 0.409493 0.299965 0.066255
H5    H     H_    0.563571 0.346396 0.300502 0.134881
H6    H     H_    0.477333 0.318873 0.628419 -0.036287
H7    H     H_    0.414220 0.214953 0.669065 0.069061
H8    H     H_    0.383105 0.629064 0.614220 0.049802
H9    H     H_    0.584302 0.592191 0.626722 0.016996
H10   H     H_    0.416931 0.719809 0.691563 0.133339
H11   H     H_    0.414764 0.628992 0.704385 0.072176
H12   H     H_    0.238934 0.210438 0.433264 0.073091
H13   H     H_    0.602950 0.671295 0.705948 0.109633
H14   H     H_    0.420702 0.294046 0.714248 0.156254
H15   H     H_    0.104585 0.312273 0.733077 0.107458
H16   H     H_    0.028755 0.653337 0.341689 0.060206
H17   H     H_    0.875379 0.717129 0.369483 -0.091349
H18   H     H_    0.080873 0.730153 0.279786 0.139909
H19   H     H_    0.867022 0.726738 0.281634 0.123835
H20   H     H_    0.961763 0.804182 0.312025 0.109161
H21   H     H_    0.624230 0.696265 0.308614 -0.017502
H22   H     H_    0.504274 0.804481 0.283110 0.075857
H23   H     H_    0.064611 0.218678 0.392335 0.137166
H24   H     H_    0.313290 0.790152 0.307741 0.132507
H25   H     H_    0.004704 0.352758 0.651791 0.114879
H26   H     H_    0.389707 0.731517 0.254497 0.116640
H27   H     H_    0.143136 0.467111 0.288027 0.130987
H28   H     H_    0.154140 0.334049 0.121294 0.120770
H29   H     H_    0.541854 0.470768 0.757000 0.111610
H30   H     H_    0.391778 0.336442 0.882434 0.117859
H31   H     H_    0.329576 0.337277 0.968028 0.066228
H32   H     H_    0.220360 0.328597 0.035485 0.068364
H33   H     H_    0.684417 0.567361 0.246108 0.101914
H34   H     H_    0.845126 0.653807 0.644900 0.048523
H35   H     H_    0.907469 0.681661 0.126380 0.118553
H36   H     H_    0.209562 0.317522 0.650869 -0.060568
H37   H     H_    0.952515 0.644084 0.870821 0.115263
H38   H     H_    0.044398 0.523176 0.714692 0.129025
H39   H     H_    0.963749 0.677294 0.040050 0.109905
H40   H     H_    0.352919 0.452362 0.603932 0.064995
H41   H     H_    0.285109 0.135771 0.547128 0.106627
H42   H     H_    0.683536 0.187584 0.461652 0.110219
H43   H     H_    0.498494 0.824570 0.526973 0.102362
H44   H     H_    0.924679 0.865124 0.451050 0.103982
H45   H     H_    0.022989 0.653641 0.717463 0.106509
H46   H     H_    0.383811 0.356488 0.527384 0.066615
H47   H     H_    0.935129 0.264939 0.706598 0.144536
H48   H     H_    0.878635 0.663631 0.504158 0.048697
H49   H     H_    0.134125 0.222448 0.701707 0.118608
H50   H     H_    0.306635 0.334035 0.421558 0.000836
H51   H     H_    0.111083 0.331945 0.448116 0.075956
H52   H     H_    0.601579 0.197554 0.597448 0.057981
H53   H     H_    0.731856 0.266983 0.588181 0.148916
H54   H     H_    0.771001 0.213329 0.638755 0.135513
H55   H     H_    0.077013 0.763014 0.579516 0.068176
H56   H     H_    0.906964 0.737525 0.721585 0.107678
H57   H     H_    0.095012 0.806521 0.644050 0.020734
H58   H     H_    0.954007 0.841327 0.599972 0.050637
H59   H     H_    0.600382 0.722023 0.403135 0.067981
H60   H     H_    0.612894 0.801632 0.374164 0.055923
H61   H     H_    0.422095 0.777999 0.394001 0.166881
H62   H     H_    0.783290 0.727088 0.913026 0.055297
H63   H     H_    0.965853 0.742060 0.952402 0.013758
H64   H     H_    0.770521 0.758973 0.978166 0.072333
H65   H     H_    0.917675 0.563998 0.447695 0.161624
H66   H     H_    0.780245 0.616914 0.423218 0.020898
H67   H     H_    0.116031 0.731926 0.704627 0.099725
H68   H     H_    0.745407 0.522067 0.431047 0.119878
H69   H     H_    0.792937 0.394929 0.388660 0.002050
H70   H     H_    0.584827 0.426046 0.381595 0.081168
N1    N     N_R   0.958890 0.511490 0.206560 -0.421097
N2    N     N_R   0.249317 0.493478 0.796001 -0.420888
N3    N     N_R   0.507014 0.955865 0.514134 -0.245491
N4    N     N_R   0.454653 0.024219 0.516848 -0.246192
N5    N     N_R   0.672316 0.048065 0.471087 -0.239075
N6    N     N_R   0.724958 0.979442 0.468386 -0.242331
O1    O     O_2   0.914730 0.537460 0.618690 -0.490494
O2    O     O_2   0.249952 0.750961 0.470140 -0.479388
O3    O     O_3   0.113195 0.743881 0.382193 -0.583838
O4    O     O_3   0.146720 0.537410 0.558510 -0.451539
O5    O     O_3   0.553920 0.415280 0.473710 -0.500107
O6    O     O_2   0.383540 0.672140 0.526840 -0.447243
O7    O     O_3   0.567970 0.695348 0.609384 -0.611026
O8    O     O_2   0.444366 0.516600 0.325335 -0.488669
O9    O     O_3   0.411646 0.655965 0.328785 -0.555511
O10   O     O_2   0.041279 0.394560 0.201837 -0.596052
O11   O     O_2   0.376230 0.385098 0.800544 -0.614106
O12   O     O_3   0.626226 0.320400 0.393341 -0.629799
O13   O     O_2   0.895828 0.629569 0.205642 -0.626697
O14   O     O_2   0.115936 0.601548 0.798073 -0.622226
O15   O     O_3   0.666360 0.409390 0.586570 -0.481074
O16   O     O_2   0.817260 0.456531 0.672141 -0.493392
O17   O     O_3   0.077138 0.652428 0.616648 -0.659966
O18   O     O_3   0.673535 0.343557 0.677741 -0.587250
O19   O     O_2   0.806150 0.327840 0.473120 -0.453534
O20   O     O_3   0.073640 0.373350 0.561550 -0.492483
O21   O     O_2   0.000538 0.245127 0.514010 -0.476724
O22   O     O_3   0.887864 0.749923 0.625713 -0.653056
O23   O     O_3   0.040133 0.252921 0.611542 -0.602794
O24   O     O_3   0.838166 0.652098 0.962449 -0.643212
O25   O     O_2   0.274960 0.462520 0.381280 -0.449264
O26   O     O_3   0.042980 0.462530 0.441480 -0.520182
O27   O     O_3   0.523340 0.590550 0.413420 -0.467014
O28   O     O_3   0.113445 0.348629 0.373424 -0.623709
O29   O     O_3   0.635780 0.584660 0.526290 -0.489223
O30   O     O_3   0.116060 0.626590 0.438450 -0.486304
P1    P     P_3+3 0.084800 0.558370 0.611580 0.966441
P2    P     P_3+3 0.628800 0.338360 0.458800 0.979603
P3    P     P_3+3 0.108413 0.280487 0.556972 0.941631
P4    P     P_3+3 0.104900 0.441570 0.388420 0.985990
P5    P     P_3+3 0.098800 0.720565 0.442550 0.985147
P6    P     P_3+3 0.658389 0.424629 0.652338 0.959745
P7    P     P_3+3 0.565943 0.673625 0.544339 0.992188
P8    P     P_3+3 0.531005 0.583723 0.347702 0.966191

loop_
_geom_bond_atom_site_label_1
_geom_bond_atom_site_label_2
_ccdc_geom_bond_type
C68   H63   S    
C19   C24   A    
Ba2   O6    S    
C39   H35   S    
C67   C70   S    
C61   H67   S    
C56   H18   S    
O9    P8    S    
C56   H19   S    
C43   H39   S    
C15   H40   S    
C55   C60   A    
C4    O23   S    
C54   C55   A    
C26   N2    Am   
C63   H3    S    
C52   H34   S    
C40   H23   S    
C4    H25   S    
O1    P1    D    
C66   H60   S    
C17   C19   A    
C56   H20   S    
C22   C24   A    
C32   C33   S    
C35   C38   A    
C27   N2    Am   
C36   C37   A    
Ba1   P1    S    
C52   C61   S    
C34   H10   S    
O18   P6    S    
O5    P2    S    
C44   C50   D    
C20   H31   S    
C64   H54   S    
Ba1   Ba2   S    
C33   N2    S    
C66   H59   S    
C22   C27   A    
C11   C38   A    
C17   C35   A    
Ba2   O27   S    
C45   O3    S    
C70   H22   S    
C9    C13   A    
C25   C42   A    
C21   H30   S    
Ba1   O15   S    
C66   C67   S    
C21   C22   A    
O3    P5    S    
C1    H2    S    
C7    C8    S    
C37   C43   A    
C47   H41   S    
O4    P1    S    
C57   C58   A    
C6    C14   D    
C10   C71   A    
O21   P3    D    
C31   P1    S    
C23   H8    S    
C32   H38   S    
C45   H16   S    
C57   P5    S    
C14   C69   S    
C15   C31   D    
C52   O17   S    
C1    H7    S    
C31   C32   D    
C27   O11   D    
C3    C5    S    
C3    H33   S    
C54   H43   S    
C4    C16   S    
C44   C46   S    
C40   H1    S    
C63   H4    S    
C1    H14   S    
C49   C50   D    
C29   H29   S    
O2    P5    D    
C17   C20   A    
C50   P2    S    
C13   C39   A    
O15   P6    S    
C51   N6    A    
C61   H45   S    
Ba1   P2    S    
C6    C7    D    
C69   H66   S    
Ba1   O19   S    
C34   H13   S    
O28   P4    S    
C49   H42   S    
C64   H53   S    
C58   C59   A    
C24   C25   A    
C9    C36   A    
C41   C42   A    
C35   C36   A    
Ba2   O26   S    
C67   H21   S    
Ba1   O29   S    
C53   N4    A    
C29   C30   S    
C48   C53   S    
C69   H65   S    
C67   O9    S    
C12   C64   S    
Ba1   O1    S    
C48   C49   S    
C40   H12   S    
C8    N1    S    
C12   H6    S    
C18   C19   A    
Ba1   O4    S    
C28   H50   S    
C55   P7    S    
C1    C12   S    
C65   H58   S    
C16   H49   S    
C30   P6    S    
C6    P4    S    
C46   C47   S    
C28   H51   S    
O19   P2    D    
Ba2   O4    S    
C58   H44   S    
C23   H9    S    
C45   H17   S    
C2    O13   D    
C65   H57   S    
O17   P1    S    
Ba2   O30   S    
C51   C59   S    
C16   H47   S    
C18   C41   A    
O27   P8    S    
O26   P4    S    
N3    N4    A    
O30   P5    S    
C5    P8    S    
C18   C37   A    
Ba1   O26   S    
C57   C60   A    
C63   H5    S    
C54   C59   A    
C52   O22   S    
C5    C14   S    
O8    P8    D    
C62   O12   S    
O6    P7    D    
O25   P4    D    
C2    N1    Am   
C9    C10   A    
C62   H70   S    
O7    P7    S    
C7    H27   S    
C71   O10   D    
C70   H24   S    
C64   H52   S    
C69   H68   S    
C65   O22   S    
C62   C63   S    
C2    C13   A    
C66   H61   S    
C3    C8    D    
C65   H55   S    
Ba2   O25   S    
C45   C56   S    
C46   P3    S    
C41   O24   S    
C53   N5    A    
C68   H62   S    
C62   H69   S    
C34   H11   S    
Ba1   O20   S    
C51   N3    A    
C4    H36   S    
C28   O28   S    
C44   H46   S    
C29   C33   D    
Ba2   P4    S    
C61   H56   S    
O12   P2    S    
Ba1   O5    S    
C68   O24   S    
O16   P6    D    
O20   P3    S    
C16   H15   S    
C23   C34   S    
O29   P7    S    
O23   P3    S    
C10   C11   A    
C68   H64   S    
Ba2   O5    S    
C47   C48   D    
C25   C26   A    
C15   C30   S    
C39   C43   A    
C20   C21   A    
C28   C40   S    
Ba2   O29   S    
C12   O18   S    
C11   H28   S    
N5    N6    A    
C70   H26   S    
C60   H48   S    
C26   O14   D    
C38   H32   S    
C23   O7    S    
C71   N1    Am   
C42   H37   S    
