data_mof_unit_26253.cif
_audit_creation_date              2012-10-26T19:15:02-0400
_audit_creation_method            fapswitch 2.2
_symmetry_space_group_name_H-M    P1
_symmetry_Int_Tables_number       1
_space_group_crystal_system       triclinic
_cell_length_a                    10.855123
_cell_length_b                    10.857855
_cell_length_c                    9.638873
_cell_angle_alpha                 90.028239
_cell_angle_beta                  89.258689
_cell_angle_gamma                 93.360251
_cell_volume                      1134.02170338

loop_
_atom_site_label
_atom_site_type_symbol
_atom_type_description
_atom_site_fract_x
_atom_site_fract_y
_atom_site_fract_z
_atom_type_partial_charge
C1    C     C_R   0.505338 0.262930 0.500393 0.544863
C2    C     C_R   0.483809 0.934353 0.621832 0.019298
C3    C     C_3   0.557555 0.928562 0.750394 -0.287792
C4    C     C_R   0.262385 0.503016 0.500792 0.540378
C5    C     C_3   0.558516 0.066863 0.754877 -0.251104
C6    C     C_R   0.550833 0.598225 0.072785 0.126775
C7    C     C_R   0.438369 0.408012 0.073827 0.082503
C8    C     C_R   0.445132 0.404699 0.925673 0.364907
C9    C     C_R   0.549035 0.599427 0.926075 0.107085
C10   C     C_3   0.680428 0.648761 0.920069 -0.276236
C11   C     C_3   0.681498 0.646646 0.077113 -0.272862
C12   C     C_R   0.932834 0.504002 0.623097 0.020679
C13   C     C_R   0.503161 0.737404 0.499791 0.542203
C14   C     C_R   0.737390 0.505124 0.499226 0.534786
C15   C     C_R   0.059620 0.502014 0.624606 0.024650
C16   C     C_R   0.129460 0.517632 0.502355 0.007841
C17   C     C_R   0.069150 0.555568 0.382431 -0.166744
C18   C     C_R   0.940167 0.555403 0.380547 -0.167665
C19   C     C_R   0.870949 0.520278 0.499727 0.006666
C20   C     C_R   0.358681 0.310081 0.142387 0.100766
C21   C     C_R   0.237676 0.334457 0.182034 -0.078764
C22   C     C_R   0.155937 0.240210 0.232412 -0.130278
C23   C     C_3   0.914202 0.402574 0.726346 -0.261728
C24   C     C_R   0.191980 0.118933 0.235613 -0.116134
C25   C     C_R   0.308687 0.091911 0.185768 -0.123625
C26   C     C_R   0.391297 0.186882 0.138273 -0.067355
C27   C     C_3   0.296886 0.268228 0.834576 -0.111146
C28   C     C_3   0.052880 0.399571 0.728053 -0.285144
C29   C     C_R   0.485073 0.062410 0.623865 0.033785
C30   C     C_R   0.512501 0.129545 0.502176 0.009555
C31   C     C_R   0.543847 0.066282 0.381121 -0.163041
C32   C     C_R   0.536425 0.937893 0.377903 -0.171190
C33   C     C_R   0.506153 0.870991 0.499199 0.009328
Cu1   Cu    Cu3+1 0.499990 0.499980 0.640670 0.972862
Cu2   Cu    Cu3+1 0.500010 0.500020 0.359330 0.933027
H1    H     H_    0.120621 0.581181 0.289039 0.122855
H2    H     H_    0.875189 0.433344 0.826566 0.128829
H3    H     H_    0.867476 0.317743 0.682098 0.135085
H4    H     H_    0.090974 0.431048 0.829055 0.127366
H5    H     H_    0.084035 0.311745 0.684888 0.113370
H6    H     H_    0.576570 0.116079 0.289843 0.125470
H7    H     H_    0.558984 0.891481 0.282184 0.124152
H8    H     H_    0.504434 0.882566 0.837224 0.136433
H9    H     H_    0.205521 0.425876 0.168848 0.099204
H10   H     H_    0.063659 0.260769 0.265321 0.111135
H11   H     H_    0.128268 0.045509 0.272751 0.109722
H12   H     H_    0.650769 0.894989 0.729771 0.131241
H13   H     H_    0.334750 0.997262 0.182586 0.111903
H14   H     H_    0.479432 0.164431 0.094358 0.099520
H15   H     H_    0.279905 0.287349 0.724214 0.166823
H16   H     H_    0.234743 0.318685 0.903233 0.080108
H17   H     H_    0.274338 0.168313 0.851271 0.120066
H18   H     H_    0.506310 0.097385 0.846545 0.184870
H19   H     H_    0.652153 0.112975 0.741175 0.134670
H20   H     H_    0.742772 0.583322 0.872031 0.150103
H21   H     H_    0.691159 0.743418 0.877803 0.115968
H22   H     H_    0.743313 0.578137 0.118781 0.142321
H23   H     H_    0.691318 0.740013 0.124424 0.117578
H24   H     H_    0.895353 0.578210 0.285322 0.118763
N1    N     N_R   0.500790 0.500930 0.147930 -0.266105
N2    N     N_R   0.500790 0.500890 0.852020 -0.225568
O1    O     O_R   0.500000 0.319640 0.618810 -0.446172
O2    O     O_R   0.500010 0.319680 0.381230 -0.503964
O3    O     O_R   0.319650 0.499970 0.618810 -0.503714
O4    O     O_R   0.319660 0.500010 0.381230 -0.508853
O5    O     O_R   0.499990 0.680320 0.618770 -0.501002
O6    O     O_R   0.500000 0.680360 0.381190 -0.508276
O7    O     O_R   0.680340 0.499990 0.618770 -0.506713
O8    O     O_R   0.680350 0.500030 0.381190 -0.511783
O9    O     O_3   0.422924 0.292963 0.860354 -0.576551

loop_
_geom_bond_atom_site_label_1
_geom_bond_atom_site_label_2
_ccdc_geom_bond_type
C4    C16   S    
C27   H15   S    
C13   C33   S    
C29   C30   A    
C17   H1    S    
C3    H12   S    
C21   H9    S    
C10   H21   S    
C9    C10   S    
C5    H19   S    
C8    O9    S    
C31   C32   A    
C12   C23   S    
C12   C15   A    
Cu2   O6    S    
C8    N2    A    
C24   H11   S    
C32   C33   A    
Cu1   O5    S    
C6    C9    A    
Cu1   O3    S    
C2    C3    S    
C25   C26   A    
C7    C8    A    
C4    O3    A    
C11   H22   S    
C21   C22   A    
C24   C25   A    
C10   H20   S    
C25   H13   S    
C3    H8    S    
C15   C28   S    
C4    O4    A    
C27   O9    S    
C20   C26   A    
C2    C29   A    
C9    N2    A    
C1    O2    A    
C12   C19   A    
C5    H18   S    
C1    C30   S    
C27   H16   S    
C7    N1    A    
C17   C18   A    
C5    C29   S    
C13   O5    A    
Cu1   N2    S    
C23   H3    S    
C30   C31   A    
C14   O8    A    
C22   C24   A    
C23   C28   S    
C10   C11   S    
C28   H5    S    
C15   C16   A    
C11   H23   S    
C6    N1    A    
C18   H24   S    
Cu1   O1    S    
C22   H10   S    
C27   H17   S    
Cu2   O8    S    
C1    O1    A    
Cu1   Cu2   S    
C13   O6    A    
C26   H14   S    
Cu1   O7    S    
C6    C11   S    
Cu2   O4    S    
C14   O7    A    
C18   C19   A    
Cu2   O2    S    
C31   H6    S    
C28   H4    S    
C20   C21   A    
C23   H2    S    
C14   C19   S    
C7    C20   S    
C32   H7    S    
C16   C17   A    
C2    C33   A    
Cu2   N1    S    
C3    C5    S    
