data_mof_unit_26557.cif
_audit_creation_date              2012-12-11T15:08:45-0500
_audit_creation_method            fapswitch 2.2
_symmetry_space_group_name_H-M    P1
_symmetry_Int_Tables_number       1
_space_group_crystal_system       triclinic
_cell_length_a                    19.435022
_cell_length_b                    11.335061
_cell_length_c                    18.706254
_cell_angle_alpha                 89.978355
_cell_angle_beta                  90.232392
_cell_angle_gamma                 90.004344
_cell_volume                      4120.90042618

loop_
_atom_site_label
_atom_site_type_symbol
_atom_type_description
_atom_site_fract_x
_atom_site_fract_y
_atom_site_fract_z
_atom_type_partial_charge
C1    C     C_R   0.272812 0.043971 0.853907 0.535400
C2    C     C_3   0.688701 0.535875 0.955017 -0.266584
C3    C     C_R   0.226284 0.542014 0.354739 0.538104
C4    C     C_R   0.468904 0.822739 0.645548 0.544390
C5    C     C_R   0.530882 0.822676 0.354225 0.544092
C6    C     C_R   0.970362 0.322794 0.646550 0.540526
C7    C     C_R   0.032220 0.322768 0.355138 0.543578
C8    C     C_R   0.260116 0.638433 0.644430 0.538193
C9    C     C_R   0.739392 0.640261 0.356271 0.541983
C10   C     C_R   0.760783 0.140580 0.643541 0.542045
C11   C     C_R   0.238747 0.141503 0.356905 0.540812
C12   C     C_3   0.479995 0.917318 0.035791 -0.113296
C13   C     C_3   0.811300 0.035910 0.045015 -0.266607
C14   C     C_3   0.519983 0.917336 0.964155 -0.113257
C15   C     C_3   0.980001 0.417320 0.035788 -0.113250
C16   C     C_3   0.019989 0.417332 0.964152 -0.113316
C17   C     C_3   0.431638 0.820073 0.006868 -0.157090
C18   C     C_3   0.568371 0.820151 0.993122 -0.157115
C19   C     C_3   0.931641 0.320079 0.006867 -0.156998
C20   C     C_3   0.068374 0.320144 0.993121 -0.157218
C21   C     C_3   0.471755 0.821175 0.936093 0.058306
C22   C     C_3   0.528253 0.821221 0.063898 0.058307
C23   C     C_3   0.971758 0.321175 0.936092 0.058410
C24   C     C_3   0.188702 0.035876 0.955017 -0.266545
C25   C     C_3   0.028255 0.321220 0.063898 0.058182
C26   C     C_3   0.108126 0.771366 0.079931 -0.295677
C27   C     C_3   0.891841 0.771438 0.919942 -0.295713
C28   C     C_3   0.608130 0.271372 0.079935 -0.295673
C29   C     C_3   0.391859 0.271391 0.919959 -0.295693
C30   C     C_3   0.321926 0.566979 0.965751 -0.254949
C31   C     C_3   0.678072 0.567001 0.034262 -0.254919
C32   C     C_3   0.821928 0.066981 0.965752 -0.255011
C33   C     C_3   0.178073 0.066996 0.034262 -0.254936
C34   C     C_3   0.181256 0.518116 0.025040 -0.203137
C35   C     C_3   0.818739 0.518149 0.975003 -0.203137
C36   C     C_3   0.681257 0.018117 0.025041 -0.203130
C37   C     C_R   0.727191 0.043999 0.146100 0.535936
C38   C     C_3   0.318740 0.018143 0.975003 -0.203059
C39   C     C_3   0.234888 0.711319 0.055313 0.024917
C40   C     C_3   0.765094 0.711314 0.944615 0.025026
C41   C     C_3   0.734891 0.211320 0.055315 0.024967
C42   C     C_3   0.265101 0.211310 0.944616 0.025105
C43   C     C_3   0.239038 0.577283 0.070575 0.081111
C44   C     C_3   0.760955 0.577267 0.929426 0.081233
C45   C     C_3   0.739039 0.077284 0.070576 0.081302
C46   C     C_3   0.260957 0.077264 0.929426 0.081385
C47   C     C_3   0.254194 0.613156 0.932430 0.026780
C48   C     C_R   0.772812 0.543972 0.853907 0.535984
C49   C     C_3   0.745804 0.613204 0.067563 0.026553
C50   C     C_3   0.754196 0.113160 0.932431 0.026575
C51   C     C_3   0.245804 0.113203 0.067563 0.026411
C52   C     C_3   0.197680 0.521246 0.944506 -0.263402
C53   C     C_3   0.802319 0.521305 0.055537 -0.263253
C54   C     C_3   0.697681 0.021250 0.944507 -0.263356
C55   C     C_3   0.302322 0.021309 0.055538 -0.263246
C56   C     C_3   0.231871 0.727155 0.972989 -0.175246
C57   C     C_3   0.768125 0.727190 0.026934 -0.175387
C58   C     C_3   0.731874 0.227158 0.972991 -0.175332
C59   C     C_R   0.227191 0.543999 0.146100 0.536530
C60   C     C_3   0.268120 0.227189 0.026934 -0.175387
C61   C     C_3   0.498447 0.699087 0.459941 -0.236573
C62   C     C_3   0.502309 0.699385 0.540304 -0.237597
C63   C     C_3   0.006935 0.200145 0.462083 -0.227411
C64   C     C_3   0.006280 0.200457 0.542137 -0.233987
C65   C     C_R   0.444202 0.817264 0.862319 0.538631
C66   C     C_R   0.555798 0.817299 0.137679 0.538548
C67   C     C_R   0.944204 0.317265 0.862319 0.538414
C68   C     C_R   0.055798 0.317299 0.137680 0.538778
C69   C     C_3   0.567234 0.888988 0.473349 -0.227070
C70   C     C_3   0.519675 0.724458 0.964535 -0.112008
C71   C     C_3   0.431938 0.887249 0.525775 -0.228343
C72   C     C_3   0.063740 0.408398 0.473955 -0.213859
C73   C     C_3   0.932795 0.384014 0.527380 -0.223191
C74   C     C_3   0.445341 0.897147 0.444708 -0.255934
C75   C     C_3   0.553736 0.899187 0.554432 -0.256397
C76   C     C_3   0.942337 0.382833 0.445121 -0.262372
C77   C     C_3   0.055580 0.400344 0.556030 -0.256864
C78   C     C_3   0.509811 0.827158 0.430458 0.062437
C79   C     C_3   0.489969 0.827276 0.569175 0.061498
C80   C     C_3   0.012116 0.327957 0.431751 0.063431
C81   C     C_3   0.480362 0.724439 0.035497 -0.111912
C82   C     C_3   0.992089 0.327187 0.570376 0.059916
C83   C     C_3   0.177098 0.641910 0.460909 -0.227266
C84   C     C_3   0.818522 0.657182 0.541606 -0.237411
C85   C     C_3   0.681894 0.157267 0.458400 -0.237725
C86   C     C_3   0.315455 0.162223 0.543325 -0.234745
C87   C     C_3   0.179001 0.645336 0.540976 -0.234410
C88   C     C_3   0.819612 0.652621 0.461114 -0.236540
C89   C     C_3   0.680609 0.151753 0.538831 -0.237842
C90   C     C_3   0.314009 0.165341 0.463302 -0.227394
C91   C     C_3   0.255110 0.454512 0.473157 -0.212237
C92   C     C_3   0.019675 0.224454 0.964536 -0.112064
C93   C     C_3   0.757903 0.459441 0.526705 -0.229124
C94   C     C_3   0.743051 0.959532 0.472964 -0.227258
C95   C     C_3   0.259469 0.961074 0.527684 -0.221933
C96   C     C_3   0.301446 0.648103 0.442619 -0.264081
C97   C     C_3   0.691789 0.634129 0.556587 -0.257538
C98   C     C_3   0.808414 0.134873 0.442816 -0.256215
C99   C     C_3   0.190047 0.134827 0.557652 -0.257745
C100  C     C_3   0.239156 0.570676 0.430672 0.068266
C101  C     C_3   0.760021 0.574899 0.570366 0.066304
C102  C     C_3   0.740362 0.074968 0.429425 0.066185
C103  C     C_3   0.980362 0.224442 0.035498 -0.111884
C104  C     C_3   0.258910 0.077044 0.571155 0.063391
C105  C     C_3   0.250567 0.603593 0.568546 0.061783
C106  C     C_3   0.748625 0.606810 0.432263 0.065300
C107  C     C_3   0.751844 0.106921 0.567490 0.064637
C108  C     C_3   0.246748 0.108447 0.433166 0.066070
C109  C     C_3   0.256159 0.472349 0.554896 -0.257245
C110  C     C_3   0.744298 0.475873 0.446184 -0.259073
C111  C     C_3   0.756440 0.975956 0.553563 -0.258022
C112  C     C_3   0.254148 0.976980 0.445826 -0.263498
C113  C     C_R   0.262136 0.642790 0.855120 0.534692
C114  C     C_3   0.311299 0.535911 0.045014 -0.266639
C115  C     C_R   0.737854 0.642844 0.144866 0.535197
C116  C     C_R   0.762137 0.142793 0.855121 0.535280
C117  C     C_R   0.237854 0.142846 0.144866 0.535552
C118  C     C_3   0.307575 0.664205 0.524476 -0.226355
C119  C     C_3   0.689989 0.662788 0.476035 -0.230204
C120  C     C_3   0.810553 0.163083 0.523430 -0.229457
C121  C     C_3   0.180848 0.144488 0.475763 -0.214455
C122  C     C_R   0.272407 0.045649 0.646807 0.534034
C123  C     C_R   0.727040 0.044192 0.353813 0.537932
C124  C     C_R   0.773059 0.544070 0.646071 0.538475
Cr1   Cr    Cr6+3 0.229620 0.836040 0.749110 0.986757
Cr2   Cr    Cr6+3 0.613980 0.676590 0.250790 0.989330
Cr3   Cr    Cr6+3 0.886020 0.176590 0.749210 0.988961
Cr4   Cr    Cr6+3 0.113980 0.176590 0.250790 0.989556
Cr5   Cr    Cr6+3 0.770380 0.836040 0.250890 0.987545
Cr6   Cr    Cr6+3 0.729620 0.336040 0.749110 0.987687
Cr7   Cr    Cr6+3 0.270380 0.336040 0.250890 0.987742
Cr8   Cr    Cr6+3 0.387630 0.990680 0.750730 0.985883
Cr9   Cr    Cr6+3 0.612370 0.990680 0.249270 0.985819
Cr10  Cr    Cr6+3 0.887630 0.490680 0.750730 0.985243
Cr11  Cr    Cr6+3 0.112370 0.490680 0.249270 0.986132
Cr12  Cr    Cr6+3 0.386020 0.676590 0.749210 0.989088
H1    H     H_    0.377092 0.808606 0.019508 0.083612
H2    H     H_    0.735009 0.798553 0.043017 0.092218
H3    H     H_    0.218294 0.901378 0.546087 0.130684
H4    H     H_    0.305480 0.440350 0.578043 0.114643
H5    H     H_    0.692039 0.443546 0.431815 0.119957
H6    H     H_    0.808741 0.943911 0.568022 0.119933
H7    H     H_    0.209129 0.928147 0.424096 0.109876
H8    H     H_    0.318048 0.440630 0.052532 0.145309
H9    H     H_    0.681961 0.440590 0.947571 0.145346
H10   H     H_    0.818049 0.940629 0.052531 0.145328
H11   H     H_    0.181958 0.940592 0.947567 0.145374
H12   H     H_    0.351999 0.578425 0.077940 0.102179
H13   H     H_    0.764992 0.298521 0.956852 0.092263
H14   H     H_    0.647996 0.578340 0.922059 0.102126
H15   H     H_    0.852001 0.078422 0.077942 0.102156
H16   H     H_    0.147998 0.078349 0.922060 0.101955
H17   H     H_    0.362867 0.633792 0.960118 0.125613
H18   H     H_    0.637139 0.633823 0.039841 0.125567
H19   H     H_    0.862868 0.133796 0.960121 0.125608
H20   H     H_    0.137138 0.133813 0.039844 0.125546
H21   H     H_    0.339906 0.488867 0.936430 0.171935
H22   H     H_    0.660077 0.488920 0.063641 0.171958
H23   H     H_    0.839910 0.988872 0.936431 0.171966
H24   H     H_    0.234996 0.298544 0.043011 0.092168
H25   H     H_    0.160082 0.988912 0.063641 0.171952
H26   H     H_    0.669356 0.931936 0.046557 0.090352
H27   H     H_    0.330628 0.931951 0.953561 0.090383
H28   H     H_    0.169352 0.431937 0.046558 0.090301
H29   H     H_    0.830634 0.431960 0.953557 0.090384
H30   H     H_    0.715296 0.934984 0.925400 0.133561
H31   H     H_    0.284718 0.935039 0.074707 0.133547
H32   H     H_    0.215297 0.434980 0.925400 0.133422
H33   H     H_    0.784711 0.435036 0.074701 0.133533
H34   H     H_    0.194006 0.796058 0.146664 0.262827
H35   H     H_    0.179492 0.749720 0.954780 0.145027
H36   H     H_    0.082568 0.848695 0.104689 0.123151
H37   H     H_    0.084611 0.692767 0.104938 0.174845
H38   H     H_    0.095327 0.773735 0.022415 0.115490
H39   H     H_    0.805952 0.796028 0.853205 0.262714
H40   H     H_    0.917383 0.848783 0.895138 0.123107
H41   H     H_    0.915365 0.692843 0.894978 0.174812
H42   H     H_    0.904646 0.773827 0.977457 0.115527
H43   H     H_    0.694011 0.296057 0.146668 0.262661
H44   H     H_    0.582573 0.348698 0.104697 0.123127
H45   H     H_    0.584614 0.192769 0.104938 0.174855
H46   H     H_    0.820502 0.749779 0.045129 0.144956
H47   H     H_    0.595331 0.273748 0.022419 0.115519
H48   H     H_    0.305972 0.296068 0.853220 0.262331
H49   H     H_    0.417408 0.348782 0.895220 0.123068
H50   H     H_    0.415380 0.192845 0.894939 0.174862
H51   H     H_    0.404659 0.273643 0.977475 0.115541
H52   H     H_    0.679496 0.249724 0.954783 0.145017
H53   H     H_    0.320492 0.249796 0.045136 0.144941
H54   H     H_    0.631701 0.063898 0.031900 0.144162
H55   H     H_    0.368298 0.063925 0.968101 0.144171
H56   H     H_    0.131700 0.563897 0.031898 0.144151
H57   H     H_    0.622923 0.808762 0.980480 0.083645
H58   H     H_    0.868294 0.563944 0.968108 0.144170
H59   H     H_    0.150641 0.544307 0.913542 0.119264
H60   H     H_    0.849360 0.544397 0.086482 0.119495
H61   H     H_    0.650642 0.044313 0.913544 0.119456
H62   H     H_    0.349363 0.044411 0.086479 0.119487
H63   H     H_    0.534065 0.630507 0.440737 0.136389
H64   H     H_    0.466110 0.631234 0.559332 0.137307
H65   H     H_    0.046758 0.140282 0.443858 0.136746
H66   H     H_    0.968963 0.132437 0.558928 0.135629
H67   H     H_    0.447608 0.667526 0.442417 0.114398
H68   H     H_    0.877095 0.308619 0.019509 0.083609
H69   H     H_    0.553344 0.668910 0.558377 0.117408
H70   H     H_    0.959035 0.157980 0.441945 0.114606
H71   H     H_    0.055743 0.169805 0.563569 0.116974
H72   H     H_    0.608624 0.829649 0.466099 0.110189
H73   H     H_    0.391273 0.826215 0.532032 0.112351
H74   H     H_    0.116679 0.397367 0.456975 0.112008
H75   H     H_    0.891163 0.328587 0.541533 0.110340
H76   H     H_    0.598312 0.866275 0.585966 0.101388
H77   H     H_    0.402111 0.859798 0.413167 0.101204
H78   H     H_    0.101497 0.360356 0.581409 0.102794
H79   H     H_    0.122925 0.308748 0.980481 0.083640
H80   H     H_    0.900859 0.333167 0.418044 0.105777
H81   H     H_    0.465066 0.997910 0.065497 0.105883
H82   H     H_    0.534891 0.997944 0.934411 0.105923
H83   H     H_    0.965073 0.497915 0.065492 0.105890
H84   H     H_    0.034899 0.497937 0.934407 0.105824
H85   H     H_    0.452478 0.990898 0.428862 0.120328
H86   H     H_    0.544063 0.992492 0.569565 0.120171
H87   H     H_    0.941533 0.473103 0.422617 0.110241
H88   H     H_    0.047452 0.489114 0.579593 0.114971
H89   H     H_    0.419770 0.974745 0.547927 0.131156
H90   H     H_    0.284592 0.747205 0.074249 0.097937
H91   H     H_    0.578308 0.976456 0.450903 0.131884
H92   H     H_    0.924190 0.475123 0.545631 0.129071
H93   H     H_    0.049288 0.499489 0.459865 0.119337
H94   H     H_    0.127007 0.611058 0.443347 0.136418
H95   H     H_    0.871090 0.636195 0.560325 0.137123
H96   H     H_    0.629272 0.138028 0.439370 0.136854
H97   H     H_    0.368585 0.139301 0.559452 0.135697
H98   H     H_    0.178705 0.733617 0.439856 0.112634
H99   H     H_    0.808927 0.748352 0.560010 0.115952
H100  H     H_    0.691825 0.248614 0.440521 0.115108
H101  H     H_    0.715380 0.747160 0.925667 0.097887
H102  H     H_    0.306670 0.250853 0.565570 0.115481
H103  H     H_    0.164956 0.736188 0.556850 0.135193
H104  H     H_    0.835840 0.740397 0.442128 0.135524
H105  H     H_    0.664023 0.239334 0.557954 0.135974
H106  H     H_    0.322785 0.255516 0.445962 0.136139
H107  H     H_    0.138828 0.588690 0.563724 0.117444
H108  H     H_    0.860488 0.592784 0.442920 0.115191
H109  H     H_    0.640024 0.090691 0.556854 0.117131
H110  H     H_    0.359391 0.117040 0.442244 0.114975
H111  H     H_    0.692175 0.928271 0.466907 0.111229
H112  H     H_    0.784596 0.247203 0.074251 0.097891
H113  H     H_    0.308707 0.927484 0.540417 0.111213
H114  H     H_    0.222930 0.380538 0.457159 0.111621
H115  H     H_    0.809064 0.429270 0.531943 0.113006
H116  H     H_    0.718220 0.926478 0.585861 0.100091
H117  H     H_    0.300109 0.942376 0.418318 0.103957
H118  H     H_    0.213448 0.424131 0.580785 0.102127
H119  H     H_    0.782669 0.426849 0.413789 0.101326
H120  H     H_    0.347419 0.604239 0.420198 0.111221
H121  H     H_    0.649564 0.572419 0.570824 0.120949
H122  H     H_    0.851681 0.075705 0.427913 0.121030
H123  H     H_    0.215391 0.247163 0.925658 0.097715
H124  H     H_    0.149577 0.077806 0.581258 0.115688
H125  H     H_    0.295969 0.734222 0.414871 0.104851
H126  H     H_    0.686389 0.715399 0.589300 0.099868
H127  H     H_    0.811652 0.216091 0.409982 0.098051
H128  H     H_    0.187668 0.222645 0.583446 0.101535
H129  H     H_    0.535075 0.643342 0.935616 0.121772
H130  H     H_    0.464977 0.643304 0.064448 0.121836
H131  H     H_    0.035072 0.143336 0.935618 0.121700
H132  H     H_    0.964974 0.143310 0.064449 0.121823
H133  H     H_    0.298272 0.754206 0.535858 0.112206
H134  H     H_    0.264987 0.798517 0.956849 0.092328
H135  H     H_    0.700794 0.753979 0.471191 0.111401
H136  H     H_    0.799600 0.254290 0.527877 0.111493
H137  H     H_    0.160536 0.229807 0.459752 0.112445
H138  H     H_    0.358580 0.634995 0.542982 0.129227
H139  H     H_    0.639840 0.639115 0.453334 0.131439
H140  H     H_    0.861073 0.139267 0.545811 0.131440
H141  H     H_    0.141668 0.078122 0.461506 0.119988
H142  H     H_    0.308202 0.430063 0.458496 0.120121
H143  H     H_    0.720591 0.396880 0.549213 0.132595
H144  H     H_    0.780949 0.898135 0.450537 0.132973
N1    N     N_2   0.181876 0.777935 0.094051 -0.526203
N2    N     N_2   0.818089 0.777954 0.905826 -0.526186
N3    N     N_2   0.681880 0.277937 0.094055 -0.526204
N4    N     N_2   0.318108 0.277941 0.905840 -0.526196
O1    O     O_R   0.214130 0.708570 0.829890 -0.532581
O2    O     O_R   0.542830 0.717300 0.331620 -0.531070
O3    O     O_R   0.957170 0.217300 0.668380 -0.531612
O4    O     O_R   0.042830 0.217300 0.331620 -0.530723
O5    O     O_R   0.320870 0.624890 0.673130 -0.511849
O6    O     O_R   0.679130 0.624890 0.326870 -0.512092
O7    O     O_R   0.820870 0.124890 0.673130 -0.511454
O8    O     O_R   0.179130 0.124890 0.326870 -0.511802
O9    O     O_3   0.334430 0.834430 0.749680 -0.281271
O10   O     O_3   0.665570 0.834430 0.250320 -0.282276
O11   O     O_3   0.834430 0.334430 0.749680 -0.281785
O12   O     O_R   0.785870 0.708570 0.170110 -0.532224
O13   O     O_3   0.165570 0.334430 0.250320 -0.284251
O14   O     O_R   0.236050 0.959150 0.825270 -0.520330
O15   O     O_R   0.763950 0.959150 0.174730 -0.520078
O16   O     O_R   0.736050 0.459150 0.825270 -0.520069
O17   O     O_R   0.263950 0.459150 0.174730 -0.519752
O18   O     O_R   0.332100 0.076650 0.832310 -0.525811
O19   O     O_R   0.667900 0.076650 0.167690 -0.525592
O20   O     O_R   0.832100 0.576650 0.832310 -0.525597
O21   O     O_R   0.167900 0.576650 0.167690 -0.525299
O22   O     O_R   0.446500 0.918620 0.826240 -0.509716
O23   O     O_R   0.714130 0.208570 0.829890 -0.532221
O24   O     O_R   0.553500 0.918620 0.173760 -0.509760
O25   O     O_R   0.946500 0.418620 0.826240 -0.510253
O26   O     O_R   0.053500 0.418620 0.173760 -0.509374
O27   O     O_R   0.457310 0.715830 0.831280 -0.524794
O28   O     O_R   0.542690 0.715830 0.168720 -0.524824
O29   O     O_R   0.957310 0.215830 0.831280 -0.525276
O30   O     O_R   0.042690 0.215830 0.168720 -0.524428
O31   O     O_R   0.321000 0.623520 0.824130 -0.518426
O32   O     O_R   0.679000 0.623520 0.175870 -0.518088
O33   O     O_R   0.821000 0.123520 0.824130 -0.517953
O34   O     O_R   0.285870 0.208570 0.170110 -0.531953
O35   O     O_R   0.179000 0.123520 0.175870 -0.517869
O36   O     O_R   0.213990 0.710040 0.667000 -0.533137
O37   O     O_R   0.786010 0.710040 0.333000 -0.533220
O38   O     O_R   0.713990 0.210040 0.667000 -0.533170
O39   O     O_R   0.286010 0.210040 0.333000 -0.533002
O40   O     O_R   0.235920 0.960520 0.674260 -0.512142
O41   O     O_R   0.764080 0.960520 0.325740 -0.512613
O42   O     O_R   0.735920 0.460520 0.674260 -0.512533
O43   O     O_R   0.264080 0.460520 0.325740 -0.512522
O44   O     O_R   0.331960 0.078120 0.669410 -0.536704
O45   O     O_R   0.446360 0.919990 0.675230 -0.507339
O46   O     O_R   0.668040 0.078120 0.330590 -0.536575
O47   O     O_R   0.831960 0.578120 0.669410 -0.535992
O48   O     O_R   0.168040 0.578120 0.330590 -0.536567
O49   O     O_R   0.553640 0.919990 0.324770 -0.508045
O50   O     O_R   0.946360 0.419990 0.675230 -0.508206
O51   O     O_R   0.053640 0.419990 0.324770 -0.507791
O52   O     O_R   0.457170 0.717300 0.668380 -0.530423

loop_
_geom_bond_atom_site_label_1
_geom_bond_atom_site_label_2
_ccdc_geom_bond_type
C3    O43   A    
C35   C53   S    
C73   C82   S    
C56   H134  S    
Cr2   O32   S    
C10   C107  S    
C33   H20   S    
C20   C92   S    
C4    O45   A    
C14   C21   S    
C28   H47   S    
C121  H141  S    
Cr12  O5    S    
C1    C46   S    
C94   C111  S    
C29   H50   S    
C5    O2    A    
Cr12  O52   S    
C26   N1    S    
C7    O4    A    
C111  H6    S    
C122  O44   A    
C66   O24   A    
C3    C100  S    
C38   C55   S    
C91   C100  S    
C94   H111  S    
C93   C110  S    
C8    O5    A    
C118  H133  S    
C98   H122  S    
C26   H36   S    
Cr10  O47   S    
C71   H89   S    
C77   H78   S    
Cr1   O1    S    
C75   H76   S    
C86   H97   S    
C20   H79   S    
Cr3   O3    S    
C1    O14   A    
C84   H99   S    
C13   H15   S    
C86   C90   S    
C93   C101  S    
C117  O35   A    
C26   H37   S    
C98   C102  S    
C17   C21   S    
Cr6   O16   S    
C91   H142  S    
C33   H25   S    
C71   C74   S    
C30   C47   S    
C39   C56   S    
C16   C20   S    
Cr4   O35   S    
C28   H44   S    
C11   O8    A    
C49   C115  S    
C83   C100  S    
C56   H35   S    
C105  C118  S    
C59   O21   A    
C37   C45   S    
C102  C123  S    
C107  C120  S    
Cr3   O11   S    
C116  O23   A    
C69   H72   S    
C84   C88   S    
C27   H40   S    
C39   C43   S    
C98   C120  S    
C47   C52   S    
C83   H94   S    
C119  H135  S    
C95   H3    S    
C120  H136  S    
C24   C46   S    
C34   H56   S    
C6    O3    A    
C13   C45   S    
Cr1   O14   S    
Cr8   O45   S    
C77   C82   S    
C49   C53   S    
C86   H102  S    
C89   H109  S    
C51   C55   S    
C93   H143  S    
C94   H144  S    
C94   C102  S    
Cr11  O51   S    
C20   C25   S    
Cr7   O34   S    
C53   H60   S    
C41   C45   S    
C14   H82   S    
C17   H1    S    
C48   O16   A    
C75   C79   S    
C44   C48   S    
Cr6   O38   S    
C91   H114  S    
C37   O15   A    
Cr6   O23   S    
C13   C32   S    
C27   H42   S    
C86   C104  S    
C8    C105  S    
C61   H63   S    
C71   C79   S    
C3    O48   A    
C74   H85   S    
C40   N2    S    
C72   C77   S    
C36   H54   S    
C41   C58   S    
Cr1   O36   S    
C34   H28   S    
C15   C25   S    
C104  C122  S    
C12   C22   S    
C109  H118  S    
C49   C57   S    
C23   C67   S    
C39   H90   S    
C35   H58   S    
C2    C44   S    
C71   H73   S    
C63   H70   S    
Cr2   O28   S    
C43   C59   S    
C113  O1    A    
Cr6   O42   S    
C57   H46   S    
C120  H140  S    
C63   C80   S    
Cr12  O31   S    
C64   H71   S    
Cr10  O50   S    
C101  C124  S    
C87   H103  S    
C113  O31   A    
C96   H120  S    
C65   O27   A    
C66   O28   A    
C123  O46   A    
C111  H116  S    
Cr5   O15   S    
C97   C119  S    
C110  H5    S    
Cr5   O37   S    
C87   C105  S    
C64   C82   S    
Cr9   O10   S    
C115  O32   A    
C38   H27   S    
Cr3   O29   S    
C16   C23   S    
Cr2   O2    S    
C41   H112  S    
C1    O18   A    
C15   H83   S    
C118  H138  S    
C31   H18   S    
C105  C109  S    
C63   H65   S    
Cr1   O40   S    
C18   C22   S    
C107  C111  S    
Cr7   O17   S    
C34   C43   S    
C76   C80   S    
Cr8   O22   S    
C24   H11   S    
Cr7   O43   S    
C99   C121  S    
C90   H106  S    
C90   C108  S    
C72   C80   S    
C29   N4    S    
C96   C100  S    
C51   C117  S    
C29   H49   S    
C16   H84   S    
C61   C62   S    
C38   C46   S    
C36   C54   S    
C65   O22   A    
C63   C64   S    
C40   C44   S    
C38   H55   S    
C11   C108  S    
C23   C92   S    
C51   C60   S    
Cr2   O10   S    
C85   C102  S    
C47   C56   S    
C59   O17   A    
C30   H21   S    
C83   C87   S    
C2    H14   S    
Cr11  O48   S    
C106  C119  S    
C55   H31   S    
C108  C121  S    
C27   N2    S    
Cr4   O13   S    
C2    H9    S    
C15   C19   S    
C52   H59   S    
H43   N3    S    
C50   C54   S    
C54   H61   S    
C109  H4    S    
C112  H7    S    
C54   H30   S    
C95   C112  S    
Cr11  O13   S    
C43   C114  S    
C9    O6    A    
C117  O34   A    
C26   H38   S    
C88   H104  S    
Cr8   O9    S    
C42   C46   S    
C24   H16   S    
Cr2   O6    S    
C75   H86   S    
C12   C17   S    
H39   N2    S    
C53   H33   S    
C32   H23   S    
C99   C104  S    
Cr8   O18   S    
C36   H26   S    
Cr9   O19   S    
C68   O26   A    
C25   C68   S    
C31   C49   S    
C73   H75   S    
C76   H87   S    
C9    O37   A    
C50   C58   S    
C22   C81   S    
C85   C89   S    
C41   N3    S    
Cr6   O11   S    
C108  C112  S    
C114  H8    S    
Cr9   O24   S    
C76   H80   S    
C77   H88   S    
C110  H119  S    
H34   N1    S    
C103  H132  S    
Cr4   O4    S    
C97   H126  S    
Cr12  O27   S    
C99   H128  S    
C74   H77   S    
C73   C76   S    
C12   H81   S    
C30   C114  S    
C47   C113  S    
C40   C57   S    
C21   C65   S    
Cr5   O41   S    
C27   H41   S    
C88   H108  S    
C73   H92   S    
C42   N4    S    
C10   O7    A    
C33   C51   S    
C67   O25   A    
C34   C52   S    
C24   C33   S    
C114  H12   S    
Cr3   O33   S    
Cr5   O10   S    
Cr4   O30   S    
C90   H110  S    
C19   H68   S    
C69   C75   S    
C17   C81   S    
C10   O38   A    
C121  H137  S    
C31   H22   S    
Cr12  O9    S    
Cr10  O25   S    
C119  H139  S    
C29   H51   S    
C74   C78   S    
Cr7   O13   S    
C5    C78   S    
Cr7   O39   S    
C122  O40   A    
C7    C80   S    
C18   C70   S    
C28   N3    S    
C96   H125  S    
C6    C82   S    
C85   H100  S    
C14   C18   S    
C19   C23   S    
C95   H113  S    
C97   H121  S    
C8    O36   A    
C96   C118  S    
C55   H62   S    
C124  O47   A    
C5    O49   A    
C15   C16   S    
C7    O51   A    
C70   C81   S    
C84   H95   S    
Cr10  O11   S    
C22   C66   S    
Cr11  O26   S    
C92   H131  S    
C19   C103  S    
C98   H127  S    
C30   H17   S    
C72   H74   S    
C67   O29   A    
C60   H53   S    
C62   H69   S    
C92   C103  S    
C58   H13   S    
H48   N4    S    
C18   H57   S    
C84   C101  S    
C89   C107  S    
C69   C78   S    
C85   H96   S    
Cr10  O20   S    
C13   H10   S    
C69   H91   S    
C72   H93   S    
C58   H52   S    
C62   C79   S    
C4    C79   S    
C42   C60   S    
Cr9   O46   S    
C25   C103  S    
Cr3   O7    S    
Cr5   O12   S    
C9    C106  S    
C123  O41   A    
C2    C31   S    
C28   H45   S    
C42   H123  S    
C62   H64   S    
C32   H19   S    
C88   C106  S    
C61   H67   S    
C87   H107  S    
C83   H98   S    
Cr4   O8    S    
C61   C78   S    
C68   O30   A    
C36   C45   S    
C35   C44   S    
C32   C50   S    
C12   C14   S    
C4    O52   A    
C81   H130  S    
C89   H105  S    
C6    O50   A    
C95   C104  S    
Cr11  O21   S    
C70   H129  S    
C106  C110  S    
C64   H66   S    
C115  O12   A    
C11   O39   A    
C60   H24   S    
C48   O20   A    
Cr1   O9    S    
C116  O33   A    
C37   O19   A    
Cr8   O44   S    
C21   C70   S    
C91   C109  S    
C52   H32   S    
C40   H101  S    
C112  H117  S    
C99   H124  S    
C39   N1    S    
C35   H29   S    
C57   H2    S    
C50   C116  S    
Cr9   O49   S    
C124  O42   A    
C97   C101  S    
C93   H115  S    
