data_mof_unit_63149.cif
_audit_creation_date              2012-12-10T19:57:55-0500
_audit_creation_method            fapswitch 2.2
_symmetry_space_group_name_H-M    P1
_symmetry_Int_Tables_number       1
_space_group_crystal_system       triclinic
_cell_length_a                    38.521917
_cell_length_b                    32.084477
_cell_length_c                    21.90018
_cell_angle_alpha                 90.000658
_cell_angle_beta                  123.672216
_cell_angle_gamma                 89.999753
_cell_volume                      22526.3224334

loop_
_atom_site_label
_atom_site_type_symbol
_atom_type_description
_atom_site_fract_x
_atom_site_fract_y
_atom_site_fract_z
_atom_type_partial_charge
C1    C     C_R   0.419296 0.500003 0.419974 0.940498
C2    C     C_R   0.706670 0.500204 0.706777 0.157272
C3    C     C_2   0.997771 0.008327 0.181267 -0.455161
C4    C     C_2   0.532252 0.507378 0.748020 0.255567
C5    C     C_2   0.467738 0.507310 0.251972 0.255602
C6    C     C_2   0.032249 0.007405 0.748017 0.255571
C7    C     C_2   0.967747 0.007376 0.251979 0.255587
C8    C     C_2   0.497644 0.497860 0.682031 0.135636
C9    C     C_2   0.502363 0.497859 0.317979 0.135615
C10   C     C_2   0.997648 0.997860 0.682035 0.135647
C11   C     C_2   0.002355 0.997859 0.317969 0.135640
C12   C     C_R   0.229203 0.499256 0.172847 -0.181982
C13   C     C_R   0.793330 0.000202 0.293223 0.157275
C14   C     C_R   0.770796 0.498897 0.827136 -0.181977
C15   C     C_R   0.729203 0.999367 0.172846 -0.181971
C16   C     C_R   0.270796 0.999236 0.827148 -0.181970
C17   C     C_R   0.206629 0.500223 0.205473 0.161856
C18   C     C_R   0.793370 0.500227 0.794528 0.161863
C19   C     C_R   0.706629 0.000220 0.205476 0.161859
C20   C     C_R   0.293370 0.000222 0.794525 0.161862
C21   C     C_R   0.227326 0.501226 0.281881 -0.167238
C22   C     C_R   0.772675 0.501592 0.718138 -0.167241
C23   C     C_R   0.727326 0.001111 0.281888 -0.167241
C24   C     C_R   0.206670 0.000203 0.706775 0.157273
C25   C     C_R   0.272675 0.001245 0.718119 -0.167243
C26   C     C_3   0.425914 0.482683 0.614103 0.110113
C27   C     C_3   0.409611 0.526362 0.614124 -0.407550
C28   C     C_3   0.366438 0.533740 0.544753 -0.928853
C29   C     C_3   0.574118 0.482793 0.385955 0.110145
C30   C     C_3   0.590355 0.526501 0.385900 -0.407422
C31   C     C_3   0.633510 0.533944 0.455278 -0.928978
C32   C     C_3   0.925927 0.982639 0.614128 0.110131
C33   C     C_3   0.909598 0.026306 0.614137 -0.407614
C34   C     C_3   0.866418 0.033661 0.544770 -0.928802
C35   C     C_R   0.272654 0.499251 0.216823 -0.144442
C36   C     C_3   0.074086 0.982683 0.385895 0.110142
C37   C     C_3   0.090388 0.026361 0.385873 -0.407567
C38   C     C_3   0.133561 0.033742 0.455244 -0.928844
C39   C     C_R   0.727345 0.498891 0.783157 -0.144533
C40   C     C_R   0.772654 0.999362 0.216823 -0.144424
C41   C     C_R   0.227345 0.999231 0.783170 -0.144460
C42   C     C_1   0.162187 0.500134 0.160622 -0.061081
C43   C     C_1   0.837813 0.500136 0.839380 -0.061088
C44   C     C_1   0.662187 0.000132 0.160623 -0.061069
C45   C     C_R   0.580704 0.500003 0.580024 0.940434
C46   C     C_1   0.337813 0.000134 0.839378 -0.061071
C47   C     C_1   0.337740 0.500095 0.338141 -0.046240
C48   C     C_1   0.662260 0.500095 0.661853 -0.046227
C49   C     C_1   0.837740 0.000094 0.338145 -0.046242
C50   C     C_1   0.162260 0.000094 0.661852 -0.046238
C51   C     C_1   0.375049 0.500020 0.375720 -0.112280
C52   C     C_1   0.624952 0.500020 0.624276 -0.112330
C53   C     C_1   0.875048 0.000019 0.375723 -0.112300
C54   C     C_1   0.124952 0.000019 0.624275 -0.112321
C55   C     C_1   0.124852 0.500057 0.123443 -0.168695
C56   C     C_R   0.919296 0.000002 0.419977 0.940443
C57   C     C_1   0.875148 0.500058 0.876557 -0.168695
C58   C     C_1   0.624852 0.000056 0.123444 -0.168689
C59   C     C_1   0.375148 0.000056 0.876557 -0.168690
C60   C     C_R   0.500000 0.419285 0.000000 0.947019
C61   C     C_R   1.000000 0.919285 0.000000 0.946946
C62   C     C_R   0.500504 0.500385 0.881444 0.991830
C63   C     C_R   0.499496 0.500382 0.118556 0.991884
C64   C     C_R   0.000504 0.000387 0.881444 0.991842
C65   C     C_R   0.999496 0.000385 0.118556 0.991862
C66   C     C_R   0.500000 0.580724 0.000000 0.880873
C67   C     C_R   0.080704 0.000002 0.580023 0.940418
C68   C     C_R   1.000000 0.080724 0.000000 0.880892
C69   C     C_R   0.499678 0.499799 0.618424 0.913396
C70   C     C_R   0.500323 0.499798 0.381578 0.913502
C71   C     C_R   0.999679 0.999799 0.618425 0.913346
C72   C     C_R   0.000322 0.999799 0.381576 0.913388
C73   C     C_R   0.000000 0.419482 1.000000 0.902613
C74   C     C_R   0.500000 0.919482 1.000000 0.902618
C75   C     C_R   0.080565 0.499992 0.080060 0.903112
C76   C     C_R   0.919435 0.499992 0.919940 0.903112
C77   C     C_R   0.580565 0.999992 0.080060 0.903132
C78   C     C_R   0.270770 0.501219 0.325852 -0.190561
C79   C     C_R   0.419435 0.999992 0.919940 0.903132
C80   C     C_R   0.000000 0.580606 0.000000 0.903484
C81   C     C_R   0.500000 0.080606 0.000000 0.903525
C82   C     C_R   0.982287 0.728243 0.031753 -0.174126
C83   C     C_R   0.017712 0.728242 0.968249 -0.174131
C84   C     C_R   0.483220 0.228243 0.033361 -0.174117
C85   C     C_R   0.516779 0.228242 0.966641 -0.174108
C86   C     C_R   1.000000 0.706612 0.000001 0.160790
C87   C     C_R   0.500000 0.206612 0.000001 0.160756
C88   C     C_R   0.516779 0.271675 0.966640 -0.163733
C89   C     C_R   0.729232 0.501583 0.674164 -0.190581
C90   C     C_R   0.483220 0.271676 0.033362 -0.163691
C91   C     C_R   0.017712 0.771675 0.968248 -0.163700
C92   C     C_R   0.982288 0.771676 0.031754 -0.163682
C93   C     C_R   0.500000 0.293303 0.000001 0.152203
C94   C     C_R   1.000000 0.793303 0.000001 0.152174
C95   C     C_1   1.000000 0.662183 0.000001 -0.059985
C96   C     C_1   0.500000 0.162183 0.000001 -0.059995
C97   C     C_1   0.500000 0.337726 0.000001 -0.041953
C98   C     C_1   1.000000 0.837726 0.000000 -0.041981
C99   C     C_1   0.500000 0.375036 0.000000 -0.114766
C100  C     C_R   0.770769 0.001104 0.325860 -0.190544
C101  C     C_1   1.000000 0.875036 0.000000 -0.114858
C102  C     C_2   0.533742 0.495467 0.813658 0.475054
C103  C     C_2   0.466271 0.495401 0.186352 0.475006
C104  C     C_2   0.033748 0.995493 0.813663 0.475087
C105  C     C_2   0.966258 0.995466 0.186341 0.475068
C106  C     C_1   1.000000 0.624868 0.000001 -0.168371
C107  C     C_1   0.500000 0.124868 0.000001 -0.168379
C108  C     C_R   0.985517 0.271816 0.934629 -0.172879
C109  C     C_R   0.014484 0.271817 0.065370 -0.172886
C110  C     C_R   0.485530 0.771816 0.934634 -0.172889
C111  C     C_R   0.229232 0.001238 0.674145 -0.190550
C112  C     C_R   0.514471 0.771817 0.065365 -0.172893
C113  C     C_R   0.000000 0.293453 0.999999 0.162222
C114  C     C_R   0.500001 0.793453 0.999999 0.162230
C115  C     C_R   0.514470 0.728381 0.065365 -0.170692
C116  C     C_R   0.485531 0.728380 0.934634 -0.170672
C117  C     C_R   0.014483 0.228381 0.065370 -0.170672
C118  C     C_R   0.985518 0.228380 0.934629 -0.170663
C119  C     C_R   0.500001 0.706746 0.999999 0.163416
C120  C     C_R   0.000000 0.206746 1.000000 0.163406
C121  C     C_1   0.000000 0.337891 0.999999 -0.061490
C122  C     C_R   0.293330 0.500203 0.293219 0.157277
C123  C     C_1   0.500000 0.837891 0.999999 -0.061501
C124  C     C_1   0.500000 0.662309 1.000000 -0.058695
C125  C     C_1   0.000000 0.162309 1.000000 -0.058673
C126  C     C_1   0.500000 0.624991 1.000000 -0.151438
C127  C     C_1   0.000000 0.124991 1.000000 -0.151412
C128  C     C_1   0.000000 0.375211 0.999999 -0.168433
C129  C     C_1   0.500000 0.875211 0.999999 -0.168443
C130  C     C_2   0.502229 0.508328 0.818733 -0.455162
C131  C     C_2   0.497767 0.508309 0.181266 -0.455137
C132  C     C_2   0.002228 0.008335 0.818733 -0.455170
H1    H     H_    0.968545 0.711570 0.056388 0.149129
H2    H     H_    0.025723 0.288490 0.116091 0.146794
H3    H     H_    0.474302 0.788489 0.883916 0.146792
H4    H     H_    0.525699 0.788490 0.116082 0.146785
H5    H     H_    0.477572 0.527828 0.776167 0.132072
H6    H     H_    0.522401 0.527839 0.223813 0.132094
H7    H     H_    0.977561 0.027824 0.776158 0.132055
H8    H     H_    0.022428 0.027828 0.223834 0.132063
H9    H     H_    0.290088 0.498482 0.191442 0.170797
H10   H     H_    0.709910 0.497841 0.808523 0.170886
H11   H     H_    0.790089 0.998681 0.191440 0.170805
H12   H     H_    0.031455 0.711568 0.943614 0.149120
H13   H     H_    0.209910 0.998447 0.808548 0.170842
H14   H     H_    0.213250 0.498485 0.113683 0.151525
H15   H     H_    0.786747 0.497845 0.886287 0.151536
H16   H     H_    0.713251 0.998683 0.113679 0.151525
H17   H     H_    0.286747 0.998450 0.886311 0.151530
H18   H     H_    0.209913 0.501983 0.307293 0.145412
H19   H     H_    0.790090 0.502629 0.692741 0.145419
H20   H     H_    0.709912 0.001780 0.307302 0.145405
H21   H     H_    0.290090 0.002017 0.692709 0.145407
H22   H     H_    0.286724 0.501968 0.385021 0.143069
H23   H     H_    0.470201 0.211570 0.059244 0.149158
H24   H     H_    0.713280 0.502611 0.615008 0.143125
H25   H     H_    0.786723 0.001766 0.385032 0.143054
H26   H     H_    0.213279 0.002002 0.614977 0.143073
H27   H     H_    0.470202 0.288353 0.059244 0.160075
H28   H     H_    0.529797 0.288352 0.940757 0.160048
H29   H     H_    0.968547 0.788353 0.056390 0.160066
H30   H     H_    0.031453 0.788351 0.943612 0.160052
H31   H     H_    0.616740 0.418826 0.872362 0.380686
H32   H     H_    0.383385 0.418633 0.127711 0.380709
H33   H     H_    0.116789 0.918901 0.872392 0.380680
H34   H     H_    0.529798 0.211568 0.940758 0.149151
H35   H     H_    0.883258 0.918826 0.127631 0.380691
H36   H     H_    0.636633 0.553251 0.851816 0.382103
H37   H     H_    0.363279 0.553005 0.148113 0.382025
H38   H     H_    0.136601 0.053342 0.851787 0.382065
H39   H     H_    0.863362 0.053239 0.148184 0.382035
H40   H     H_    0.404018 0.459472 0.612473 0.182339
H41   H     H_    0.425301 0.477191 0.563409 0.120149
H42   H     H_    0.407726 0.529694 0.662707 0.237317
H43   H     H_    0.431229 0.550514 0.617324 0.223079
H44   H     H_    0.367800 0.531822 0.495510 0.257751
H45   H     H_    0.474304 0.711707 0.883917 0.146385
H46   H     H_    0.355218 0.565260 0.546778 0.274971
H47   H     H_    0.343946 0.510241 0.540238 0.260568
H48   H     H_    0.596055 0.459622 0.387621 0.182345
H49   H     H_    0.574729 0.477289 0.436644 0.120073
H50   H     H_    0.592246 0.529848 0.337325 0.237278
H51   H     H_    0.568694 0.550616 0.382659 0.223109
H52   H     H_    0.632138 0.532015 0.504510 0.257777
H53   H     H_    0.644684 0.565483 0.453226 0.274954
H54   H     H_    0.656043 0.510483 0.459835 0.260576
H55   H     H_    0.904047 0.959412 0.612512 0.182351
H56   H     H_    0.525697 0.711708 0.116082 0.146370
H57   H     H_    0.925313 0.977153 0.563431 0.120176
H58   H     H_    0.907715 0.029631 0.662723 0.237334
H59   H     H_    0.931200 0.050474 0.617323 0.223070
H60   H     H_    0.867777 0.031748 0.495522 0.257746
H61   H     H_    0.855180 0.065172 0.546786 0.274980
H62   H     H_    0.843942 0.010146 0.540269 0.260564
H63   H     H_    0.095982 0.959472 0.387526 0.182353
H64   H     H_    0.074699 0.977192 0.436590 0.120146
H65   H     H_    0.092274 0.029692 0.337290 0.237319
H66   H     H_    0.068769 0.050514 0.382672 0.223081
H67   H     H_    0.974280 0.211707 0.883908 0.146393
H68   H     H_    0.132198 0.031825 0.504487 0.257757
H69   H     H_    0.144781 0.065261 0.453218 0.274972
H70   H     H_    0.156053 0.010242 0.459761 0.260566
H71   H     H_    0.025721 0.211709 0.116091 0.146386
H72   H     H_    0.974278 0.288488 0.883907 0.146800
O1    O     O_R   0.439010 0.534430 0.439020 -0.595775
O2    O     O_R   0.939020 0.499970 0.990130 -0.613491
O3    O     O_R   0.560980 0.999970 0.009870 -0.613483
O4    O     O_R   0.439020 0.999970 0.990130 -0.613484
O5    O     O_R   0.000010 0.561020 0.051000 -0.613756
O6    O     O_R   0.999990 0.561020 0.949000 -0.613769
O7    O     O_R   0.500010 0.061020 0.051000 -0.613785
O8    O     O_R   0.499990 0.061020 0.949000 -0.613791
O9    O     O_R   0.439010 0.465570 0.438980 -0.621372
O10   O     O_R   0.560990 0.465570 0.561020 -0.621416
O11   O     O_R   0.939010 0.965570 0.438980 -0.621425
O12   O     O_R   0.560990 0.534430 0.560980 -0.595732
O13   O     O_R   0.060990 0.965570 0.561020 -0.621444
O14   O     O_R   0.500010 0.534430 0.590460 -0.605780
O15   O     O_R   0.499990 0.534430 0.409540 -0.605906
O16   O     O_R   0.000010 0.034430 0.590460 -0.605736
O17   O     O_R   0.999990 0.034430 0.409540 -0.605788
O18   O     O_R   0.500010 0.465570 0.590420 -0.604540
O19   O     O_R   0.499990 0.465570 0.409580 -0.604477
O20   O     O_R   0.000010 0.965570 0.590420 -0.604538
O21   O     O_R   0.999990 0.965570 0.409580 -0.604512
O22   O     O_R   0.534430 0.439010 0.034350 -0.601228
O23   O     O_R   0.939010 0.034430 0.439020 -0.595724
O24   O     O_R   0.465570 0.439010 0.965650 -0.601199
O25   O     O_R   0.034430 0.939010 0.034350 -0.601258
O26   O     O_R   0.965570 0.939010 0.965650 -0.601245
O27   O     O_R   0.534420 0.500000 0.943920 -0.553125
O28   O     O_R   0.465580 0.500000 0.056080 -0.553187
O29   O     O_R   0.034420 1.000000 0.943920 -0.553105
O30   O     O_R   0.965580 1.000000 0.056080 -0.553130
O31   O     O_R   0.465560 0.500000 0.875080 -0.634842
O32   O     O_R   0.534440 0.500000 0.124920 -0.634799
O33   O     O_R   0.965560 0.000000 0.875080 -0.634848
O34   O     O_R   0.060990 0.034430 0.560980 -0.595708
O35   O     O_R   0.034440 1.000000 0.124920 -0.634830
O36   O     O_R   0.534430 0.560990 0.034430 -0.621351
O37   O     O_R   0.465570 0.560990 0.965570 -0.621374
O38   O     O_R   0.034430 0.060990 0.034430 -0.621345
O39   O     O_R   0.965570 0.060990 0.965570 -0.621355
O40   O     O_R   0.000000 0.439050 0.051090 -0.613742
O41   O     O_R   0.000000 0.439050 0.948910 -0.613728
O42   O     O_R   0.500000 0.939050 0.051090 -0.613743
O43   O     O_R   0.500000 0.939050 0.948910 -0.613736
O44   O     O_2   0.605472 0.481028 0.943288 -0.248121
O45   O     O_R   0.060990 0.500040 0.112010 -0.614367
O46   O     O_2   0.552937 0.425428 0.894062 -0.318867
O47   O     O_3   0.594475 0.437075 0.834268 -0.500236
O48   O     O_2   0.394558 0.480880 0.056738 -0.248095
O49   O     O_2   0.447171 0.425356 0.105990 -0.318971
O50   O     O_3   0.405625 0.436909 0.165790 -0.500132
O51   O     O_2   0.105484 0.981088 0.943299 -0.248161
O52   O     O_2   0.052981 0.925457 0.894085 -0.318814
O53   O     O_3   0.094515 0.937142 0.834294 -0.500211
O54   O     O_2   0.894528 0.981027 0.056711 -0.248159
O55   O     O_2   0.947063 0.925427 0.105933 -0.318847
O56   O     O_R   0.939010 0.500040 0.887990 -0.614367
O57   O     O_3   0.905525 0.937073 0.165728 -0.500169
O58   O     O_2   0.597578 0.501365 0.736101 -0.303812
O59   O     O_2   0.565391 0.570382 0.714925 -0.302370
O60   O     O_3   0.611330 0.543469 0.848780 -0.501696
O61   O     O_2   0.402411 0.501156 0.263862 -0.303747
O62   O     O_2   0.434486 0.570230 0.285010 -0.302477
O63   O     O_3   0.388604 0.543284 0.151169 -0.501695
O64   O     O_2   0.097573 0.001447 0.736083 -0.303825
O65   O     O_2   0.065342 0.070442 0.714899 -0.302349
O66   O     O_3   0.111306 0.043541 0.848758 -0.501706
O67   O     O_R   0.560990 0.000040 0.112010 -0.614380
O68   O     O_2   0.902422 0.001360 0.263901 -0.303800
O69   O     O_2   0.934607 0.070378 0.285075 -0.302391
O70   O     O_3   0.888667 0.043464 0.151221 -0.501709
O71   O     O_3   0.465701 0.475092 0.679041 -0.649075
O72   O     O_3   0.534348 0.475146 0.321013 -0.649121
O73   O     O_3   0.965722 0.975070 0.679064 -0.649032
O74   O     O_3   0.034298 0.975091 0.320957 -0.649049
O75   O     O_R   0.439010 0.000040 0.887990 -0.614380
O76   O     O_R   0.060980 0.499970 0.009870 -0.613491
S1    S     S_3+6 0.572426 0.459004 0.874594 0.093373
S2    S     S_3+6 0.427637 0.458891 0.125443 0.093372
S3    S     S_3+6 0.072452 0.959050 0.874611 0.093378
S4    S     S_3+6 0.927574 0.959003 0.125403 0.093379
S5    S     S_3+6 0.577302 0.531252 0.759972 0.042672
S6    S     S_3+6 0.422644 0.531097 0.239986 0.042570
S7    S     S_3+6 0.077281 0.031313 0.759954 0.042671
S8    S     S_3+6 0.922696 0.031249 0.240029 0.042628
Zn1   Zn    Zn3+2 0.500000 0.545980 0.500000 1.066867
Zn2   Zn    Zn3+2 0.999990 0.500050 0.931820 0.983237
Zn3   Zn    Zn3+2 0.500010 0.000050 0.068180 0.983196
Zn4   Zn    Zn3+2 0.499990 0.000050 0.931820 0.983197
Zn5   Zn    Zn3+2 0.000000 0.045980 0.500000 1.067031
Zn6   Zn    Zn3+2 0.500000 0.454020 0.500000 1.033995
Zn7   Zn    Zn3+2 1.000000 0.954020 0.500000 1.033950
Zn8   Zn    Zn3+2 0.545980 0.500000 0.045940 1.061120
Zn9   Zn    Zn3+2 0.454020 0.500000 0.954060 1.061051
Zn10  Zn    Zn3+2 0.045980 1.000000 0.045940 1.061085
Zn11  Zn    Zn3+2 0.954020 0.000000 0.954060 1.061057
Zn12  Zn    Zn3+2 0.000010 0.500050 0.068180 0.983236

loop_
_geom_bond_atom_site_label_1
_geom_bond_atom_site_label_2
_ccdc_geom_bond_type
C92   H29   S    
C23   H20   S    
C81   C107  S    
O59   S5    D    
C93   C97   S    
C46   C59   T    
C75   O45   A    
C30   H51   S    
C14   C18   A    
C9    O72   S    
C19   C23   A    
C84   C87   A    
O66   S7    S    
C4    C8    D    
C60   C99   S    
C45   O12   A    
O15   Zn1   S    
O2    Zn12  S    
C109  C117  A    
C119  C124  S    
C3    C105  D    
C132  H7    S    
C15   C19   A    
C76   O56   A    
C26   C27   S    
C29   C30   S    
C29   H49   S    
O60   S5    S    
C57   C76   S    
C124  C126  T    
C36   C37   S    
C111  H26   S    
C5    S6    S    
O49   S2    D    
C77   O3    A    
C104  S3    S    
O31   Zn9   S    
C83   H12   S    
C74   O42   A    
C84   H23   S    
C85   C88   A    
C31   H52   S    
C73   O41   A    
C20   C25   A    
C94   C98   S    
C68   O39   A    
C104  C132  D    
C79   O4    A    
O36   Zn8   S    
O30   Zn11  S    
C80   C106  S    
C90   H27   S    
C105  S4    S    
C82   C92   A    
C112  C115  A    
C69   O18   A    
H35   O57   S    
O5    Zn12  S    
C12   H14   S    
O26   Zn11  S    
O7    Zn3   S    
C17   C42   S    
O13   Zn7   S    
C56   O11   A    
C7    S8    S    
C58   C77   S    
C14   C39   A    
C22   H19   S    
C2    C39   A    
O11   Zn7   S    
C64   C132  S    
O63   S6    S    
C68   O38   A    
C13   C40   A    
C38   H69   S    
C4    C102  S    
O43   Zn4   S    
H38   O66   S    
C61   O25   A    
C77   O67   A    
C91   H30   S    
C16   H17   S    
C62   O31   A    
C6    C104  S    
C17   C21   A    
C1    O1    A    
O12   Zn1   S    
C110  C114  A    
C11   O74   S    
C60   O22   A    
O8    Zn4   S    
C109  C113  A    
O35   Zn10  S    
C55   C75   S    
C10   C71   S    
C34   H62   S    
C29   O72   S    
C23   C100  A    
C63   O32   A    
C26   H40   S    
C10   O73   S    
C116  H45   S    
C123  C129  T    
C4    S5    S    
C24   C41   A    
C30   H50   S    
C102  S1    S    
C31   H53   S    
C110  H3    S    
C3    C65   S    
C24   C111  A    
C84   C90   A    
C112  H4    S    
O3    Zn4   S    
C78   C122  A    
C118  H67   S    
C100  H25   S    
C27   H42   S    
O67   Zn3   S    
O44   S1    D    
C97   C99   T    
C76   O2    A    
C7    C11   D    
C118  C120  A    
C85   C87   A    
C24   C50   S    
O56   Zn2   S    
O42   Zn3   S    
H37   O63   S    
O29   Zn10  S    
C79   O75   A    
C25   H21   S    
C69   O14   A    
C116  C119  A    
C108  C118  A    
C65   O30   A    
C67   O13   A    
C33   C34   S    
C9    C70   S    
C121  C128  T    
H39   O70   S    
C117  C120  A    
C27   H43   S    
C43   C57   T    
C11   C72   S    
C78   H22   S    
C47   C122  S    
C47   C51   T    
C54   C67   S    
C45   C52   S    
C2    C48   S    
C82   C86   A    
O47   S1    S    
C14   H15   S    
C29   H48   S    
O22   Zn8   S    
C71   O16   A    
C66   C126  S    
C33   H58   S    
O23   Zn5   S    
C108  C113  A    
C12   C17   A    
C2    C89   A    
C61   C101  S    
C32   H57   S    
C36   H64   S    
O4    Zn3   S    
C5    C9    D    
C37   C38   S    
C80   O5    A    
C95   C106  T    
O48   S2    D    
C42   C55   T    
O57   S4    S    
H36   O60   S    
O62   S6    D    
O10   Zn6   S    
C39   H10   S    
C30   C31   S    
C16   C20   A    
C87   C96   S    
O18   Zn6   S    
C92   C94   A    
C61   O26   A    
C8    C69   S    
O20   Zn7   S    
C41   H13   S    
O25   Zn10  S    
C50   C54   T    
C37   H66   S    
C21   C78   A    
C1    C51   S    
C68   C127  S    
C36   O74   S    
C64   O33   A    
C72   O17   A    
C63   C131  S    
C35   H9    S    
C13   C49   S    
C114  C123  S    
O50   S2    S    
C34   H61   S    
C28   H44   S    
C81   O7    A    
C96   C107  T    
C62   O27   A    
C37   H65   S    
C72   O21   A    
O64   S7    D    
C1    O9    A    
C20   C46   S    
O46   S1    D    
C38   H68   S    
O19   Zn6   S    
C74   C129  S    
O70   S8    S    
O58   S5    D    
C85   H34   S    
C59   C79   S    
O1    Zn1   S    
C56   O23   A    
C110  C116  A    
C83   C91   A    
C19   C44   S    
O40   Zn12  S    
C90   C93   A    
C80   O6    A    
C53   C56   S    
O38   Zn10  S    
C88   C93   A    
O55   S4    D    
C71   O20   A    
C103  S2    S    
C32   H55   S    
C66   O36   A    
C109  H2    S    
C18   C22   A    
O65   S7    D    
C35   C122  A    
H32   O50   S    
C70   O15   A    
C89   H24   S    
C81   O8    A    
C6    C10   D    
C44   C58   T    
O37   Zn9   S    
O52   S3    D    
C15   H16   S    
C66   O37   A    
O41   Zn2   S    
O68   S8    D    
C73   C128  S    
C70   O19   A    
C67   O34   A    
C115  C119  A    
C62   C130  S    
C26   H41   S    
C98   C101  T    
C75   O76   A    
C33   H59   S    
C32   C33   S    
C83   C86   A    
C13   C100  A    
H31   O47   S    
C6    S7    S    
O24   Zn9   S    
C36   H63   S    
O27   Zn8   S    
C108  H72   S    
C131  H6    S    
O21   Zn7   S    
C18   C43   S    
O16   Zn5   S    
C91   C94   A    
C115  H56   S    
C21   H18   S    
C26   O71   S    
C73   O40   A    
C103  C131  D    
C82   H1    S    
C49   C53   T    
C5    C103  S    
C31   H54   S    
C34   H60   S    
O9    Zn6   S    
O34   Zn5   S    
C22   C89   A    
H33   O53   S    
C7    C105  S    
C45   O10   A    
C88   H28   S    
C120  C125  S    
O32   Zn8   S    
C74   O43   A    
C28   H47   S    
O76   Zn2   S    
C15   C40   A    
C8    O71   S    
C86   C95   S    
C25   C111  A    
O14   Zn1   S    
O17   Zn5   S    
C112  C114  A    
O61   S6    D    
C48   C52   T    
O45   Zn12  S    
C113  C121  S    
O39   Zn11  S    
O75   Zn4   S    
C38   H70   S    
C40   H11   S    
O51   S3    D    
C27   C28   S    
C125  C127  T    
O69   S8    D    
O28   Zn9   S    
O54   S4    D    
C3    H8    S    
O6    Zn2   S    
C60   O24   A    
C117  H71   S    
C130  H5    S    
C28   H46   S    
C16   C41   A    
C12   C35   A    
O53   S3    S    
C32   O73   S    
O33   Zn11  S    
C64   O29   A    
C63   O28   A    
C65   O35   A    
C102  C130  D    
