data_mof_unit_13593.cif
_audit_creation_date              2012-10-26T18:58:28-0400
_audit_creation_method            fapswitch 2.2
_symmetry_space_group_name_H-M    P1
_symmetry_Int_Tables_number       1
_space_group_crystal_system       triclinic
_cell_length_a                    19.347403
_cell_length_b                    18.368383
_cell_length_c                    15.929226
_cell_angle_alpha                 89.91485
_cell_angle_beta                  90.659123
_cell_angle_gamma                 89.98044
_cell_volume                      5660.55524178

loop_
_atom_site_label
_atom_site_type_symbol
_atom_type_description
_atom_site_fract_x
_atom_site_fract_y
_atom_site_fract_z
_atom_type_partial_charge
C1    C     C_R   0.367997 0.499860 0.499578 0.588379
C2    C     C_R   0.927858 0.497887 0.501748 0.021634
C3    C     C_R   0.444744 0.721840 0.467417 0.370309
C4    C     C_R   0.513560 0.277209 0.572636 0.363891
C5    C     C_R   0.555180 0.721591 0.532932 0.370804
C6    C     C_R   0.486527 0.277286 0.427409 0.363931
C7    C     C_R   0.442002 0.798589 0.474412 -0.140799
C8    C     C_R   0.507712 0.200582 0.574210 -0.135637
C9    C     C_R   0.558158 0.798345 0.525867 -0.141051
C10   C     C_R   0.492424 0.200663 0.426028 -0.135435
C11   C     C_R   0.500140 0.838588 0.500078 -0.053235
C12   C     C_R   0.632009 0.499833 0.500460 0.588162
C13   C     C_R   0.500051 0.160541 0.500158 -0.054099
C14   C     C_R   0.536402 0.961379 0.562817 0.236243
C15   C     C_R   0.457244 0.037854 0.443997 0.235650
C16   C     C_R   0.463892 0.961561 0.437478 0.236228
C17   C     C_R   0.542964 0.037706 0.556341 0.235603
C18   C     C_R   0.500077 0.077935 0.500187 -0.063816
C19   C     C_R   0.500162 0.921248 0.500134 -0.061912
C20   C     C_R   0.500095 0.500148 0.341448 0.567914
C21   C     C_R   0.499883 0.500028 0.658534 0.567531
C22   C     C_R   0.499562 0.568334 0.955779 0.248463
C23   C     C_R   0.707333 0.498984 0.500907 -0.034484
C24   C     C_R   0.504803 0.435675 0.044083 0.234499
C25   C     C_R   0.493634 0.568275 0.043359 0.248054
C26   C     C_R   0.499195 0.435241 0.956452 0.235117
C27   C     C_R   0.499416 0.501623 0.912406 -0.064169
C28   C     C_R   0.499367 0.502009 0.087471 -0.065167
C29   C     C_1   0.499200 0.501035 0.822661 0.005602
C30   C     C_1   0.500019 0.501691 0.177252 0.003906
C31   C     C_1   0.500251 0.500846 0.252370 0.020482
C32   C     C_1   0.499378 0.500380 0.747570 0.020610
C33   C     C_R   0.743999 0.510297 0.576518 0.059957
C34   C     C_R   0.292684 0.499087 0.499149 -0.034188
C35   C     C_R   0.257137 0.484521 0.573874 0.065273
C36   C     C_R   0.256030 0.509979 0.423408 0.058487
C37   C     C_R   0.742882 0.483887 0.426366 0.065212
C38   C     C_R   0.816362 0.509621 0.577098 0.267843
C39   C     C_R   0.184726 0.485477 0.573920 0.265874
C40   C     C_R   0.183673 0.509284 0.422809 0.267565
C41   C     C_R   0.815292 0.484807 0.426285 0.266144
C42   C     C_R   0.851926 0.497879 0.501707 0.032862
C43   C     C_R   0.148102 0.498020 0.498318 0.033023
C44   C     C_3   0.423814 0.647709 0.115057 0.018900
C45   C     C_R   0.963737 0.564620 0.501272 0.093438
C46   C     C_3   0.378914 0.687293 0.048955 -0.246979
C47   C     C_3   0.330374 0.635406 0.002042 -0.420048
C48   C     C_3   0.431591 0.351127 0.888077 0.023006
C49   C     C_3   0.394485 0.308070 0.956653 -0.260834
C50   C     C_3   0.324253 0.280698 0.925757 -0.486248
C51   C     C_3   0.561975 0.653747 0.882789 0.019751
C52   C     C_3   0.601711 0.700882 0.946824 -0.246995
C53   C     C_3   0.654737 0.656811 0.997369 -0.420175
C54   C     C_3   0.578831 0.357957 0.113170 0.025770
C55   C     C_3   0.618979 0.317448 0.045233 -0.261381
C56   C     C_R   0.036325 0.431215 0.499990 0.095548
C57   C     C_3   0.691203 0.296565 0.076281 -0.484732
C58   C     C_3   0.870243 0.460620 0.692504 0.030786
C59   C     C_3   0.882960 0.477365 0.785308 -0.254859
C60   C     C_3   0.904598 0.409274 0.833900 -0.489722
C61   C     C_3   0.133852 0.528977 0.692034 0.026624
C62   C     C_3   0.093844 0.506582 0.770000 -0.249705
C63   C     C_3   0.073087 0.572642 0.821900 -0.488523
C64   C     C_3   0.130156 0.459585 0.307771 0.031065
C65   C     C_3   0.117123 0.475977 0.214886 -0.255133
C66   C     C_3   0.095761 0.407623 0.166880 -0.489659
C67   C     C_R   0.036181 0.564647 0.497834 0.093389
C68   C     C_3   0.866151 0.527374 0.307574 0.026670
C69   C     C_3   0.906093 0.504340 0.229869 -0.249776
C70   C     C_3   0.926881 0.569983 0.177095 -0.488726
C71   C     C_3   0.374563 0.707127 0.350166 0.009092
C72   C     C_3   0.298495 0.729062 0.342544 -0.237188
C73   C     C_3   0.277743 0.743954 0.251485 -0.470421
C74   C     C_3   0.599929 0.302666 0.666463 0.002745
C75   C     C_3   0.613913 0.328392 0.756256 -0.235051
C76   C     C_3   0.689817 0.318922 0.781082 -0.480911
C77   C     C_3   0.622778 0.706720 0.652301 0.010819
C78   C     C_R   0.963817 0.431179 0.500765 0.095441
C79   C     C_3   0.698237 0.730326 0.661966 -0.238126
C80   C     C_3   0.716388 0.747484 0.753226 -0.471184
C81   C     C_3   0.400906 0.302495 0.332262 0.004267
C82   C     C_3   0.387649 0.328886 0.242462 -0.235470
C83   C     C_3   0.312144 0.318726 0.216248 -0.482888
C84   C     C_3   0.522003 0.909574 0.692335 0.013496
C85   C     C_3   0.514074 0.973295 0.753527 -0.244178
C86   C     C_3   0.470444 0.951780 0.828801 -0.496687
C87   C     C_3   0.350151 0.090594 0.434486 0.012500
C88   C     C_3   0.298276 0.027574 0.431186 -0.250782
C89   C     C_R   0.072172 0.497952 0.498217 0.022023
C90   C     C_3   0.229348 0.049391 0.469360 -0.476681
C91   C     C_3   0.478489 0.909893 0.308095 0.013639
C92   C     C_3   0.486291 0.973528 0.246555 -0.244085
C93   C     C_3   0.530341 0.952114 0.171670 -0.496411
C94   C     C_3   0.650071 0.090308 0.565777 0.012527
C95   C     C_3   0.701878 0.027174 0.568998 -0.250737
C96   C     C_3   0.770840 0.049003 0.530886 -0.476646
Cu1   Cu    Cu3+1 0.500000 0.573360 0.500000 1.080282
Cu2   Cu    Cu3+1 0.500000 0.426640 0.500000 1.069624
H1    H     H_    0.394408 0.826226 0.457904 0.159983
H2    H     H_    0.299433 0.666439 0.955013 0.145035
H3    H     H_    0.236802 0.065373 0.536085 0.158113
H4    H     H_    0.193100 0.002583 0.466492 0.162528
H5    H     H_    0.206165 0.095641 0.433917 0.165707
H6    H     H_    0.457808 0.862380 0.272915 0.136814
H7    H     H_    0.530065 0.893014 0.333546 0.120463
H8    H     H_    0.434376 0.990902 0.223569 0.193238
H9    H     H_    0.511233 0.020299 0.279009 0.174805
H10   H     H_    0.582780 0.935280 0.193206 0.150927
H11   H     H_    0.535426 0.999382 0.128647 0.147999
H12   H     H_    0.505733 0.906558 0.136608 0.146427
H13   H     H_    0.294392 0.609064 0.046653 0.138626
H14   H     H_    0.673778 0.138098 0.597536 0.141513
H15   H     H_    0.639972 0.107182 0.499402 0.122936
H16   H     H_    0.710549 0.010259 0.635320 0.194243
H17   H     H_    0.680798 0.979980 0.533490 0.176143
H18   H     H_    0.763420 0.065260 0.464187 0.158066
H19   H     H_    0.807034 0.002113 0.533685 0.162706
H20   H     H_    0.794068 0.095070 0.566418 0.165734
H21   H     H_    0.399928 0.399277 0.868868 0.144607
H22   H     H_    0.435830 0.316235 0.831441 0.176996
H23   H     H_    0.426831 0.260831 0.976182 0.187115
H24   H     H_    0.386409 0.343435 0.012184 0.185479
H25   H     H_    0.290860 0.327247 0.906757 0.168219
H26   H     H_    0.298463 0.250421 0.977015 0.146061
H27   H     H_    0.330657 0.243558 0.871423 0.161212
H28   H     H_    0.552916 0.687484 0.825836 0.122159
H29   H     H_    0.511009 0.173032 0.634195 0.163106
H30   H     H_    0.593683 0.606693 0.861423 0.135115
H31   H     H_    0.629777 0.744567 0.913014 0.101942
H32   H     H_    0.565171 0.728011 0.990089 0.213002
H33   H     H_    0.629498 0.612299 0.032662 0.183441
H34   H     H_    0.681608 0.693033 0.042928 0.144286
H35   H     H_    0.693859 0.633048 0.954867 0.136023
H36   H     H_    0.606773 0.408801 0.131309 0.144352
H37   H     H_    0.577392 0.323434 0.170465 0.179933
H38   H     H_    0.590384 0.267376 0.026792 0.186765
H39   H     H_    0.624109 0.352756 0.988987 0.186501
H40   H     H_    0.605703 0.825790 0.542782 0.160282
H41   H     H_    0.720897 0.346040 0.094169 0.168392
H42   H     H_    0.719134 0.267993 0.025490 0.145266
H43   H     H_    0.687878 0.259658 0.131394 0.164731
H44   H     H_    0.918671 0.438551 0.665765 0.158753
H45   H     H_    0.828960 0.418303 0.687771 0.145806
H46   H     H_    0.924183 0.519175 0.791456 0.174927
H47   H     H_    0.834917 0.499627 0.812995 0.195343
H48   H     H_    0.863100 0.367549 0.830500 0.156177
H49   H     H_    0.913997 0.423480 0.900792 0.145069
H50   H     H_    0.952927 0.386332 0.807802 0.159719
H51   H     H_    0.489333 0.173166 0.366092 0.163386
H52   H     H_    0.101025 0.566833 0.654465 0.156853
H53   H     H_    0.181928 0.557798 0.712030 0.159367
H54   H     H_    0.046518 0.476502 0.750418 0.177485
H55   H     H_    0.126383 0.469783 0.809366 0.185487
H56   H     H_    0.119737 0.602999 0.843153 0.154829
H57   H     H_    0.044232 0.554355 0.877979 0.141245
H58   H     H_    0.039257 0.609387 0.784185 0.171177
H59   H     H_    0.081952 0.437244 0.334845 0.158714
H60   H     H_    0.171763 0.417583 0.312676 0.146381
H61   H     H_    0.075646 0.517534 0.208573 0.174979
H62   H     H_    0.429599 0.684663 0.169743 0.122352
H63   H     H_    0.164968 0.498431 0.186862 0.194419
H64   H     H_    0.137502 0.366138 0.170452 0.156283
H65   H     H_    0.086125 0.421576 0.099914 0.145246
H66   H     H_    0.047626 0.384496 0.193319 0.159562
H67   H     H_    0.899022 0.565460 0.344607 0.156806
H68   H     H_    0.818077 0.556113 0.287243 0.159267
H69   H     H_    0.953404 0.474315 0.249801 0.177690
H70   H     H_    0.873496 0.467318 0.191012 0.184760
H71   H     H_    0.880248 0.600271 0.155484 0.155259
H72   H     H_    0.955691 0.551239 0.121234 0.141125
H73   H     H_    0.397448 0.598253 0.139693 0.140383
H74   H     H_    0.960760 0.606940 0.214304 0.170836
H75   H     H_    0.384660 0.660217 0.308456 0.174443
H76   H     H_    0.407516 0.752348 0.326522 0.094352
H77   H     H_    0.265423 0.684771 0.367610 0.231698
H78   H     H_    0.289411 0.778842 0.380404 0.165213
H79   H     H_    0.310233 0.788013 0.224944 0.137432
H80   H     H_    0.222777 0.761232 0.248393 0.170628
H81   H     H_    0.283701 0.693807 0.213357 0.164637
H82   H     H_    0.631407 0.335711 0.622435 0.169887
H83   H     H_    0.616292 0.244617 0.662447 0.113792
H84   H     H_    0.346693 0.728880 0.080615 0.104106
H85   H     H_    0.581550 0.296460 0.800198 0.197107
H86   H     H_    0.599691 0.386672 0.761951 0.208697
H87   H     H_    0.704316 0.260425 0.779672 0.145443
H88   H     H_    0.698468 0.339890 0.845701 0.154119
H89   H     H_    0.723406 0.349631 0.737482 0.168325
H90   H     H_    0.612949 0.659521 0.693853 0.173414
H91   H     H_    0.588408 0.751046 0.675109 0.092192
H92   H     H_    0.732711 0.686220 0.639469 0.230742
H93   H     H_    0.707418 0.779511 0.622984 0.166171
H94   H     H_    0.683236 0.792323 0.776576 0.138852
H95   H     H_    0.412033 0.716654 0.003548 0.215810
H96   H     H_    0.771277 0.764746 0.758012 0.168929
H97   H     H_    0.709183 0.698411 0.793019 0.162166
H98   H     H_    0.368758 0.334964 0.376062 0.168666
H99   H     H_    0.384925 0.244300 0.335614 0.114102
H100  H     H_    0.420936 0.297854 0.198760 0.197582
H101  H     H_    0.401200 0.387388 0.237549 0.206729
H102  H     H_    0.298277 0.260056 0.217029 0.145621
H103  H     H_    0.304043 0.340073 0.151619 0.153223
H104  H     H_    0.277690 0.348735 0.259424 0.168767
H105  H     H_    0.542870 0.862219 0.727812 0.135397
H106  H     H_    0.359764 0.592665 0.968787 0.179946
H107  H     H_    0.470469 0.892499 0.667036 0.120421
H108  H     H_    0.565973 0.991000 0.776118 0.193747
H109  H     H_    0.488735 0.019861 0.720934 0.174161
H110  H     H_    0.418034 0.934576 0.807665 0.151073
H111  H     H_    0.465227 0.999111 0.871549 0.147916
H112  H     H_    0.495468 0.906451 0.864019 0.145269
H113  H     H_    0.326526 0.138539 0.402742 0.141436
H114  H     H_    0.360232 0.107240 0.500882 0.122857
H115  H     H_    0.289570 0.010926 0.364840 0.194069
H116  H     H_    0.319321 0.980206 0.466606 0.176071
I1    I     I_    0.691983 0.521451 0.692839 -0.489214
I2    I     I_    0.311278 0.458216 0.687346 -0.381125
I3    I     I_    0.308062 0.520713 0.307017 -0.496198
I4    I     I_    0.688749 0.456855 0.313240 -0.388147
I5    I     I_    0.907347 0.665096 0.504261 -0.344655
I6    I     I_    0.092750 0.330743 0.498490 -0.341300
I7    I     I_    0.092405 0.665158 0.493513 -0.348083
I8    I     I_    0.907564 0.330661 0.503508 -0.341940
N1    N     N_R   0.500000 0.683620 0.500000 -0.205361
N2    N     N_R   0.500000 0.316380 0.500000 -0.206689
O1    O     O_R   0.400190 0.561980 0.499990 -0.427627
O2    O     O_3   0.499614 0.369409 0.914195 -0.574135
O3    O     O_3   0.496021 0.633931 0.912989 -0.552827
O4    O     O_3   0.509581 0.370203 0.087010 -0.572203
O5    O     O_3   0.852055 0.525848 0.650533 -0.530161
O6    O     O_3   0.149686 0.465815 0.645706 -0.526062
O7    O     O_3   0.147971 0.525063 0.349192 -0.530299
O8    O     O_3   0.850320 0.464582 0.354756 -0.526034
O9    O     O_3   0.388887 0.684779 0.433749 -0.522154
O10   O     O_3   0.528849 0.311654 0.647383 -0.540235
O11   O     O_3   0.610286 0.684327 0.568363 -0.520793
O12   O     O_R   0.599810 0.438020 0.500010 -0.496406
O13   O     O_3   0.471738 0.311820 0.352440 -0.537968
O14   O     O_3   0.570004 0.926706 0.628839 -0.569757
O15   O     O_3   0.410980 0.072603 0.390464 -0.570569
O16   O     O_3   0.430373 0.927074 0.371400 -0.569737
O17   O     O_3   0.589236 0.072322 0.609827 -0.570703
O18   O     O_R   0.599810 0.561980 0.500010 -0.427991
O19   O     O_R   0.400190 0.438020 0.499990 -0.496054
O20   O     O_R   0.499980 0.561940 0.380310 -0.494468
O21   O     O_R   0.500020 0.438060 0.619690 -0.433910
O22   O     O_R   0.500020 0.561940 0.619690 -0.493982
O23   O     O_R   0.499980 0.438060 0.380310 -0.432898
O24   O     O_3   0.491313 0.634199 0.085292 -0.553919

loop_
_geom_bond_atom_site_label_1
_geom_bond_atom_site_label_2
_ccdc_geom_bond_type
C15   C18   A    
Cu1   O1    S    
C87   C88   S    
C8    C13   A    
C82   H101  S    
C27   C29   S    
C87   H114  S    
C91   H7    S    
C95   C96   S    
C86   H111  S    
C77   O11   S    
C91   H6    S    
C4    C8    A    
C75   H85   S    
Cu1   Cu2   S    
C33   I1    S    
C48   H22   S    
C74   H83   S    
C85   C86   S    
C25   C28   A    
C7    C11   A    
C12   C23   S    
C11   C19   S    
C26   C27   A    
C43   C89   S    
C7    H1    S    
C13   C18   S    
C52   H31   S    
C96   H20   S    
C70   H71   S    
C24   C26   A    
C63   H58   S    
C82   H100  S    
C29   C32   T    
C3    C7    A    
C10   H51   S    
C81   H99   S    
C30   C31   T    
C4    O10   S    
C49   H24   S    
C95   H16   S    
C15   C16   A    
C54   H36   S    
C15   O15   S    
C67   C89   A    
C56   C78   A    
C1    C34   S    
C66   H64   S    
C17   C18   A    
C34   C35   A    
C41   C42   A    
C72   H77   S    
C94   H14   S    
C67   I7    S    
C70   H74   S    
C90   H4    S    
C1    O19   A    
Cu1   O18   S    
C54   C55   S    
C58   H45   S    
C20   O23   A    
C95   H17   S    
C68   C69   S    
C23   C33   A    
C79   H92   S    
Cu2   N2    S    
C91   O16   S    
C45   C67   A    
C53   H33   S    
C60   H49   S    
C48   H21   S    
C35   I2    S    
C39   O6    S    
C47   H106  S    
C65   H61   S    
C93   H12   S    
C73   H79   S    
C68   H67   S    
C61   C62   S    
C77   C79   S    
C17   O17   S    
C59   C60   S    
C79   H93   S    
C37   C41   A    
C80   H94   S    
C14   C17   A    
C94   C95   S    
C60   H48   S    
C37   I4    S    
C83   H104  S    
C75   H86   S    
C84   H107  S    
C56   I6    S    
C6    O13   S    
C94   H15   S    
C44   C46   S    
C85   H108  S    
C81   C82   S    
C38   O5    S    
C6    N2    A    
C40   C43   A    
C2    C45   A    
C21   C32   S    
C87   O15   S    
C74   C75   S    
C66   H66   S    
C51   C52   S    
C86   H112  S    
C96   H19   S    
C36   C40   A    
C53   H35   S    
C84   C85   S    
Cu2   O21   S    
C88   H115  S    
C86   H110  S    
C91   C92   S    
C14   O14   S    
C39   C43   A    
C22   O3    S    
C58   C59   S    
C4    N2    A    
C22   C25   A    
C47   H2    S    
Cu1   N1    S    
C57   H42   S    
C64   H59   S    
C47   H13   S    
C35   C39   A    
C75   C76   S    
C69   H69   S    
C90   H3    S    
C5    C9    A    
C62   C63   S    
C2    C78   A    
C48   O2    S    
C9    H40   S    
C58   H44   S    
C92   H9    S    
C68   O8    S    
C41   O8    S    
C2    C42   S    
C49   H23   S    
C61   O6    S    
C71   C72   S    
C50   H26   S    
C50   H27   S    
C40   O7    S    
C53   H34   S    
C61   H53   S    
C54   O4    S    
Cu2   O19   S    
C76   H89   S    
C88   H116  S    
C78   I8    S    
C73   H80   S    
C59   H47   S    
C84   H105  S    
C92   H8    S    
C48   C49   S    
C5    N1    A    
C62   H54   S    
C88   C90   S    
C59   H46   S    
C65   C66   S    
C12   O18   A    
C22   C27   A    
C9    C11   A    
C51   O3    S    
C44   H62   S    
C74   O10   S    
C51   H30   S    
C65   H63   S    
Cu1   O22   S    
C76   H88   S    
C52   C53   S    
C85   H109  S    
C46   H95   S    
C61   H52   S    
C1    O1    A    
C12   O12   A    
C80   H97   S    
C46   C47   S    
C56   C89   A    
C3    N1    A    
C51   H28   S    
C87   H113  S    
C14   C19   A    
C94   O17   S    
C84   O14   S    
C50   H25   S    
C24   C28   A    
C63   H56   S    
C72   C73   S    
C10   C13   A    
C36   I3    S    
C6    C10   A    
C64   O7    S    
C21   O21   A    
C62   H55   S    
C38   C42   A    
C21   O22   A    
C80   H96   S    
C33   C38   A    
C55   H39   S    
C71   H76   S    
C57   H43   S    
C8    H29   S    
C77   H91   S    
C64   C65   S    
C46   H84   S    
C55   C57   S    
C70   H72   S    
C69   H70   S    
C52   H32   S    
C83   H103  S    
C93   H10   S    
C58   O5    S    
C23   C37   A    
C3    O9    S    
C81   H98   S    
C26   O2    S    
C16   C19   A    
C45   I5    S    
C54   H37   S    
C28   C30   S    
C92   C93   S    
C81   O13   S    
C66   H65   S    
C34   C36   A    
C71   O9    S    
C20   O20   A    
C69   C70   S    
C72   H78   S    
C90   H5    S    
C44   H73   S    
C57   H41   S    
C44   O24   S    
C63   H57   S    
C79   C80   S    
C73   H81   S    
C25   O24   S    
C71   H75   S    
Cu2   O23   S    
C74   H82   S    
C16   O16   S    
C49   C50   S    
C5    O11   S    
C64   H60   S    
C77   H90   S    
C96   H18   S    
C60   H50   S    
C82   C83   S    
C83   H102  S    
C24   O4    S    
C20   C31   S    
C76   H87   S    
C55   H38   S    
C93   H11   S    
Cu1   O20   S    
Cu2   O12   S    
C68   H68   S    
