data_mof_unit_5616.cif
_audit_creation_date              2012-10-26T17:13:08-0400
_audit_creation_method            fapswitch 2.2
_symmetry_space_group_name_H-M    P1
_symmetry_Int_Tables_number       1
_space_group_crystal_system       triclinic
_cell_length_a                    16.860752
_cell_length_b                    16.763322
_cell_length_c                    16.803676
_cell_angle_alpha                 67.873615
_cell_angle_beta                  68.029125
_cell_angle_gamma                 68.014114
_cell_volume                      3926.57790914

loop_
_atom_site_label
_atom_site_type_symbol
_atom_type_description
_atom_site_fract_x
_atom_site_fract_y
_atom_site_fract_z
_atom_type_partial_charge
C1    C     C_R   0.321747 0.956420 0.452724 -0.015458
C2    C     C_R   0.308159 0.430929 0.009655 -0.016688
C3    C     C_R   0.539085 0.410641 0.001171 0.023518
C4    C     C_R   0.012053 0.456469 0.585924 0.023656
C5    C     C_R   0.990092 0.542723 0.413617 0.024481
C6    C     C_R   0.268310 0.919687 0.269873 0.086432
C7    C     C_R   0.215741 0.986007 0.214221 0.004569
C8    C     C_R   0.168472 0.961946 0.178188 -0.105636
C9    C     C_R   0.172191 0.872097 0.198118 -0.128684
C10   C     C_R   0.223670 0.806043 0.253594 -0.139020
C11   C     C_R   0.271822 0.829594 0.289171 -0.097061
C12   C     C_R   0.727089 0.090317 0.726686 0.080800
C13   C     C_R   0.046308 0.677416 0.546818 -0.015932
C14   C     C_R   0.712417 0.182697 0.709244 -0.103048
C15   C     C_R   0.752062 0.214501 0.746560 -0.132212
C16   C     C_R   0.806653 0.154385 0.801427 -0.129972
C17   C     C_R   0.821554 0.062300 0.819448 -0.112699
C18   C     C_R   0.782079 0.030136 0.782388 0.003344
C19   C     C_R   0.901721 0.276584 0.276450 0.076171
C20   C     C_R   0.956630 0.220277 0.220696 -0.000202
C21   C     C_R   0.919075 0.185387 0.184256 -0.119637
C22   C     C_R   0.826763 0.206294 0.202898 -0.130516
C23   C     C_R   0.771839 0.261940 0.258169 -0.127582
C24   C     C_R   0.954581 0.322285 0.453100 -0.016523
C25   C     C_R   0.809061 0.296987 0.294827 -0.104966
C26   C     C_R   0.094572 0.725618 0.725079 0.077920
C27   C     C_R   0.186736 0.709669 0.706155 -0.098115
C28   C     C_R   0.220772 0.747918 0.742785 -0.116008
C29   C     C_R   0.163125 0.802310 0.798577 -0.117268
C30   C     C_R   0.071247 0.818955 0.817610 -0.113904
C31   C     C_R   0.036874 0.781008 0.781072 0.001037
C32   C     C_R   0.278646 0.282151 0.902365 0.076830
C33   C     C_R   0.303465 0.309859 0.808671 -0.103312
C34   C     C_R   0.273225 0.280498 0.760453 -0.125374
C35   C     C_R   0.455984 0.978992 0.456253 -0.004367
C36   C     C_R   0.218223 0.223109 0.805333 -0.131676
C37   C     C_R   0.193252 0.194943 0.898571 -0.123177
C38   C     C_R   0.223291 0.224106 0.947103 -0.002911
C39   C     C_R   0.728307 0.727959 0.089349 0.082063
C40   C     C_R   0.713662 0.712251 0.181230 -0.102165
C41   C     C_R   0.753061 0.751210 0.211565 -0.131410
C42   C     C_R   0.807312 0.806105 0.150480 -0.130085
C43   C     C_R   0.822279 0.822326 0.058867 -0.113809
C44   C     C_R   0.783066 0.783587 0.028161 0.002870
C45   C     C_R   0.544155 0.020858 0.543792 -0.004407
C46   C     C_R   0.979582 0.455972 0.455983 -0.004287
C47   C     C_R   0.022423 0.543278 0.543604 -0.004404
C48   C     C_R   0.447460 0.445012 0.010122 -0.004156
C49   C     C_R   0.540289 0.538229 0.037632 -0.004058
C50   C     C_R   0.030258 0.828035 0.563882 0.552809
C51   C     C_R   0.678297 0.043690 0.547254 -0.015750
C52   C     C_R   0.969669 0.171978 0.436143 0.552988
C53   C     C_R   0.828314 0.564236 0.029395 0.554927
C54   C     C_R   0.169652 0.431654 0.981783 0.555386
C55   C     C_R   0.564079 0.029752 0.828084 0.551776
C56   C     C_R   0.435819 0.970625 0.171825 0.548264
C57   C     C_R   0.435753 0.171763 0.971273 0.552435
C58   C     C_R   0.563669 0.827912 0.031006 0.549266
C59   C     C_R   0.969896 0.436043 0.171989 0.547532
C60   C     C_R   0.030236 0.563901 0.828041 0.562082
C61   C     C_R   0.171754 0.971031 0.435756 0.551067
C62   C     C_R   0.955425 0.453111 0.322002 -0.017699
C63   C     C_R   0.828170 0.029403 0.564154 0.551989
C64   C     C_R   0.409873 0.963234 0.410336 0.019154
C65   C     C_R   0.590200 0.036769 0.589656 0.018853
C66   C     C_R   0.962986 0.410316 0.410205 0.018536
C67   C     C_R   0.038491 0.589167 0.589548 0.018805
C68   C     C_R   0.401362 0.398966 0.994922 0.019092
C69   C     C_R   0.588323 0.586722 0.046637 0.019554
C70   C     C_R   0.271055 0.953554 0.402217 -0.034792
C71   C     C_R   0.728762 0.047344 0.597549 -0.033980
C72   C     C_R   0.951154 0.402933 0.271713 -0.033148
C73   C     C_R   0.045855 0.546489 0.677819 -0.016412
C74   C     C_R   0.049214 0.597006 0.728341 -0.033334
C75   C     C_R   0.400615 0.270383 0.959336 -0.035177
C76   C     C_R   0.597227 0.727622 0.051790 -0.035943
C77   C     C_R   0.597721 0.048144 0.728314 -0.034395
C78   C     C_R   0.401988 0.952777 0.271394 -0.034793
C79   C     C_R   0.729175 0.597561 0.048266 -0.032875
C80   C     C_R   0.264509 0.391529 0.981588 -0.028483
C81   C     C_R   0.049441 0.728155 0.597100 -0.034914
C82   C     C_R   0.950626 0.271844 0.402987 -0.034531
C83   C     C_R   0.455177 0.051829 0.710445 -0.113644
C84   C     C_R   0.448541 0.319659 0.967786 -0.015601
C85   C     C_R   0.544836 0.948295 0.289484 -0.115074
C86   C     C_R   0.051672 0.711172 0.454285 -0.116973
C87   C     C_R   0.949241 0.288546 0.545671 -0.114785
C88   C     C_R   0.713735 0.454750 0.047160 -0.114669
C89   C     C_R   0.262942 0.502631 0.050021 -0.112860
C90   C     C_R   0.288149 0.952111 0.545015 -0.116102
C91   C     C_R   0.711894 0.047991 0.454956 -0.114557
C92   C     C_R   0.542170 0.291588 0.951292 -0.114316
C93   C     C_R   0.451333 0.703519 0.074626 -0.116997
C94   C     C_R   0.950941 0.545699 0.288127 -0.121070
C95   C     C_R   0.545457 0.674341 0.056319 -0.015796
C96   C     C_R   0.050688 0.453798 0.711634 -0.114362
C97   C     C_R   0.314011 0.944572 0.314277 -0.070053
C98   C     C_R   0.685201 0.057857 0.684968 -0.066962
C99   C     C_R   0.939529 0.315788 0.315798 -0.065083
C100  C     C_R   0.059967 0.684515 0.684502 -0.067450
C101  C     C_R   0.313105 0.313238 0.952230 -0.065270
C102  C     C_R   0.685744 0.685295 0.058593 -0.066084
C103  C     C_R   0.670787 0.023446 0.412992 0.012659
C104  C     C_R   0.329253 0.976673 0.586953 0.012039
C105  C     C_R   0.026244 0.411589 0.670613 0.012829
C106  C     C_R   0.547562 0.045303 0.677409 -0.016168
C107  C     C_R   0.975740 0.587695 0.329002 0.010446
C108  C     C_R   0.403351 0.653699 0.069478 0.013018
C109  C     C_R   0.585900 0.331635 0.974896 0.014457
C110  C     C_R   0.587360 0.972418 0.330377 0.012774
C111  C     C_R   0.412658 0.027720 0.669551 0.013314
C112  C     C_R   0.308874 0.552963 0.056950 0.012518
C113  C     C_R   0.672172 0.413610 0.022686 0.011047
C114  C     C_R   0.974330 0.329086 0.587754 0.012878
C115  C     C_R   0.027204 0.670340 0.412009 0.012752
C116  C     C_R   0.713732 0.011083 0.327355 -0.130939
C117  C     C_R   0.452430 0.954835 0.322521 -0.015635
C118  C     C_R   0.286133 0.989455 0.672409 -0.131918
C119  C     C_R   0.014317 0.325481 0.713846 -0.132771
C120  C     C_R   0.987435 0.673871 0.285852 -0.136790
C121  C     C_R   0.310441 0.683230 0.087121 -0.136615
C122  C     C_R   0.675479 0.292685 0.974654 -0.131531
C123  C     C_R   0.673432 0.982953 0.287532 -0.130952
C124  C     C_R   0.326433 0.017579 0.712229 -0.131461
C125  C     C_R   0.263315 0.632102 0.083399 -0.129253
C126  C     C_R   0.717309 0.331502 0.002104 -0.131499
C127  C     C_R   0.985859 0.285643 0.673799 -0.131540
C128  C     C_R   0.678519 0.546395 0.046644 -0.016180
C129  C     C_R   0.015533 0.713838 0.326042 -0.133705
C130  C     C_R   0.542844 0.987800 0.414447 0.023594
C131  C     C_R   0.457270 0.012111 0.585575 0.023535
C132  C     C_R   0.989412 0.413559 0.542852 0.023500
C133  C     C_R   0.012616 0.585665 0.456730 0.024426
C134  C     C_R   0.401730 0.524088 0.036942 0.023355
C135  C     C_R   0.584093 0.454732 0.019453 0.022865
C136  C     C_R   0.586199 0.009929 0.457468 0.023601
C137  C     C_R   0.413926 0.989972 0.542558 0.023671
C138  C     C_R   0.448696 0.572725 0.046711 0.024589
Cu1   Cu    Cu3+1 0.995180 0.995180 0.424630 0.908396
Cu2   Cu    Cu3+1 0.004820 0.004820 0.575370 0.903490
Cu3   Cu    Cu3+1 0.995180 0.424630 0.995180 0.897078
Cu4   Cu    Cu3+1 0.004820 0.575370 0.004820 0.901626
Cu5   Cu    Cu3+1 0.424630 0.995180 0.995180 0.905268
Cu6   Cu    Cu3+1 0.575370 0.004820 0.004820 0.907722
H1    H     H_    0.291325 0.028688 0.777526 0.102053
H2    H     H_    0.274283 0.745982 0.103342 0.110303
H3    H     H_    0.977316 0.709223 0.220075 0.099044
H4    H     H_    0.024296 0.290178 0.779695 0.099441
H5    H     H_    0.413274 0.078312 0.766276 0.156175
H6    H     H_    0.586750 0.921974 0.233566 0.154897
H7    H     H_    0.077346 0.767619 0.412048 0.154229
H8    H     H_    0.922933 0.232470 0.588107 0.155400
H9    H     H_    0.771191 0.411230 0.069854 0.159602
H10   H     H_    0.192123 0.520091 0.078873 0.154645
H11   H     H_    0.231810 0.926931 0.587650 0.155623
H12   H     H_    0.708344 0.972280 0.222060 0.103678
H13   H     H_    0.768110 0.073397 0.412300 0.156838
H14   H     H_    0.583152 0.239891 0.918205 0.150183
H15   H     H_    0.413286 0.762117 0.098207 0.149077
H16   H     H_    0.925255 0.588407 0.231849 0.156940
H17   H     H_    0.075992 0.411316 0.768199 0.158171
H18   H     H_    0.210858 0.056057 0.200056 0.100205
H19   H     H_    0.128296 0.013030 0.135566 0.069468
H20   H     H_    0.135165 0.853674 0.170459 0.088169
H21   H     H_    0.225879 0.736520 0.269425 0.112262
H22   H     H_    0.310606 0.777963 0.332882 0.094696
H23   H     H_    0.025168 0.779942 0.291251 0.101069
H24   H     H_    0.670529 0.229934 0.666545 0.096035
H25   H     H_    0.740673 0.285791 0.732758 0.116618
H26   H     H_    0.837468 0.179177 0.829967 0.095663
H27   H     H_    0.863859 0.015817 0.861942 0.071305
H28   H     H_    0.794368 0.958593 0.796454 0.102456
H29   H     H_    0.028294 0.203854 0.205558 0.106554
H30   H     H_    0.961565 0.142277 0.141438 0.073447
H31   H     H_    0.797758 0.179438 0.174474 0.105245
H32   H     H_    0.700363 0.278037 0.272493 0.118317
H33   H     H_    0.765752 0.340203 0.337397 0.097658
H34   H     H_    0.975584 0.219768 0.708880 0.101889
H35   H     H_    0.232108 0.667703 0.662959 0.096074
H36   H     H_    0.291897 0.735465 0.727841 0.115888
H37   H     H_    0.189678 0.831640 0.826977 0.103610
H38   H     H_    0.026631 0.861286 0.860627 0.071684
H39   H     H_    0.965519 0.794532 0.796081 0.104310
H40   H     H_    0.346274 0.354132 0.773098 0.098032
H41   H     H_    0.292518 0.302157 0.688239 0.116517
H42   H     H_    0.195033 0.200422 0.767817 0.110492
H43   H     H_    0.150732 0.150402 0.933260 0.075300
H44   H     H_    0.203745 0.201650 0.019373 0.103370
H45   H     H_    0.785767 0.299097 0.004150 0.101259
H46   H     H_    0.671830 0.669762 0.229234 0.096586
H47   H     H_    0.741588 0.738810 0.282478 0.117744
H48   H     H_    0.837756 0.836088 0.174170 0.097248
H49   H     H_    0.864305 0.864855 0.011618 0.071550
H50   H     H_    0.795163 0.796511 0.956993 0.102028
H51   H     H_    0.191490 0.655927 0.098464 0.104290
H52   H     H_    0.220183 0.980433 0.707187 0.100908
H53   H     H_    0.779510 0.020540 0.292379 0.101976
H54   H     H_    0.711953 0.230530 0.956749 0.104643
O1    O     O_R   0.124540 0.978640 0.385460 -0.502308
O2    O     O_R   0.124540 0.385460 0.978640 -0.509535
O3    O     O_R   0.021360 0.875460 0.614540 -0.507429
O4    O     O_R   0.978640 0.124540 0.385460 -0.507432
O5    O     O_R   0.013780 0.867370 0.487190 -0.514435
O6    O     O_R   0.986220 0.132630 0.512810 -0.515534
O7    O     O_R   0.867370 0.487190 0.013780 -0.518154
O8    O     O_R   0.132630 0.512810 0.986220 -0.516944
O9    O     O_R   0.487190 0.013780 0.867370 -0.514738
O10   O     O_R   0.512810 0.986220 0.132630 -0.515282
O11   O     O_R   0.512810 0.132630 0.986220 -0.513262
O12   O     O_R   0.875460 0.021360 0.614540 -0.506128
O13   O     O_R   0.487190 0.867370 0.013780 -0.510746
O14   O     O_R   0.986220 0.512810 0.132630 -0.528903
O15   O     O_R   0.013780 0.487190 0.867370 -0.514451
O16   O     O_R   0.132630 0.986220 0.512810 -0.517360
O17   O     O_R   0.867370 0.013780 0.487190 -0.516571
O18   O     O_R   0.978640 0.385460 0.124540 -0.509022
O19   O     O_R   0.021360 0.614540 0.875460 -0.500082
O20   O     O_R   0.385460 0.124540 0.978640 -0.508278
O21   O     O_R   0.614540 0.875460 0.021360 -0.506506
O22   O     O_R   0.614540 0.021360 0.875460 -0.506340
O23   O     O_R   0.385460 0.978640 0.124540 -0.509350
O24   O     O_R   0.875460 0.614540 0.021360 -0.506111

loop_
_geom_bond_atom_site_label_1
_geom_bond_atom_site_label_2
_ccdc_geom_bond_type
C61   C70   S    
C56   C78   S    
C79   C128  A    
C41   C42   A    
C1    C90   A    
C114  C127  A    
C116  C123  A    
C9    H20   S    
C4    C105  A    
C82   C99   A    
C107  C120  A    
C19   C20   A    
C32   C101  S    
Cu4   O14   S    
C108  C121  A    
C96   C105  A    
C61   O1    A    
C22   H31   S    
Cu2   O12   S    
C7    C8    A    
C4    C132  A    
C37   H43   S    
C58   O13   A    
C96   H17   S    
C5    C133  A    
C89   C112  A    
C26   C27   A    
C29   C30   A    
C29   H37   S    
C48   C134  A    
C77   C106  A    
C53   C79   S    
C27   H35   S    
Cu6   O22   S    
C2    C68   A    
C2    C89   A    
Cu2   O6    S    
C93   C108  A    
C46   C132  A    
C56   O23   A    
C55   C77   S    
C5    C107  A    
C25   H33   S    
C109  C122  A    
C57   O20   A    
C125  H51   S    
Cu5   Cu6   S    
C103  C136  A    
C13   C81   A    
C3    C48   A    
C88   C128  A    
C54   O2    A    
C104  C137  A    
C15   H25   S    
C92   H14   S    
Cu1   O1    S    
C51   C65   A    
C60   C74   S    
C88   C113  A    
C93   H15   S    
C24   C82   A    
C85   H6    S    
C87   C114  A    
C94   H16   S    
C51   C91   A    
Cu3   Cu4   S    
Cu5   O9    S    
C69   C128  A    
Cu1   O17   S    
C16   C17   A    
C54   O8    A    
C13   C86   A    
C11   H22   S    
C53   O7    A    
C79   C102  A    
C35   C64   A    
C67   C73   A    
Cu3   O2    S    
C32   C38   A    
C118  H52   S    
C9    C10   A    
C54   C80   S    
C70   C97   A    
C24   C66   A    
C59   C72   S    
C23   C25   A    
C134  C138  A    
C49   C135  A    
Cu2   O3    S    
C26   C31   A    
C93   C95   A    
C49   C69   A    
C21   C22   A    
C47   C133  A    
C30   H38   S    
C51   C71   A    
C78   C97   A    
C42   C43   A    
C19   C25   A    
Cu3   O18   S    
C47   C67   A    
Cu6   O11   S    
C71   C98   A    
C33   C34   A    
C6    C7    A    
C104  C118  A    
C123  H12   S    
C73   C74   A    
C76   C102  A    
C7    H18   S    
C57   O11   A    
C94   C107  A    
C3    C135  A    
C41   H47   S    
C58   C76   S    
C120  C129  A    
C68   C84   A    
C6    C97   S    
C83   H5    S    
C62   C66   A    
Cu6   O21   S    
C85   C110  A    
Cu3   O15   S    
C6    C11   A    
C129  H23   S    
C59   O18   A    
C8    C9    A    
C74   C100  A    
C23   H32   S    
C115  C133  A    
C119  H4    S    
C50   O5    A    
Cu1   O4    S    
C48   C68   A    
C64   C117  A    
C126  H45   S    
C86   C115  A    
C52   O6    A    
C75   C84   A    
C122  C126  A    
C34   H41   S    
C52   C82   S    
C60   O15   A    
Cu4   O19   S    
C121  C125  A    
C37   C38   A    
C131  C137  A    
C42   H48   S    
C110  C123  A    
C58   O21   A    
C20   H29   S    
C56   O10   A    
C78   C117  A    
C33   H40   S    
C17   C18   A    
C62   C72   A    
C77   C98   A    
C118  C124  A    
C122  H54   S    
C85   C117  A    
C28   H36   S    
C35   C130  A    
C90   C104  A    
C112  C125  A    
C39   C44   A    
C5    C46   A    
C111  C131  A    
C40   C41   A    
C12   C14   A    
C45   C131  A    
C87   H8    S    
C62   C94   A    
C43   C44   A    
C45   C65   A    
C83   C111  A    
C61   O16   A    
C63   O12   A    
C14   H24   S    
C1    C64   A    
C65   C106  A    
C39   C40   A    
C59   O14   A    
C39   C102  S    
C115  C129  A    
C13   C67   A    
C50   O3    A    
C28   C29   A    
C45   C136  A    
C19   C99   S    
C31   H39   S    
C111  C124  A    
C22   C23   A    
C127  H34   S    
C114  C132  A    
C130  C136  A    
C91   C103  A    
C69   C95   A    
C8    H19   S    
Cu5   O23   S    
Cu5   O13   S    
Cu1   Cu2   S    
C17   H27   S    
C46   C66   A    
C55   O22   A    
C113  C126  A    
C81   C100  A    
C18   H28   S    
C55   O9    A    
C124  H1    S    
C44   H50   S    
C1    C70   A    
C83   C106  A    
C80   C101  A    
C43   H49   S    
C88   H9    S    
C57   C75   S    
C103  C116  A    
C53   O24   A    
C4    C47   A    
C76   C95   A    
Cu1   O5    S    
C86   H7    S    
C32   C33   A    
Cu5   O20   S    
C108  C138  A    
C116  H53   S    
C89   H10   S    
C30   C31   A    
C3    C109  A    
C10   H21   S    
C38   H44   S    
C36   H42   S    
C112  C134  A    
C34   C36   A    
C110  C130  A    
C52   O4    A    
Cu4   O8    S    
C92   C109  A    
C24   C87   A    
Cu3   O7    S    
C91   H13   S    
C2    C80   A    
C10   C11   A    
C121  H2    S    
C16   H26   S    
C40   H46   S    
C20   C21   A    
C120  H3    S    
C36   C37   A    
C21   H30   S    
C113  C135  A    
C12   C18   A    
C12   C98   S    
C75   C101  A    
C14   C15   A    
C105  C119  A    
Cu2   O16   S    
C84   C92   A    
C73   C96   A    
C63   O17   A    
C90   H11   S    
C49   C138  A    
Cu6   O10   S    
C60   O19   A    
C63   C71   S    
Cu4   O24   S    
C35   C137  A    
C15   C16   A    
C50   C81   S    
C26   C100  S    
C27   C28   A    
C72   C99   A    
C119  C127  A    
