data_mof_unit_13037.cif
_audit_creation_date              2013-03-05T15:47:59-0500
_audit_creation_method            fapswitch 2.2
_symmetry_space_group_name_H-M    P1
_symmetry_Int_Tables_number       1
_space_group_crystal_system       triclinic
_cell_length_a                    26.804328
_cell_length_b                    7.089096
_cell_length_c                    12.007805
_cell_angle_alpha                 89.95353
_cell_angle_beta                  103.437086
_cell_angle_gamma                 90.067515
_cell_volume                      2219.24253516

loop_
_atom_site_label
_atom_site_type_symbol
_atom_site_description
_atom_site_fract_x
_atom_site_fract_y
_atom_site_fract_z
_atom_type_partial_charge
O1    O     O_R   0.437360 0.505910 0.042120 -0.570611
O2    O     O_R   0.562640 0.005910 0.957880 -0.584659
O3    O     O_R   0.542480 0.176660 0.157100 -0.596127
O4    O     O_R   0.457520 0.676660 0.842900 -0.597798
C1    C     C_R   0.556323 0.344159 0.198104 1.057013
C2    C     C_R   0.443931 0.844585 0.801892 1.063031
O5    O     O_R   0.436520 0.176250 0.054800 -0.571459
O6    O     O_R   0.563480 0.676250 0.945200 -0.556016
O7    O     O_R   0.455920 0.005040 0.854840 -0.578269
O8    O     O_R   0.544080 0.505040 0.145160 -0.576523
C3    C     C_R   0.417407 0.344417 0.063013 0.930327
C4    C     C_R   0.582455 0.844993 0.936404 0.931774
O9    O     O_3   0.506490 0.338900 0.934520 -0.266299
O10   O     O_3   0.493510 0.838900 0.065480 -0.264854
V1    V     V_3+5 0.498800 0.064400 0.012150 1.298409
V2    V     V_3+5 0.501200 0.564400 0.987850 1.305577
C5    C     C_R   0.679502 0.874575 0.756266 -0.110946
C6    C     C_R   0.319886 0.321623 0.241846 -0.096418
H1    H     H_    0.677874 0.891845 0.666253 0.179081
H2    H     H_    0.320898 0.293076 0.330628 0.173541
C7    C     C_R   0.631577 0.854350 0.902785 -0.089371
C8    C     C_R   0.368284 0.350669 0.096675 -0.082674
C9    C     C_R   0.867228 0.864199 0.208762 -0.206383
C10   C     C_R   0.132719 0.361939 0.791095 -0.202580
C11   C     C_R   0.821267 0.870314 0.243003 -0.086238
C12   C     C_R   0.178668 0.366232 0.756733 -0.096679
C13   C     C_R   0.774758 0.874053 0.161877 -0.114977
C14   C     C_R   0.225195 0.374486 0.837661 -0.112536
C15   C     C_R   0.772849 0.864147 0.042978 0.086919
C16   C     C_R   0.227130 0.371186 0.956711 0.092814
C17   C     C_R   0.820141 0.861007 0.008506 0.052395
C18   C     C_R   0.179837 0.364994 0.991274 0.052813
C19   C     C_R   0.725655 0.860875 0.957755 0.047995
C20   C     C_R   0.274334 0.368117 0.041931 0.043085
C21   C     C_R   0.726493 0.863931 0.839129 -0.019183
C22   C     C_R   0.273356 0.351372 0.160028 -0.018751
C23   C     C_R   0.774091 0.860091 0.806544 0.305749
C24   C     C_R   0.225934 0.357517 0.193027 0.306694
C25   C     C_R   0.819754 0.858992 0.891365 -0.355846
C26   C     C_R   0.180232 0.362460 0.108460 -0.358368
C27   C     C_R   0.677355 0.853389 0.986823 -0.125536
C28   C     C_R   0.322775 0.375810 0.013442 -0.095914
C29   C     C_R   0.632751 0.867954 0.787879 -0.095859
C30   C     C_R   0.366575 0.318476 0.210031 -0.087760
C31   C     C_R   0.867268 0.861486 0.092500 -0.123647
C32   C     C_R   0.132706 0.362836 0.907360 -0.122938
H3    H     H_    0.673710 0.844428 0.073995 0.150913
H4    H     H_    0.326675 0.397836 0.927134 0.133797
H5    H     H_    0.903028 0.865203 0.273223 0.110462
H6    H     H_    0.096912 0.359850 0.726670 0.109909
H7    H     H_    0.741166 0.889609 0.195430 0.161025
H8    H     H_    0.258818 0.382213 0.803569 0.160971
H9    H     H_    0.821652 0.876282 0.333333 0.162566
H10   H     H_    0.178263 0.366372 0.666329 0.161896
H11   H     H_    0.855561 0.854115 0.864409 0.180710
H12   H     H_    0.144446 0.364924 0.135563 0.180948
C33   C     C_R   0.091231 0.858448 0.310464 -0.096985
C34   C     C_R   0.908114 0.358483 0.689892 -0.092985
C35   C     C_R   0.408449 0.851340 0.689185 -0.307046
C36   C     C_R   0.591230 0.347575 0.312026 -0.316260
C37   C     C_R   0.105374 0.806983 0.513795 -0.151455
C38   C     C_R   0.894062 0.323642 0.485100 -0.154373
C39   C     C_R   0.071905 0.824734 0.406860 -0.172682
C40   C     C_R   0.927519 0.339372 0.592302 -0.169592
C41   C     C_R   0.144057 0.876438 0.320703 -0.130338
C42   C     C_R   0.855089 0.362308 0.680555 -0.138264
C43   C     C_R   0.179080 0.858246 0.428327 0.138076
C44   C     C_R   0.820208 0.341412 0.572946 0.151754
C45   C     C_R   0.158557 0.821231 0.525088 0.170329
C46   C     C_R   0.840801 0.324220 0.474634 0.172799
C47   C     C_R   0.233564 0.870482 0.442791 0.138794
C48   C     C_R   0.765780 0.335578 0.559704 0.140119
C49   C     C_R   0.266406 0.846466 0.553999 0.132271
C50   C     C_R   0.732933 0.333039 0.447688 0.124133
C51   C     C_R   0.243893 0.793765 0.644686 -0.097294
C52   C     C_R   0.755422 0.301551 0.353993 -0.110623
C53   C     C_R   0.191198 0.789971 0.631640 -0.264645
C54   C     C_R   0.808190 0.301460 0.366956 -0.260458
C55   C     C_R   0.256411 0.897971 0.349407 -0.119654
C56   C     C_R   0.743199 0.322820 0.654366 -0.107265
C57   C     C_R   0.309122 0.887999 0.362741 -0.130829
C58   C     C_R   0.690404 0.311473 0.639981 -0.141302
C59   C     C_R   0.342011 0.863255 0.470799 -0.020032
C60   C     C_R   0.657267 0.324178 0.531149 -0.031030
C61   C     C_R   0.320983 0.861475 0.569456 -0.049932
C62   C     C_R   0.678409 0.346603 0.433423 -0.034379
C63   C     C_R   0.395746 0.847398 0.482634 0.361955
C64   C     C_R   0.603380 0.309058 0.517476 0.362921
C65   C     C_R   0.427985 0.835109 0.591884 -0.262477
C66   C     C_R   0.571556 0.308723 0.407307 -0.259645
C67   C     C_R   0.355533 0.875513 0.679283 0.266372
C68   C     C_R   0.644057 0.380273 0.325168 0.275137
H13   H     H_    0.175847 0.755494 0.705070 0.154498
H14   H     H_    0.823603 0.280696 0.291999 0.153260
H15   H     H_    0.468933 0.817598 0.601177 0.187809
H16   H     H_    0.530594 0.288189 0.396146 0.190760
H17   H     H_    0.323799 0.905012 0.286748 0.172947
H18   H     H_    0.676061 0.290171 0.716039 0.176241
H19   H     H_    0.089725 0.778115 0.587592 0.119469
H20   H     H_    0.909844 0.308618 0.410241 0.119829
H21   H     H_    0.030989 0.810075 0.398992 0.105447
H22   H     H_    0.968546 0.335863 0.599302 0.104242
H23   H     H_    0.156266 0.902198 0.242689 0.096956
H24   H     H_    0.842405 0.382786 0.758598 0.093430
H25   H     H_    0.266269 0.745943 0.726154 0.166652
H26   H     H_    0.732863 0.267641 0.269810 0.167581
H27   H     H_    0.234614 0.920742 0.263203 0.112761
H28   H     H_    0.765512 0.311051 0.741155 0.111768
O11   O     O_R   0.955980 0.206520 0.854760 -0.584332
O12   O     O_R   0.044020 0.706520 0.145240 -0.588701
O13   O     O_R   0.063490 0.536770 0.945200 -0.594257
O14   O     O_R   0.936510 0.036770 0.054800 -0.593867
C69   C     C_R   0.082919 0.368786 0.938573 0.912978
C70   C     C_R   0.917062 0.868506 0.061327 0.912885
O15   O     O_R   0.957530 0.536190 0.842880 -0.591723
O16   O     O_R   0.042470 0.036190 0.157120 -0.587615
O17   O     O_R   0.937350 0.707210 0.042130 -0.591776
O18   O     O_R   0.062650 0.207210 0.957870 -0.589849
C71   C     C_R   0.943033 0.367775 0.802962 0.919441
C72   C     C_R   0.056600 0.867683 0.197296 0.920510
O19   O     O_3   0.993540 0.373870 0.065440 -0.280890
O20   O     O_3   0.006460 0.873870 0.934560 -0.280073
V3    V     V_3+5 0.001200 0.648440 0.987860 1.178259
V4    V     V_3+5 0.998800 0.148440 0.012140 1.181549
H29   H     H_    0.597348 0.873513 0.722389 0.155016
H30   H     H_    0.401580 0.292405 0.274369 0.142892
N1    N     N_R   0.338599 0.941218 0.777604 0.215174
O21   O     O_R   0.311978 0.095681 0.770849 -0.440731
O22   O     O_R   0.350599 0.850477 0.874445 -0.430346
N2    N     N_R   0.661245 0.471963 0.234022 0.215453
O23   O     O_R   0.688734 0.624605 0.255333 -0.435081
O24   O     O_R   0.649661 0.404824 0.130292 -0.433648
N3    N     N_R   0.418347 0.839584 0.385212 0.224708
O25   O     O_R   0.461335 0.927031 0.388028 -0.394171
O26   O     O_R   0.401300 0.720091 0.303005 -0.419831
N4    N     N_R   0.580194 0.293062 0.613770 0.222643
O27   O     O_R   0.541022 0.181563 0.607969 -0.407229
O28   O     O_R   0.590725 0.417058 0.695812 -0.412176
N5    N     N_R   0.777498 0.853541 0.688377 0.225749
O29   O     O_R   0.817134 0.926061 0.658786 -0.432427
O30   O     O_R   0.747055 0.745594 0.615226 -0.425632
N6    N     N_R   0.222975 0.361870 0.311524 0.226848
O31   O     O_R   0.182676 0.295281 0.341131 -0.431615
O32   O     O_R   0.255297 0.461876 0.385879 -0.432097

loop_
_geom_bond_atom_site_label_1
_geom_bond_atom_site_label_2
_geom_bond_distance
_ccdc_geom_bond_type
C59   C63   1.418683 A    
O4    V2    2.021495 S    
C9    C31   1.396450 A    
C46   C54   1.391627 A    
C49   C51   1.412002 A    
C63   N3    1.438082 S    
C42   C44   1.415723 A    
O1    C3    1.311525 A    
C39   H21   1.083560 S    
O2    C4    1.309765 A    
C29   H29   1.083364 S    
C2    O7    1.306412 A    
O14   C70   1.310774 A    
C61   C67   1.427983 A    
C40   H22   1.083570 S    
C30   H30   1.083810 S    
C28   H4    1.076763 S    
C50   C52   1.412419 A    
C52   C54   1.386544 A    
C21   C23   1.419037 A    
C11   H9    1.083178 S    
O14   V4    2.017551 S    
C9    H5    1.083883 S    
C13   C15   1.418485 A    
C15   C19   1.430487 A    
C38   C46   1.403775 A    
C35   C65   1.391842 A    
C53   H13   1.083756 S    
C37   C39   1.390713 A    
O19   V4    1.739982 S    
C38   C40   1.391836 A    
C5    H1    1.078429 S    
C7    C29   1.390696 A    
C45   C53   1.389723 A    
C31   C70   1.468328 S    
C34   C42   1.399790 A    
C25   H11   1.082438 S    
C41   C43   1.415702 A    
C20   C28   1.418513 A    
C16   C18   1.423214 A    
C43   C47   1.432587 A    
C1    C36   1.467130 S    
C44   C48   1.430885 A    
O5    V1    2.019633 S    
O6    V2    2.017762 S    
C34   C40   1.394925 A    
C58   H18   1.080523 S    
C37   H19   1.084123 S    
C12   H10   1.083071 S    
C47   C55   1.410286 A    
C12   C14   1.392752 A    
C57   C59   1.399964 A    
C13   H7    1.074317 S    
C33   C39   1.394000 A    
C36   C68   1.406796 A    
C10   H6    1.083871 S    
C23   C25   1.398619 A    
C8    C30   1.391182 A    
O15   V3    2.021652 S    
C16   C20   1.430656 A    
O13   V3    2.019420 S    
N5    O30   1.299804 A    
C42   H24   1.078557 S    
C64   N4    1.438648 S    
C48   C50   1.426295 A    
O12   C72   1.308445 A    
C47   C49   1.428562 A    
C35   C67   1.406208 A    
C26   H12   1.082354 S    
C4    C7    1.465534 S    
O16   C72   1.310871 A    
C43   C45   1.420440 A    
C65   H15   1.084412 S    
N2    O24   1.302020 A    
N1    O22   1.301887 A    
C6    C30   1.391013 A    
O12   V3    2.012525 S    
O5    C3    1.310929 A    
O10   V1    1.739450 S    
O6    C4    1.313062 A    
C27   H3    1.075493 S    
C55   H27   1.075993 S    
O13   C69   1.310175 A    
O1    V2    2.010203 S    
O18   V4    2.010856 S    
C50   C62   1.434738 A    
O2    V1    2.011253 S    
C51   C53   1.384704 A    
C49   C61   1.435018 A    
C67   N1    1.437820 S    
C33   C72   1.458185 S    
C7    C27   1.395907 A    
N4    O28   1.301706 A    
C59   C61   1.425325 A    
C64   C66   1.397575 A    
C51   H25   1.076524 S    
O15   C71   1.311274 A    
C63   C65   1.395857 A    
C17   C31   1.421559 A    
N3    O25   1.301319 A    
C38   H20   1.084103 S    
O4    C2    1.307291 A    
C41   H23   1.077065 S    
O20   V4    2.188932 S    
N1    O21   1.299835 A    
N6    O32   1.300172 A    
O3    V1    2.021520 S    
O11   C71   1.309033 A    
C55   C57   1.386344 A    
C37   C45   1.403790 A    
C52   H26   1.077588 S    
O16   V4    2.021626 S    
C32   C69   1.468263 S    
N6    O31   1.301164 A    
C18   C32   1.421213 A    
C2    C35   1.462952 S    
C60   C64   1.419222 A    
C33   C41   1.398210 A    
N4    O27   1.302393 A    
O3    C1    1.305787 A    
N5    O29   1.301216 A    
O11   V4    2.012451 S    
C66   H16   1.084402 S    
C36   C66   1.393738 A    
C11   C13   1.392619 A    
C56   H28   1.077513 S    
C3    C8    1.465104 S    
C58   C60   1.401930 A    
C19   C27   1.417944 A    
C14   C16   1.418552 A    
N2    O23   1.300089 A    
O17   V3    2.011910 S    
C10   C32   1.396186 A    
C1    O8    1.309715 A    
C15   C17   1.422217 A    
O8    V2    2.014218 S    
C24   C26   1.398205 A    
C14   H8    1.074301 S    
C10   C12   1.387152 A    
C8    C28   1.397255 A    
C57   H17   1.081005 S    
C54   H14   1.084262 S    
C22   C24   1.417345 A    
C34   C71   1.460541 S    
C19   C21   1.429984 A    
C56   C58   1.387449 A    
C17   C25   1.404316 A    
C24   N6    1.443732 S    
C6    H2    1.079091 S    
C18   C26   1.404815 A    
O7    V1    2.014294 S    
O19   V3    2.187158 S    
C70   O17   1.310150 A    
C69   O18   1.310531 A    
C9    C11   1.387158 A    
C20   C22   1.429241 A    
C48   C56   1.409285 A    
C23   N5    1.443658 S    
O9    V2    1.740712 S    
C5    C29   1.391964 A    
N3    O26   1.300612 A    
C44   C46   1.419988 A    
C68   N2    1.437049 S    
C60   C62   1.425480 A    
C62   C68   1.427695 A    
C5    C21   1.414162 A    
O20   V3    1.738723 S    
C6    C22   1.412796 A    
