data_mof_unit_38666.cif
_audit_creation_date              2012-12-10T17:24:10-0500
_audit_creation_method            fapswitch 2.2
_symmetry_space_group_name_H-M    P1
_symmetry_Int_Tables_number       1
_space_group_crystal_system       triclinic
_cell_length_a                    10.158758
_cell_length_b                    10.591482
_cell_length_c                    16.727967
_cell_angle_alpha                 92.555437
_cell_angle_beta                  78.106801
_cell_angle_gamma                 94.572928
_cell_volume                      1754.8923555

loop_
_atom_site_label
_atom_site_type_symbol
_atom_type_description
_atom_site_fract_x
_atom_site_fract_y
_atom_site_fract_z
_atom_type_partial_charge
C1    C     C_R   0.554216 0.734007 0.500885 0.920158
C2    C     C_R   0.518547 0.506104 0.345383 0.889783
C3    C     C_R   0.474322 0.511659 0.742850 -0.136910
C4    C     C_R   0.533837 0.551673 0.262387 -0.140796
C5    C     C_R   0.591675 0.549660 0.771106 -0.327688
C6    C     C_R   0.425930 0.612775 0.244120 -0.269883
C7    C     C_R   0.585875 0.581174 0.852397 -0.152830
C8    C     C_R   0.436742 0.665626 0.168966 -0.174151
C9    C     C_R   0.461580 0.574201 0.907396 0.153394
C10   C     C_R   0.553950 0.654868 0.109554 0.137588
C11   C     C_R   0.345078 0.525015 0.881110 -0.319777
C12   C     C_R   0.444768 0.266717 0.509729 0.966910
C13   C     C_R   0.664896 0.600800 0.127808 -0.273994
C14   C     C_R   0.349529 0.493400 0.798000 0.494390
C15   C     C_R   0.657320 0.551338 0.205000 0.466658
C16   C     C_2   0.452541 0.603487 0.994412 -0.198709
C17   C     C_2   0.550016 0.670565 0.024339 -0.215807
C18   C     C_3   0.870160 0.580501 0.230557 0.104850
C19   C     C_3   0.999390 0.514009 0.224561 -0.820857
C20   C     C_3   0.115010 0.473985 0.809435 0.081436
C21   C     C_3   0.009968 0.430581 0.759159 -0.817530
C22   C     C_3   0.633103 0.109035 0.660521 0.027676
C23   C     C_2   0.578985 0.868376 0.519162 -0.478106
C24   C     C_3   0.572569 0.212090 0.720383 -0.327150
C25   C     C_3   0.582643 0.186144 0.807793 -0.941071
C26   C     C_3   0.300215 0.915967 0.675239 0.049580
C27   C     C_3   0.331509 0.819992 0.733164 -0.340831
C28   C     C_3   0.272466 0.854960 0.822055 -0.978525
C29   C     C_3   0.057462 0.252811 0.475019 0.078930
C30   C     C_3   0.038835 0.223102 0.566343 -0.362603
C31   C     C_3   0.010288 0.081249 0.579874 -0.994788
C32   C     C_3   0.855364 0.671854 0.595099 0.115436
C33   C     C_3   0.907853 0.735387 0.668332 -0.416447
C34   C     C_2   0.415985 0.134425 0.529360 -0.464429
C35   C     C_3   0.818775 0.838256 0.710560 -0.993646
C36   C     C_2   0.480197 0.934968 0.564251 0.404398
C37   C     C_2   0.501365 0.073040 0.562999 0.398564
C38   C     C_2   0.921987 0.491777 0.518100 0.340622
C39   C     C_2   0.071306 0.472568 0.502179 0.406997
C40   C     C_R   0.482436 0.500718 0.654921 0.855418
H1    H     H_    0.688451 0.556860 0.730049 0.229355
H2    H     H_    0.678314 0.913958 0.495526 0.139156
H3    H     H_    0.115241 0.627254 0.567668 0.136630
H4    H     H_    0.895867 0.417512 0.410560 0.133132
H5    H     H_    0.844805 0.628025 0.291905 0.153168
H6    H     H_    0.890754 0.654122 0.183087 0.116394
H7    H     H_    0.030826 0.472379 0.162046 0.248956
H8    H     H_    0.081107 0.583073 0.237459 0.196388
H9    H     H_    0.983493 0.437164 0.269213 0.259443
H10   H     H_    0.118258 0.579318 0.816247 0.137709
H11   H     H_    0.082565 0.430244 0.870198 0.146630
H12   H     H_    0.331676 0.619647 0.287755 0.186121
H13   H     H_    0.001590 0.325469 0.753355 0.252576
H14   H     H_    0.910118 0.463234 0.789476 0.206237
H15   H     H_    0.039611 0.470191 0.697165 0.265953
H16   H     H_    0.742161 0.112943 0.660828 0.181178
H17   H     H_    0.590546 0.013532 0.682064 0.122324
H18   H     H_    0.629652 0.303471 0.702485 0.255198
H19   H     H_    0.465060 0.218936 0.717545 0.216021
H20   H     H_    0.526851 0.094653 0.827497 0.263641
H21   H     H_    0.538056 0.263147 0.849421 0.279110
H22   H     H_    0.689937 0.182820 0.812225 0.263377
H23   H     H_    0.637764 0.716124 0.985240 0.144930
H24   H     H_    0.189101 0.917033 0.683369 0.166196
H25   H     H_    0.336236 0.013333 0.692493 0.128801
H26   H     H_    0.287623 0.724716 0.718085 0.243857
H27   H     H_    0.442484 0.816095 0.725178 0.206541
H28   H     H_    0.313531 0.950755 0.838392 0.271673
H29   H     H_    0.299313 0.785585 0.862729 0.272433
H30   H     H_    0.160799 0.853508 0.832037 0.259675
H31   H     H_    0.119816 0.180461 0.438718 0.174411
H32   H     H_    0.959089 0.240608 0.455763 0.131275
H33   H     H_    0.129813 0.255811 0.590378 0.261564
H34   H     H_    0.367476 0.557645 0.036152 0.157041
H35   H     H_    0.952611 0.272951 0.602158 0.221722
H36   H     H_    0.993252 0.063761 0.646254 0.267583
H37   H     H_    0.096814 0.028200 0.548263 0.273361
H38   H     H_    0.919781 0.045342 0.555936 0.274619
H39   H     H_    0.747795 0.690035 0.602992 0.209261
H40   H     H_    0.909958 0.717933 0.537636 0.088953
H41   H     H_    0.913065 0.664540 0.714256 0.243412
H42   H     H_    0.011047 0.779773 0.647014 0.210969
H43   H     H_    0.803359 0.904749 0.664794 0.260914
H44   H     H_    0.867615 0.891078 0.756807 0.267732
H45   H     H_    0.252418 0.510606 0.925988 0.118190
H46   H     H_    0.718840 0.796150 0.741571 0.272864
H47   H     H_    0.754208 0.589396 0.080578 0.142592
H48   H     H_    0.350329 0.707427 0.155132 0.144217
H49   H     H_    0.679803 0.608569 0.871328 0.138230
H50   H     H_    0.325301 0.085645 0.515118 0.143527
N1    N     N_2   0.846390 0.448330 0.467170 -0.210250
N2    N     N_2   0.153610 0.551670 0.532830 -0.213873
O1    O     O_R   0.430310 0.692580 0.506610 -0.539483
O2    O     O_3   0.240965 0.432194 0.769154 -0.611497
O3    O     O_3   0.619396 0.134059 0.580260 -0.621747
O4    O     O_3   0.351401 0.878316 0.593134 -0.631660
O5    O     O_3   0.126108 0.372518 0.453140 -0.621546
O6    O     O_3   0.863196 0.538649 0.594817 -0.652103
O7    O     O_R   0.569690 0.307420 0.493390 -0.538706
O8    O     O_R   0.652740 0.659410 0.485540 -0.658660
O9    O     O_R   0.347260 0.340590 0.514460 -0.580382
O10   O     O_R   0.375640 0.518570 0.627580 -0.580289
O11   O     O_R   0.624360 0.481430 0.372420 -0.582492
O12   O     O_R   0.598070 0.485390 0.606510 -0.583398
O13   O     O_R   0.401930 0.514610 0.393490 -0.590437
O14   O     O_3   0.764510 0.489844 0.220189 -0.595121
Zn1   Zn    Zn3+2 0.351480 0.522150 0.514070 0.999967
Zn2   Zn    Zn3+2 0.648520 0.477850 0.485930 0.980179

loop_
_geom_bond_atom_site_label_1
_geom_bond_atom_site_label_2
_ccdc_geom_bond_type
O9    Zn1   S    
C34   C37   D    
C22   O3    S    
C28   H29   S    
C38   O6    S    
C22   H17   S    
C34   H50   S    
O7    Zn2   S    
O13   Zn1   S    
C26   C27   S    
C23   H2    S    
C16   H34   S    
C15   O14   S    
C36   C37   S    
C28   H28   S    
C9    C16   S    
C20   H11   S    
C38   C39   S    
C11   C14   A    
C19   H7    S    
C39   O5    S    
C32   H40   S    
C10   C17   S    
C7    H49   S    
C37   O3    S    
C18   C19   S    
C19   H9    S    
C12   O7    A    
C20   O2    S    
C16   C17   D    
C20   H10   S    
O11   Zn2   S    
C25   H20   S    
C33   H42   S    
C26   H24   S    
C29   H32   S    
C18   H6    S    
C1    O8    A    
C31   H37   S    
C26   O4    S    
O8    Zn2   S    
C24   H18   S    
C24   C25   S    
C4    C6    A    
C21   H15   S    
C30   H33   S    
C35   H43   S    
C19   H8    S    
C6    C8    A    
C38   N1    D    
C8    H48   S    
C2    C4    S    
C18   O14   S    
C29   C30   S    
C40   O12   A    
C36   O4    S    
N2    Zn1   S    
C30   C31   S    
C13   H47   S    
O10   Zn1   S    
C25   H21   S    
C9    C11   A    
H4    N1    S    
C8    C10   A    
C3    C40   S    
C1    C23   S    
C13   C15   A    
C22   C24   S    
C12   C34   S    
C18   H5    S    
C39   N2    D    
O12   Zn2   S    
C31   H38   S    
C5    C7    A    
C7    C9    A    
C5    H1    S    
C26   H25   S    
N1    Zn2   S    
C28   H30   S    
C3    C5    A    
C10   C13   A    
C22   H16   S    
C35   H44   S    
C3    C14   A    
C2    O13   A    
H3    N2    S    
C29   O5    S    
C32   C33   S    
C4    C15   A    
C12   O9    A    
C27   H26   S    
C17   H23   S    
C32   H39   S    
C21   H13   S    
C30   H35   S    
C31   H36   S    
C21   H14   S    
C2    O11   A    
C11   H45   S    
C24   H19   S    
C33   C35   S    
C32   O6    S    
C25   H22   S    
C27   H27   S    
C40   O10   A    
C20   C21   S    
C1    O1    A    
C23   C36   D    
C27   C28   S    
C6    H12   S    
C33   H41   S    
C35   H46   S    
C14   O2    S    
O1    Zn1   S    
C29   H31   S    
