data_mof_unit_57027.cif
_audit_creation_date              2012-12-11T14:13:23-0500
_audit_creation_method            fapswitch 2.2
_symmetry_space_group_name_H-M    P1
_symmetry_Int_Tables_number       1
_space_group_crystal_system       monoclinic
_cell_length_a                    11.522882
_cell_length_b                    18.525982
_cell_length_c                    10.0177
_cell_angle_alpha                 90.0
_cell_angle_beta                  110.624867
_cell_angle_gamma                 90.0
_cell_volume                      2001.44173175

loop_
_atom_site_label
_atom_site_type_symbol
_atom_type_description
_atom_site_fract_x
_atom_site_fract_y
_atom_site_fract_z
_atom_type_partial_charge
C1    C     C_R   0.071296 0.646904 0.139591 0.531759
C2    C     C_2   0.627261 0.059830 0.993746 -0.036440
C3    C     C_2   0.627261 0.440169 0.993746 -0.036440
C4    C     C_2   0.372739 0.559830 0.006254 -0.036440
C5    C     C_2   0.473788 0.963111 0.981027 -0.160103
C6    C     C_2   0.526212 0.036889 0.018972 -0.160103
C7    C     C_2   0.526212 0.463111 0.018972 -0.160103
C8    C     C_2   0.473788 0.536889 0.981027 -0.160103
C9    C     C_2   0.008892 0.922402 0.112806 -0.096818
C10   C     C_2   0.991108 0.077598 0.887194 -0.096818
C11   C     C_2   0.991108 0.422402 0.887194 -0.096818
C12   C     C_R   0.928704 0.353095 0.860409 0.531759
C13   C     C_2   0.008892 0.577598 0.112806 -0.096818
C14   C     C_2   0.014780 0.961973 0.004091 -0.098646
C15   C     C_2   0.985220 0.038027 0.995909 -0.098646
C16   C     C_2   0.985220 0.461973 0.995909 -0.098646
C17   C     C_2   0.014780 0.538027 0.004091 -0.098646
C18   C     C_R   0.435487 0.637622 0.372806 0.525846
C19   C     C_R   0.564513 0.362378 0.627194 0.525846
C20   C     C_R   0.564513 0.137622 0.627194 0.525846
C21   C     C_R   0.435487 0.862378 0.372806 0.525846
C22   C     C_R   0.351752 0.637850 0.011935 0.539279
C23   C     C_R   0.928704 0.146904 0.860409 0.531759
C24   C     C_R   0.648248 0.362149 0.988065 0.539280
C25   C     C_R   0.648248 0.137850 0.988065 0.539280
C26   C     C_R   0.351752 0.862149 0.011935 0.539280
C27   C     C_R   0.544291 0.439539 0.587183 -0.025787
C28   C     C_R   0.455709 0.560461 0.412816 -0.025787
C29   C     C_R   0.455708 0.939539 0.412816 -0.025787
C30   C     C_R   0.544291 0.060461 0.587183 -0.025787
C31   C     C_R   0.365958 0.452435 0.672536 -0.069441
C32   C     C_R   0.634042 0.547565 0.327464 -0.069441
C33   C     C_R   0.634042 0.952435 0.327464 -0.069441
C34   C     C_R   0.071296 0.853096 0.139591 0.531759
C35   C     C_R   0.365958 0.047565 0.672536 -0.069441
C36   C     C_R   0.245659 0.476975 0.646368 -0.109170
C37   C     C_R   0.754341 0.523025 0.353632 -0.109170
C38   C     C_R   0.754341 0.976975 0.353632 -0.109170
C39   C     C_R   0.245659 0.023025 0.646368 -0.109170
C40   C     C_R   0.188728 0.519945 0.528085 -0.104368
C41   C     C_R   0.811272 0.480055 0.471915 -0.104368
C42   C     C_R   0.811272 0.019945 0.471915 -0.104368
C43   C     C_R   0.188728 0.980055 0.528085 -0.104368
C44   C     C_R   0.257104 0.543076 0.446141 -0.053436
C45   C     C_R   0.433044 0.473328 0.583956 0.031586
C46   C     C_R   0.742896 0.456924 0.553859 -0.053436
C47   C     C_R   0.742896 0.043076 0.553859 -0.053436
C48   C     C_R   0.257104 0.956924 0.446141 -0.053436
C49   C     C_R   0.382766 0.527209 0.482695 0.025376
C50   C     C_R   0.617234 0.472791 0.517305 0.025376
C51   C     C_R   0.617234 0.027209 0.517305 0.025376
C52   C     C_R   0.382766 0.972791 0.482695 0.025376
C53   C     C_1   0.689108 0.012271 0.926050 0.114195
C54   C     C_1   0.310892 0.987729 0.073950 0.114195
C55   C     C_1   0.310892 0.512271 0.073950 0.114195
C56   C     C_R   0.566956 0.526672 0.416044 0.031586
C57   C     C_1   0.689108 0.487729 0.926050 0.114195
C58   C     C_R   0.566956 0.973328 0.416044 0.031586
C59   C     C_R   0.433044 0.026672 0.583956 0.031586
C60   C     C_2   0.372739 0.940169 0.006254 -0.036440
Cr1   Cr    Cr6+3 0.187610 0.750000 0.979860 1.028622
Cr2   Cr    Cr6+3 0.812390 0.250000 0.020140 1.028622
Cr3   Cr    Cr6+3 0.245810 0.750000 0.341640 1.038187
Cr4   Cr    Cr6+3 0.754190 0.250000 0.658360 1.038187
Cr5   Cr    Cr6+3 0.485760 0.750000 0.219910 1.014665
Cr6   Cr    Cr6+3 0.514240 0.250000 0.780090 1.014665
H1    H     H_    0.194894 0.459423 0.713104 0.112077
H2    H     H_    0.595844 0.583953 0.239423 0.156170
H3    H     H_    0.595843 0.916047 0.239423 0.156170
H4    H     H_    0.404156 0.083953 0.760577 0.156170
H5    H     H_    0.211797 0.567229 0.346408 0.149757
H6    H     H_    0.788202 0.432771 0.653592 0.149757
H7    H     H_    0.788202 0.067229 0.653592 0.149757
H8    H     H_    0.211797 0.932771 0.346408 0.149757
H9    H     H_    0.476580 0.075661 0.060280 0.178803
H10   H     H_    0.523420 0.924339 0.939720 0.178803
H11   H     H_    0.523420 0.575660 0.939720 0.178803
H12   H     H_    0.805106 0.540577 0.286896 0.112077
H13   H     H_    0.476580 0.424339 0.060280 0.178803
H14   H     H_    0.949685 0.060283 0.074482 0.159453
H15   H     H_    0.050315 0.939717 0.925518 0.159453
H16   H     H_    0.050315 0.560283 0.925518 0.159453
H17   H     H_    0.949685 0.439717 0.074482 0.159453
H18   H     H_    0.022621 0.054131 0.806489 0.084529
H19   H     H_    0.977379 0.945869 0.193511 0.084529
H20   H     H_    0.977378 0.554131 0.193511 0.084529
H21   H     H_    0.022621 0.445869 0.806489 0.084529
H22   H     H_    0.805106 0.959423 0.286896 0.112077
H23   H     H_    0.194894 0.040577 0.713104 0.112077
H24   H     H_    0.091970 0.534451 0.498500 0.107768
H25   H     H_    0.908030 0.465549 0.501500 0.107768
H26   H     H_    0.908030 0.034451 0.501499 0.107768
H27   H     H_    0.091970 0.965549 0.498501 0.107768
H28   H     H_    0.404156 0.416047 0.760577 0.156170
N1    N     N_1   0.734574 0.972978 0.869291 -0.317971
N2    N     N_1   0.265426 0.027022 0.130710 -0.317971
N3    N     N_1   0.265425 0.472977 0.130710 -0.317971
N4    N     N_1   0.734574 0.527022 0.869290 -0.317971
O1    O     O_R   0.267710 0.668200 0.902110 -0.483915
O2    O     O_R   0.883280 0.330790 0.732340 -0.535542
O3    O     O_R   0.883280 0.169210 0.732340 -0.535542
O4    O     O_R   0.116720 0.830790 0.267660 -0.535542
O5    O     O_R   0.366710 0.675440 0.427590 -0.465608
O6    O     O_R   0.633290 0.324560 0.572410 -0.465608
O7    O     O_R   0.633290 0.175440 0.572410 -0.465608
O8    O     O_R   0.366710 0.824560 0.427590 -0.465608
O9    O     O_R   0.534870 0.669390 0.371760 -0.502213
O10   O     O_R   0.465130 0.330610 0.628240 -0.502213
O11   O     O_R   0.465130 0.169390 0.628240 -0.502213
O12   O     O_R   0.732290 0.331800 0.097890 -0.483915
O13   O     O_R   0.534870 0.830610 0.371760 -0.502213
O14   O     O_R   0.453080 0.674480 0.075160 -0.519359
O15   O     O_R   0.546920 0.325520 0.924840 -0.519359
O16   O     O_R   0.546920 0.174480 0.924840 -0.519359
O17   O     O_R   0.453080 0.825520 0.075160 -0.519359
O18   O     O_3   0.306390 0.750000 0.180470 -0.336165
O19   O     O_3   0.693610 0.250000 0.819530 -0.336165
O20   O     O_R   0.732290 0.168200 0.097890 -0.483915
O21   O     O_R   0.267710 0.831800 0.902110 -0.483915
O22   O     O_R   0.099480 0.674460 0.038850 -0.510437
O23   O     O_R   0.900520 0.325540 0.961150 -0.510437
O24   O     O_R   0.900520 0.174460 0.961150 -0.510437
O25   O     O_R   0.099480 0.825540 0.038850 -0.510437
O26   O     O_R   0.116720 0.669210 0.267660 -0.535542

loop_
_geom_bond_atom_site_label_1
_geom_bond_atom_site_label_2
_ccdc_geom_bond_type
C44   C49   A    
C30   C51   A    
C34   O25   A    
Cr6   O15   S    
C53   N1    T    
C4    C8    D    
C25   O20   A    
Cr3   O26   S    
C28   C56   A    
C36   H1    S    
C6    H9    S    
C54   C60   S    
C33   C58   A    
C38   C42   A    
C3    C7    D    
C10   C15   D    
C5    C6    S    
Cr1   O21   S    
C23   O3    A    
C44   H5    S    
C35   C59   A    
C17   H16   S    
C19   O6    A    
C26   O17   A    
Cr5   O13   S    
Cr2   O19   S    
C9    H19   S    
C18   O9    A    
C12   O23   A    
C35   H4    S    
C11   H21   S    
C16   C17   S    
Cr6   O19   S    
C13   H20   S    
C41   C46   A    
C39   H23   S    
C19   C27   S    
C43   C48   A    
C40   C44   A    
C46   H6    S    
C21   O8    A    
C27   C50   A    
C33   H3    S    
C32   H2    S    
Cr5   O9    S    
C19   O10   A    
C27   C45   A    
C24   O15   A    
Cr1   O22   S    
Cr5   O17   S    
C3    C24   S    
Cr1   O1    S    
Cr3   O4    S    
C21   O13   A    
C23   O24   A    
Cr4   O3    S    
Cr2   O20   S    
C48   H8    S    
C7    C8    S    
C24   O12   A    
C26   O21   A    
C47   H7    S    
Cr3   O5    S    
C39   C43   A    
C21   C29   S    
C16   H17   S    
C50   C56   A    
Cr4   O19   S    
C2    C6    D    
C38   H22   S    
C1    O22   A    
C35   C39   A    
C9    C14   D    
Cr5   O14   S    
C52   C59   A    
C4    C22   S    
C11   C16   D    
C15   H14   S    
Cr2   O12   S    
C45   C49   A    
C30   C59   A    
C55   N3    T    
Cr1   O18   S    
C18   C28   S    
C51   C58   A    
C34   O4    A    
C32   C37   A    
Cr3   O8    S    
Cr3   O18   S    
C3    C57   S    
C41   H25   S    
C22   O14   A    
C4    C55   S    
C8    H11   S    
Cr5   O18   S    
C1    C13   S    
Cr2   O24   S    
C36   C40   A    
C7    H13   S    
C20   O7    A    
Cr4   O6    S    
C22   O1    A    
Cr6   O16   S    
C5    C60   D    
Cr4   O7    S    
C14   C15   S    
C54   N2    T    
Cr6   O10   S    
C2    C53   S    
C47   C51   A    
C11   C12   S    
C10   C23   S    
C31   H28   S    
C37   H12   S    
C46   C50   A    
C33   C38   A    
C13   C17   D    
Cr1   O25   S    
C1    O26   A    
C5    H10   S    
Cr4   O2    S    
C25   O16   A    
C20   C30   S    
C18   O5    A    
C9    C34   S    
C57   N4    T    
C10   H18   S    
C43   H27   S    
C28   C49   A    
C2    C25   S    
C42   H26   S    
C42   C47   A    
Cr6   O11   S    
C37   C41   A    
C12   O2    A    
C20   O11   A    
C48   C52   A    
C29   C58   A    
C31   C45   A    
C31   C36   A    
C14   H15   S    
C40   H24   S    
C26   C60   S    
C32   C56   A    
Cr2   O23   S    
C29   C52   A    
