data_mof_unit_21278.cif
_audit_creation_date              2012-12-10T17:18:14-0500
_audit_creation_method            fapswitch 2.2
_symmetry_space_group_name_H-M    P1
_symmetry_Int_Tables_number       1
_space_group_crystal_system       triclinic
_cell_length_a                    10.109151
_cell_length_b                    10.82562
_cell_length_c                    15.015398
_cell_angle_alpha                 90.124167
_cell_angle_beta                  81.30311
_cell_angle_gamma                 95.439999
_cell_volume                      1616.91887656

loop_
_atom_site_label
_atom_site_type_symbol
_atom_type_description
_atom_site_fract_x
_atom_site_fract_y
_atom_site_fract_z
_atom_type_partial_charge
C1    C     C_R   0.556327 0.732702 0.496400 0.949121
C2    C     C_2   0.073035 0.490117 0.492728 -0.133033
C3    C     C_R   0.500571 0.500564 0.673339 0.888421
C4    C     C_R   0.499443 0.499476 0.326659 0.894749
C5    C     C_R   0.610396 0.461784 0.173831 -0.246336
C6    C     C_R   0.389764 0.538600 0.826135 -0.246605
C7    C     C_R   0.498685 0.498034 0.230856 -0.093598
C8    C     C_R   0.501404 0.502195 0.769124 -0.090383
C9    C     C_R   0.387065 0.533355 0.196493 -0.236027
C10   C     C_R   0.613073 0.466977 0.803479 -0.236319
C11   C     C_R   0.387155 0.534822 0.104406 0.101451
C12   C     C_R   0.443742 0.267310 0.508474 0.948130
C13   C     C_R   0.613064 0.465685 0.895555 0.101307
C14   C     C_R   0.499879 0.498851 0.046359 0.012923
C15   C     C_R   0.500363 0.501704 0.953601 0.012805
C16   C     C_R   0.611989 0.460200 0.081216 0.087276
C17   C     C_R   0.388249 0.540347 0.918742 0.087192
C18   C     C_R   0.276656 0.573207 0.069954 -0.292653
C19   C     C_R   0.723611 0.427402 0.930000 -0.292656
C20   C     C_3   0.182130 0.750346 0.917730 -0.799614
C21   C     C_3   0.818515 0.250395 0.082021 -0.798646
C22   C     C_R   0.276736 0.577958 0.977200 0.204698
C23   C     C_R   0.723555 0.422701 0.022751 0.204494
C24   C     C_2   0.588490 0.864697 0.502193 -0.380123
C25   C     C_2   0.411850 0.135390 0.521183 -0.378165
C26   C     C_2   0.488122 0.934045 0.529109 -0.149887
C27   C     C_2   0.512679 0.066190 0.526390 -0.147891
C28   C     C_2   0.926954 0.509862 0.507291 -0.135032
H1    H     H_    0.696201 0.435090 0.201942 0.195100
H2    H     H_    0.691602 0.905203 0.483625 0.150154
H3    H     H_    0.109787 0.422810 0.443666 0.163976
H4    H     H_    0.890195 0.577154 0.556363 0.164385
H5    H     H_    0.119327 0.614319 0.583214 0.160662
H6    H     H_    0.880684 0.385698 0.416777 0.162031
H7    H     H_    0.074095 0.597891 0.984563 0.224038
H8    H     H_    0.094054 0.774139 0.887411 0.240023
H9    H     H_    0.273789 0.770791 0.867119 0.249152
H10   H     H_    0.190387 0.809002 0.977865 0.244253
H11   H     H_    0.926258 0.403159 0.015429 0.224013
H12   H     H_    0.303940 0.565250 0.798023 0.194742
H13   H     H_    0.906598 0.226712 0.112374 0.240261
H14   H     H_    0.810519 0.191870 0.021787 0.243893
H15   H     H_    0.726811 0.229676 0.132548 0.249450
H16   H     H_    0.300861 0.561602 0.241246 0.162182
H17   H     H_    0.699243 0.438653 0.758730 0.161691
H18   H     H_    0.190921 0.601567 0.115073 0.150474
H19   H     H_    0.809356 0.399064 0.884880 0.150317
H20   H     H_    0.616292 0.106321 0.522462 0.188879
H21   H     H_    0.384723 0.893980 0.547594 0.187737
H22   H     H_    0.308523 0.094818 0.524952 0.149672
N1    N     N_2   0.842700 0.448880 0.462930 -0.197291
N2    N     N_2   0.157300 0.551120 0.537070 -0.196812
N3    N     N_2   0.164516 0.620420 0.943439 -0.320134
N4    N     N_2   0.835845 0.380381 0.056502 -0.320180
O1    O     O_R   0.431060 0.692470 0.507460 -0.612914
O2    O     O_R   0.568940 0.307530 0.492540 -0.613517
O3    O     O_R   0.651120 0.659650 0.483670 -0.612087
O4    O     O_R   0.348880 0.340350 0.516330 -0.612356
O5    O     O_R   0.389960 0.516440 0.644050 -0.622127
O6    O     O_R   0.610040 0.483560 0.355950 -0.619112
O7    O     O_R   0.610030 0.483620 0.620260 -0.624568
O8    O     O_R   0.389970 0.516380 0.379740 -0.621544
Zn1   Zn    Zn3+2 0.353060 0.521920 0.515880 0.940028
Zn2   Zn    Zn3+2 0.646940 0.478080 0.484120 0.939928

loop_
_geom_bond_atom_site_label_1
_geom_bond_atom_site_label_2
_ccdc_geom_bond_type
C27   H20   S    
O7    Zn2   S    
C19   C23   A    
O2    Zn2   S    
C11   C18   A    
O8    Zn1   S    
C1    O3    A    
H7    N3    S    
C20   H10   S    
O5    Zn1   S    
C17   C22   A    
C14   C15   A    
C12   C25   S    
O6    Zn2   S    
C12   O4    A    
C16   C23   A    
C4    O6    A    
C10   H17   S    
C13   C15   A    
C1    O1    A    
C5    C7    A    
C18   C22   A    
C1    C24   S    
H5    N2    S    
C20   H9    S    
C9    C11   A    
H6    N1    S    
C12   O2    A    
O1    Zn1   S    
C2    N2    D    
C23   N4    S    
C4    C7    S    
C21   H13   S    
C18   H18   S    
C8    C10   A    
C28   N1    D    
C24   C26   D    
C22   N3    S    
C19   H19   S    
C3    O7    A    
C26   C27   S    
C21   N4    S    
C11   C14   A    
C14   C16   A    
C24   H2    S    
C25   C27   D    
C13   C19   A    
C21   H14   S    
H11   N4    S    
C5    H1    S    
C4    O8    A    
C28   H4    S    
C6    H12   S    
C6    C8    A    
O3    Zn2   S    
C15   C17   A    
C3    C8    S    
C26   H21   S    
O4    Zn1   S    
C7    C9    A    
C6    C17   A    
C25   H22   S    
C2    H3    S    
C9    H16   S    
C2    C28   S    
C21   H15   S    
C10   C13   A    
N1    Zn2   S    
C3    O5    A    
C20   N3    S    
C5    C16   A    
N2    Zn1   S    
C20   H8    S    
