data_mof_unit_61962.cif
_audit_creation_date              2012-12-10T18:23:10-0500
_audit_creation_method            fapswitch 2.2
_symmetry_space_group_name_H-M    P1
_symmetry_Int_Tables_number       1
_space_group_crystal_system       triclinic
_cell_length_a                    23.392723
_cell_length_b                    23.385554
_cell_length_c                    60.402959
_cell_angle_alpha                 89.99977
_cell_angle_beta                  90.036754
_cell_angle_gamma                 89.999332
_cell_volume                      33043.5398553

loop_
_atom_site_label
_atom_site_type_symbol
_atom_type_description
_atom_site_fract_x
_atom_site_fract_y
_atom_site_fract_z
_atom_type_partial_charge
C1    C     C_R   0.499920 0.999807 0.189073 0.559300
C2    C     C_R   0.500002 1.000000 0.546987 -0.034613
C3    C     C_R   0.895480 0.395490 0.750003 0.494893
C4    C     C_R   0.395482 0.104512 0.250001 0.509291
C5    C     C_R   0.604518 0.895489 0.749999 0.491729
C6    C     C_R   0.895496 0.395484 0.249995 0.505745
C7    C     C_R   0.104507 0.604513 0.750008 0.494637
C8    C     C_R   0.604517 0.104514 0.750001 0.506974
C9    C     C_R   0.395485 0.895485 0.249998 0.494802
C10   C     C_R   0.104493 0.395474 0.749997 0.498272
C11   C     C_R   0.895501 0.604521 0.249999 0.495389
C12   C     C_R   0.395506 0.895475 0.750003 0.496293
C13   C     C_R   0.000075 0.499976 0.453123 -0.034495
C14   C     C_R   0.604505 0.104516 0.250005 0.501581
C15   C     C_R   0.895493 0.604522 0.749993 0.498301
C16   C     C_R   0.104512 0.395483 0.250004 0.495713
C17   C     C_1   0.350434 0.850435 0.249994 -0.015076
C18   C     C_1   0.649569 0.149565 0.750006 0.000820
C19   C     C_1   0.149561 0.350431 0.250011 -0.014471
C20   C     C_1   0.850448 0.649580 0.749981 -0.007063
C21   C     C_1   0.649548 0.149579 0.250011 -0.006767
C22   C     C_1   0.350470 0.850406 0.750009 -0.008103
C23   C     C_1   0.850455 0.649581 0.249995 -0.015348
C24   C     C_R   0.999953 0.499990 0.547322 -0.028805
C25   C     C_1   0.149526 0.350402 0.749990 -0.006283
C26   C     C_1   0.350440 0.149567 0.749975 -0.009413
C27   C     C_1   0.649535 0.850412 0.250000 -0.008819
C28   C     C_1   0.149556 0.649570 0.750023 -0.012003
C29   C     C_1   0.850453 0.350422 0.249988 0.000082
C30   C     C_1   0.649578 0.850448 0.749993 -0.017764
C31   C     C_1   0.350425 0.149558 0.250003 0.000164
C32   C     C_1   0.850427 0.350442 0.750008 -0.011216
C33   C     C_1   0.149572 0.649561 0.249997 -0.000641
C34   C     C_1   0.313000 0.812999 0.249992 -0.034848
C35   C     C_R   0.999999 0.499999 0.953017 -0.034596
C36   C     C_1   0.687003 0.187000 0.750010 -0.023643
C37   C     C_1   0.186995 0.312995 0.250014 -0.033941
C38   C     C_1   0.813016 0.687018 0.749975 -0.030281
C39   C     C_1   0.686986 0.187013 0.250009 -0.028460
C40   C     C_1   0.313033 0.812971 0.750019 -0.030542
C41   C     C_1   0.813013 0.687011 0.249996 -0.035492
C42   C     C_1   0.186962 0.312966 0.749980 -0.028951
C43   C     C_1   0.312998 0.186996 0.749968 -0.030930
C44   C     C_1   0.686974 0.812978 0.249998 -0.031473
C45   C     C_1   0.186997 0.687001 0.750031 -0.033098
C46   C     C_R   0.000000 0.500001 0.047169 -0.034782
C47   C     C_1   0.813015 0.312988 0.249990 -0.023942
C48   C     C_1   0.687017 0.813016 0.749986 -0.037351
C49   C     C_1   0.312989 0.186993 0.250007 -0.024523
C50   C     C_1   0.812994 0.313005 0.750012 -0.031624
C51   C     C_1   0.187007 0.686997 0.249994 -0.025230
C52   C     C_1   0.268720 0.768716 0.249991 0.005098
C53   C     C_1   0.731284 0.231284 0.750013 0.009415
C54   C     C_1   0.231275 0.268712 0.250014 0.005923
C55   C     C_1   0.768736 0.731302 0.749975 0.004358
C56   C     C_1   0.731278 0.231288 0.250003 0.008755
C57   C     C_R   0.498566 0.997733 0.952900 -0.032406
C58   C     C_1   0.268739 0.768698 0.750028 0.005281
C59   C     C_1   0.768716 0.731282 0.249996 0.003304
C60   C     C_1   0.231255 0.268692 0.749970 0.006642
C61   C     C_1   0.268701 0.231267 0.749966 0.006120
C62   C     C_1   0.731269 0.768706 0.249997 0.004353
C63   C     C_1   0.231293 0.731273 0.750032 0.004557
C64   C     C_1   0.768722 0.268714 0.249996 0.010037
C65   C     C_1   0.731301 0.768736 0.749978 0.002437
C66   C     C_1   0.268708 0.231276 0.250012 0.008533
C67   C     C_1   0.768716 0.268720 0.750014 0.007122
C68   C     C_R   0.501434 0.997733 0.047100 -0.032467
C69   C     C_1   0.231287 0.731280 0.249992 0.007781
C70   C     C_R   0.449306 0.994946 0.417671 0.405218
C71   C     C_R   0.549141 0.013439 0.582151 0.405341
C72   C     C_R   0.982658 0.452107 0.417946 0.405607
C73   C     C_R   0.009485 0.550018 0.582501 0.426194
C74   C     C_R   0.550693 0.005052 0.417696 0.405223
C75   C     C_R   0.450863 0.986561 0.582127 0.405348
C76   C     C_R   0.017553 0.547844 0.417958 0.405566
C77   C     C_R   0.990348 0.449969 0.582495 0.426228
C78   C     C_R   0.951007 0.513968 0.917852 0.405345
C79   C     C_R   0.448436 0.994426 0.440988 0.009878
C80   C     C_R   0.050637 0.494410 0.082334 0.405186
C81   C     C_R   0.494985 0.946753 0.917772 0.415708
C82   C     C_R   0.498605 0.048431 0.082315 0.416312
C83   C     C_R   0.048989 0.486029 0.917876 0.405410
C84   C     C_R   0.949364 0.505593 0.082309 0.405231
C85   C     C_R   0.501392 0.048431 0.917685 0.416321
C86   C     C_R   0.505018 0.946753 0.082228 0.415704
C87   C     C_R   0.519507 0.951508 0.370826 0.282703
C88   C     C_R   0.499093 0.947790 0.629004 0.283474
C89   C     C_R   0.052178 0.496879 0.371042 0.283717
C90   C     C_R   0.550143 0.013257 0.558835 0.010201
C91   C     C_R   0.047566 0.479192 0.629285 0.265160
C92   C     C_R   0.480490 0.048490 0.370816 0.282727
C93   C     C_R   0.500912 0.052210 0.629005 0.283482
C94   C     C_R   0.947985 0.503110 0.371031 0.283705
C95   C     C_R   0.952288 0.520782 0.629272 0.265172
C96   C     C_R   0.000352 0.447783 0.870997 0.283519
C97   C     C_R   0.979992 0.451714 0.129181 0.282721
C98   C     C_R   0.550770 0.009406 0.871040 0.278794
C99   C     C_R   0.550469 0.984810 0.129278 0.270675
C100  C     C_R   0.999644 0.552215 0.870996 0.283553
C101  C     C_R   0.982709 0.451107 0.441274 0.010214
C102  C     C_R   0.020011 0.548288 0.129191 0.282842
C103  C     C_R   0.449532 0.984809 0.870722 0.270509
C104  C     C_R   0.449229 0.009405 0.128959 0.278942
C105  C     C_R   0.519101 0.951433 0.347490 0.209847
C106  C     C_R   0.499504 0.947810 0.652324 0.212755
C107  C     C_R   0.052106 0.496530 0.347715 0.213424
C108  C     C_R   0.046735 0.477011 0.652621 0.194077
C109  C     C_R   0.480896 0.048566 0.347481 0.209797
C110  C     C_R   0.500501 0.052190 0.652324 0.212678
C111  C     C_R   0.948011 0.503472 0.347705 0.213430
C112  C     C_R   0.500080 0.999807 0.810927 0.559754
C113  C     C_R   0.010162 0.550841 0.559171 0.019646
C114  C     C_R   0.953151 0.522959 0.652609 0.194057
C115  C     C_R   0.999945 0.447808 0.847677 0.212844
C116  C     C_R   0.980399 0.451635 0.152517 0.209734
C117  C     C_R   0.550977 0.009984 0.847687 0.213692
C118  C     C_R   0.549766 0.983046 0.152592 0.191679
C119  C     C_R   0.000052 0.552191 0.847677 0.212879
C120  C     C_R   0.019604 0.548366 0.152527 0.209942
C121  C     C_R   0.450235 0.983045 0.847408 0.191732
C122  C     C_R   0.449023 0.009983 0.152313 0.213923
C123  C     C_R   0.499999 0.999999 0.382578 0.151527
C124  C     C_R   0.551564 0.005572 0.441013 0.009875
C125  C     C_R   0.500003 0.000000 0.617246 0.148514
C126  C     C_R   0.000092 0.499989 0.382813 0.147848
C127  C     C_R   0.999920 0.499989 0.617600 0.170273
C128  C     C_R   0.999998 0.499999 0.882756 0.148511
C129  C     C_R   0.000001 0.500001 0.117428 0.151498
C130  C     C_R   0.499746 0.997075 0.882609 0.157358
C131  C     C_R   0.500254 0.997075 0.117391 0.157309
C132  C     C_3   0.500067 0.137768 0.334321 -0.056842
C133  C     C_3   0.448263 0.125560 0.666430 -0.059139
C134  C     C_3   0.879590 0.561532 0.333291 -0.059513
C135  C     C_R   0.449861 0.986742 0.558810 0.010193
C136  C     C_3   0.915581 0.605064 0.666160 -0.068541
C137  C     C_3   0.499927 0.862232 0.334321 -0.056633
C138  C     C_3   0.551744 0.874443 0.666457 -0.058950
C139  C     C_3   0.120504 0.438484 0.333310 -0.059582
C140  C     C_3   0.084314 0.394903 0.666185 -0.068539
C141  C     C_3   0.053128 0.624900 0.833533 -0.059755
C142  C     C_3   0.001432 0.637798 0.165672 -0.058243
C143  C     C_3   0.398046 0.909515 0.833725 -0.067045
C144  C     C_3   0.363884 0.978689 0.165836 -0.059911
C145  C     C_3   0.946867 0.375101 0.833506 -0.057986
C146  C     C_R   0.017466 0.548843 0.441287 0.010181
C147  C     C_3   0.998574 0.362204 0.165671 -0.056528
C148  C     C_3   0.636117 0.978692 0.834164 -0.059381
C149  C     C_3   0.601957 0.909517 0.166275 -0.066820
C150  C     C_3   0.498963 0.125220 0.393575 -0.090656
C151  C     C_3   0.455621 0.117041 0.606310 -0.087299
C152  C     C_3   0.886980 0.553647 0.393612 -0.085964
C153  C     C_3   0.864209 0.499974 0.615926 -0.083063
C154  C     C_3   0.501034 0.874778 0.393576 -0.090641
C155  C     C_3   0.544386 0.882959 0.606333 -0.087302
C156  C     C_3   0.113220 0.446331 0.393634 -0.085950
C157  C     C_R   0.989715 0.449142 0.559164 0.019671
C158  C     C_3   0.135631 0.499996 0.615968 -0.083054
C159  C     C_3   0.045663 0.616553 0.893680 -0.087640
C160  C     C_3   0.002343 0.625215 0.106437 -0.091680
C161  C     C_3   0.367155 0.021709 0.884286 -0.077362
C162  C     C_3   0.376830 0.979310 0.105966 -0.093953
C163  C     C_3   0.954333 0.383445 0.893657 -0.086323
C164  C     C_3   0.997659 0.374788 0.106435 -0.090422
C165  C     C_3   0.623172 0.979313 0.894034 -0.093657
C166  C     C_3   0.632844 0.021712 0.115714 -0.078003
C167  C     C_R   0.950003 0.513797 0.941168 0.010246
C168  C     C_R   0.051502 0.493878 0.059017 0.009748
C169  C     C_R   0.495262 0.945928 0.941089 0.014830
C170  C     C_R   0.498678 0.049470 0.058981 0.013302
C171  C     C_R   0.049994 0.486201 0.941193 0.010164
C172  C     C_R   0.000001 0.500000 0.189083 0.574024
C173  C     C_R   0.948499 0.506125 0.058992 0.009839
C174  C     C_R   0.501319 0.049470 0.941018 0.013413
C175  C     C_R   0.504742 0.945928 0.058911 0.014723
C176  C     C_R   0.397165 0.988599 0.452620 -0.112348
C177  C     C_R   0.600104 0.026170 0.547202 -0.112654
C178  C     C_R   0.965654 0.402392 0.452919 -0.112266
C179  C     C_R   0.020582 0.601394 0.547524 -0.113259
C180  C     C_R   0.602836 0.011399 0.452671 -0.112344
C181  C     C_R   0.399900 0.973829 0.547153 -0.112647
C182  C     C_R   0.034500 0.597558 0.452944 -0.112279
C183  C     C_R   0.999999 0.500000 0.810957 0.551984
C184  C     C_R   0.979321 0.398586 0.547510 -0.113254
C185  C     C_R   0.900185 0.527248 0.952802 -0.112574
C186  C     C_R   0.102708 0.487501 0.047384 -0.112343
C187  C     C_R   0.492439 0.894434 0.952750 -0.113529
C188  C     C_R   0.495628 0.101033 0.047364 -0.111613
C189  C     C_R   0.099813 0.472751 0.952851 -0.112501
C190  C     C_R   0.897293 0.512502 0.047334 -0.112493
C191  C     C_R   0.504367 0.101034 0.952636 -0.111723
C192  C     C_R   0.507567 0.894434 0.047251 -0.113412
C193  C     C_R   0.499999 0.999999 0.335633 -0.063348
C194  C     C_R   0.999983 0.499998 0.689125 0.552189
C195  C     C_R   0.500002 0.000000 0.664260 -0.071188
C196  C     C_R   0.000047 0.500002 0.335762 -0.071558
C197  C     C_R   0.999953 0.499987 0.664484 -0.055799
C198  C     C_R   0.999999 0.499999 0.835741 -0.071178
C199  C     C_R   0.000001 0.500000 0.164371 -0.063218
C200  C     C_R   0.500373 0.997880 0.835648 -0.062548
C201  C     C_R   0.499627 0.997880 0.164352 -0.062432
C202  C     C_R   0.947959 0.508729 0.011869 0.017039
C203  C     C_R   0.051479 0.488412 0.988316 0.017027
C204  C     C_R   0.501609 0.945002 0.011789 0.017336
C205  C     C_R   0.000017 0.500001 0.310963 0.548069
C206  C     C_R   0.500748 0.050578 0.988190 0.017498
C207  C     C_R   0.052041 0.491272 0.011895 0.017003
C208  C     C_R   0.948519 0.511588 0.988291 0.017083
C209  C     C_R   0.499250 0.050578 0.011809 0.017457
C210  C     C_R   0.498394 0.945002 0.988211 0.017378
C211  C     C_R   0.448400 0.988966 0.511688 0.017090
C212  C     C_R   0.552132 0.008168 0.488135 0.017080
C213  C     C_R   0.987266 0.448759 0.512015 0.017428
C214  C     C_R   0.015441 0.550464 0.488433 0.017513
C215  C     C_R   0.551603 0.011033 0.511713 0.017091
C216  C     C_R   0.500001 0.000000 0.689043 0.551848
C217  C     C_R   0.447869 0.991830 0.488110 0.017080
C218  C     C_R   0.012733 0.551210 0.512024 0.017426
C219  C     C_R   0.984623 0.449496 0.488422 0.017514
C220  C     C_R   1.000000 0.500001 0.023551 0.036392
C221  C     C_R   0.999999 0.500000 0.976635 0.036370
C222  C     C_R   0.500786 0.997779 0.023469 0.036015
C223  C     C_R   0.499214 0.997779 0.976531 0.036047
C224  C     C_R   0.500001 0.999999 0.523369 0.036367
C225  C     C_R   0.500000 0.999999 0.476454 0.036428
C226  C     C_R   0.999983 0.499986 0.523692 0.035733
C227  C     C_R   0.499999 1.000000 0.310918 0.573174
C228  C     C_R   0.000047 0.499978 0.476754 0.036594
C229  C     C_R   0.896907 0.513863 0.024300 -0.139751
C230  C     C_R   0.100685 0.473868 0.975885 -0.139723
C231  C     C_R   0.506077 0.893849 0.024228 -0.139902
C232  C     C_R   0.504086 0.101711 0.975679 -0.138459
C233  C     C_R   0.103092 0.486139 0.024351 -0.139701
C234  C     C_R   0.899313 0.526131 0.975835 -0.139761
C235  C     C_R   0.495908 0.101710 0.024320 -0.138443
C236  C     C_R   0.493930 0.893849 0.975773 -0.139918
C237  C     C_R   0.399040 0.974954 0.524119 -0.139770
C238  C     C_R   0.500000 0.999999 0.452836 -0.034736
C239  C     C_R   0.603236 0.012754 0.475705 -0.139676
C240  C     C_R   0.978030 0.398284 0.524470 -0.139188
C241  C     C_R   0.033496 0.598495 0.475983 -0.139311
C242  C     C_R   0.600963 0.025045 0.524169 -0.139772
C243  C     C_R   0.396765 0.987244 0.475654 -0.139677
C244  C     C_R   0.021933 0.601688 0.524484 -0.139186
C245  C     C_R   0.966604 0.401460 0.475958 -0.139313
C246  C     C_R   0.604496 0.895476 0.249999 0.498583
C247  C     C_R   0.395491 0.104511 0.749992 0.498522
C248  C     C_R   0.104518 0.604512 0.249999 0.505826
H1    H     H_    0.356788 0.984934 0.443940 0.167679
H2    H     H_    0.143043 0.483404 0.056066 0.167926
H3    H     H_    0.103070 0.452524 0.411408 0.142153
H4    H     H_    0.159217 0.435142 0.392580 0.137065
H5    H     H_    0.152083 0.512960 0.632514 0.156873
H6    H     H_    0.119227 0.537953 0.606851 0.138566
H7    H     H_    0.172174 0.482613 0.606406 0.142370
H8    H     H_    0.084467 0.594592 0.887107 0.105434
H9    H     H_    0.039995 0.605993 0.911446 0.142133
H10   H     H_    0.053684 0.663223 0.892639 0.135344
H11   H     H_    0.958276 0.620790 0.113302 0.105331
H12   H     H_    0.002802 0.612433 0.088758 0.143267
H13   H     H_    0.489152 0.853983 0.944097 0.165540
H14   H     H_    0.013484 0.671291 0.107056 0.132403
H15   H     H_    0.353972 0.038888 0.867876 0.156785
H16   H     H_    0.390542 0.054976 0.893856 0.138152
H17   H     H_    0.327683 0.011207 0.893602 0.142136
H18   H     H_    0.387830 0.936613 0.113044 0.100146
H19   H     H_    0.390246 0.981463 0.088380 0.141020
H20   H     H_    0.329565 0.983029 0.106229 0.135982
H21   H     H_    0.915528 0.405407 0.887064 0.105968
H22   H     H_    0.960000 0.394005 0.911426 0.142411
H23   H     H_    0.946311 0.336776 0.892612 0.137049
H24   H     H_    0.492899 0.141450 0.056067 0.168117
H25   H     H_    0.041726 0.379214 0.113322 0.106113
H26   H     H_    0.997199 0.387570 0.088756 0.143543
H27   H     H_    0.986520 0.328712 0.107050 0.133850
H28   H     H_    0.612174 0.936616 0.886956 0.100280
H29   H     H_    0.609755 0.981465 0.911620 0.141024
H30   H     H_    0.670436 0.983033 0.893771 0.136866
H31   H     H_    0.646026 0.038892 0.132123 0.156226
H32   H     H_    0.609455 0.054979 0.106144 0.138181
H33   H     H_    0.672316 0.011211 0.106398 0.141331
H34   H     H_    0.138705 0.461298 0.944190 0.167558
H35   H     H_    0.856958 0.516599 0.055995 0.167626
H36   H     H_    0.507092 0.141450 0.943932 0.167739
H37   H     H_    0.510856 0.853983 0.055904 0.165930
H38   H     H_    0.855414 0.517793 0.016731 0.112227
H39   H     H_    0.140588 0.461824 0.983454 0.112319
H40   H     H_    0.509549 0.852285 0.016698 0.111493
H41   H     H_    0.639117 0.037202 0.555883 0.167257
H42   H     H_    0.507619 0.143333 0.983156 0.112470
H43   H     H_    0.144586 0.482208 0.016802 0.112288
H44   H     H_    0.859411 0.538176 0.983384 0.111944
H45   H     H_    0.492373 0.143333 0.016844 0.112587
H46   H     H_    0.490460 0.852284 0.983302 0.111378
H47   H     H_    0.359010 0.963340 0.516551 0.112041
H48   H     H_    0.644769 0.016238 0.483274 0.112106
H49   H     H_    0.970793 0.357215 0.516921 0.111950
H50   H     H_    0.048380 0.637447 0.483535 0.112114
H51   H     H_    0.640992 0.036658 0.516620 0.112036
H52   H     H_    0.951449 0.364413 0.444241 0.167576
H53   H     H_    0.355232 0.983761 0.483202 0.112105
H54   H     H_    0.029187 0.642755 0.516939 0.111957
H55   H     H_    0.951704 0.362509 0.483499 0.112110
H56   H     H_    0.542223 0.120687 0.328823 0.107114
H57   H     H_    0.504981 0.161293 0.350141 0.127307
H58   H     H_    0.485804 0.169038 0.321662 0.148659
H59   H     H_    0.419350 0.093815 0.674407 0.101274
H60   H     H_    0.429653 0.140185 0.650507 0.117493
H61   H     H_    0.450694 0.163232 0.677550 0.150183
H62   H     H_    0.913435 0.586907 0.324829 0.100737
H63   H     H_    0.027894 0.641280 0.556199 0.165449
H64   H     H_    0.867663 0.582281 0.349153 0.117053
H65   H     H_    0.841260 0.562038 0.322472 0.150918
H66   H     H_    0.917456 0.626844 0.649793 0.161511
H67   H     H_    0.954982 0.614288 0.675876 0.096742
H68   H     H_    0.878901 0.623295 0.675405 0.141701
H69   H     H_    0.457773 0.879314 0.328801 0.107311
H70   H     H_    0.495010 0.838708 0.350139 0.127181
H71   H     H_    0.514190 0.830961 0.321669 0.148671
H72   H     H_    0.580654 0.906189 0.674449 0.101548
H73   H     H_    0.570357 0.859820 0.650543 0.117367
H74   H     H_    0.643212 0.015064 0.444010 0.167687
H75   H     H_    0.549313 0.836770 0.677575 0.150251
H76   H     H_    0.086644 0.413106 0.324842 0.100669
H77   H     H_    0.132469 0.417732 0.349174 0.117069
H78   H     H_    0.158811 0.437986 0.322498 0.150881
H79   H     H_    0.082403 0.373119 0.649818 0.161485
H80   H     H_    0.044929 0.385690 0.675894 0.096716
H81   H     H_    0.121008 0.376667 0.675439 0.141678
H82   H     H_    0.081557 0.592838 0.825486 0.101757
H83   H     H_    0.072056 0.639159 0.849450 0.117151
H84   H     H_    0.051099 0.662683 0.822458 0.149561
H85   H     H_    0.360886 0.962797 0.555814 0.167272
H86   H     H_    0.959028 0.621208 0.171109 0.106602
H87   H     H_    0.996930 0.661443 0.149860 0.126341
H88   H     H_    0.015968 0.668844 0.178367 0.147587
H89   H     H_    0.395375 0.887684 0.850064 0.160027
H90   H     H_    0.435273 0.893092 0.824163 0.091450
H91   H     H_    0.358844 0.898546 0.824297 0.144177
H92   H     H_    0.386862 0.940988 0.172785 0.097241
H93   H     H_    0.343369 0.967152 0.149890 0.123882
H94   H     H_    0.329295 0.989918 0.177613 0.150009
H95   H     H_    0.918441 0.407164 0.825444 0.101971
H96   H     H_    0.048726 0.635536 0.444278 0.167573
H97   H     H_    0.927937 0.360844 0.849414 0.118364
H98   H     H_    0.948896 0.337317 0.822433 0.150912
H99   H     H_    0.040977 0.378795 0.171130 0.107269
H100  H     H_    0.003078 0.338560 0.149862 0.127267
H101  H     H_    0.984037 0.331156 0.178358 0.148674
H102  H     H_    0.613141 0.940991 0.827215 0.097432
H103  H     H_    0.656632 0.967155 0.850110 0.124462
H104  H     H_    0.670705 0.989922 0.822387 0.150515
H105  H     H_    0.604630 0.887686 0.149937 0.160621
H106  H     H_    0.564731 0.893094 0.175838 0.091567
H107  H     H_    0.971987 0.358703 0.556181 0.165441
H108  H     H_    0.641160 0.898550 0.175704 0.144294
H109  H     H_    0.542990 0.120302 0.386723 0.106343
H110  H     H_    0.498336 0.112462 0.411256 0.143444
H111  H     H_    0.488331 0.171415 0.392945 0.133961
H112  H     H_    0.416570 0.095519 0.612882 0.105149
H113  H     H_    0.461190 0.106403 0.588547 0.142295
H114  H     H_    0.448114 0.163798 0.607342 0.135675
H115  H     H_    0.911544 0.590804 0.386983 0.105601
H116  H     H_    0.897144 0.547444 0.411390 0.142125
H117  H     H_    0.840984 0.564843 0.392542 0.137081
H118  H     H_    0.861292 0.538700 0.944121 0.167249
H119  H     H_    0.847782 0.486998 0.632465 0.156832
H120  H     H_    0.880606 0.462024 0.606810 0.138591
H121  H     H_    0.827651 0.517358 0.606355 0.142374
H122  H     H_    0.457007 0.879697 0.386702 0.106329
H123  H     H_    0.501662 0.887535 0.411257 0.143447
H124  H     H_    0.511666 0.828583 0.392951 0.133969
H125  H     H_    0.583436 0.904483 0.612924 0.105118
H126  H     H_    0.538818 0.893596 0.588567 0.142301
H127  H     H_    0.551893 0.836202 0.607369 0.135673
H128  H     H_    0.088656 0.409175 0.386993 0.105592
N1    N     N_R   0.499999 0.999999 0.406493 -0.380119
N2    N     N_R   0.500002 1.000000 0.593330 -0.379714
N3    N     N_R   0.000109 0.499978 0.406748 -0.379825
N4    N     N_R   0.999909 0.499993 0.593688 -0.352653
N5    N     N_R   0.999998 0.499999 0.906673 -0.379769
N6    N     N_R   0.000001 0.500002 0.093513 -0.380061
N7    N     N_R   0.498497 0.997514 0.906529 -0.368558
N8    N     N_R   0.501504 0.997514 0.093471 -0.368639
O1    O     O_3   0.500000 0.000000 0.250000 -0.405528
O2    O     O_R   0.455820 0.000000 0.799650 -0.492937
O3    O     O_3   0.600059 0.971476 0.117966 -0.522396
O4    O     O_R   1.000000 0.544180 0.200350 -0.512121
O5    O     O_R   0.000000 0.455820 0.799650 -0.502437
O6    O     O_R   0.955820 0.500000 0.700350 -0.500565
O7    O     O_R   0.044180 0.500000 0.299650 -0.502610
O8    O     O_R   0.500000 0.955820 0.700350 -0.502732
O9    O     O_R   0.500000 0.044180 0.299650 -0.512360
O10   O     O_R   0.044180 0.500000 0.700350 -0.500346
O11   O     O_R   0.955820 0.500000 0.299650 -0.502409
O12   O     O_R   0.500000 0.044180 0.700350 -0.503636
O13   O     O_3   0.500000 1.000000 0.750000 -0.407512
O14   O     O_R   0.500000 0.955820 0.299650 -0.511466
O15   O     O_R   0.605910 0.938190 0.237190 -0.527690
O16   O     O_R   0.394090 0.061810 0.762810 -0.517077
O17   O     O_R   0.061810 0.605910 0.237190 -0.523313
O18   O     O_R   0.938190 0.394090 0.762810 -0.534108
O19   O     O_R   0.394090 0.061810 0.237190 -0.518087
O20   O     O_R   0.605910 0.938190 0.762810 -0.534570
O21   O     O_R   0.938190 0.394090 0.237190 -0.523049
O22   O     O_R   0.061810 0.605910 0.762810 -0.534590
O23   O     O_R   0.605910 0.061810 0.762810 -0.519490
O24   O     O_3   1.000000 0.500000 0.250000 -0.405556
O25   O     O_R   0.394090 0.938190 0.237190 -0.534430
O26   O     O_R   0.061810 0.394090 0.762810 -0.517915
O27   O     O_R   0.938190 0.605910 0.237190 -0.533301
O28   O     O_R   0.394090 0.938190 0.762810 -0.529024
O29   O     O_R   0.605910 0.061810 0.237190 -0.517002
O30   O     O_R   0.938190 0.605910 0.762810 -0.518281
O31   O     O_R   0.061810 0.394090 0.237190 -0.532720
O32   O     O_R   0.105910 0.438190 0.737190 -0.523974
O33   O     O_R   0.894090 0.561810 0.262810 -0.529464
O34   O     O_R   0.561810 0.105910 0.737190 -0.517728
O35   O     O_3   0.000000 0.500000 0.750000 -0.408994
O36   O     O_R   0.438190 0.894090 0.262810 -0.532809
O37   O     O_R   0.894090 0.561810 0.737190 -0.523794
O38   O     O_R   0.105910 0.438190 0.262810 -0.529696
O39   O     O_R   0.438190 0.894090 0.737190 -0.517552
O40   O     O_R   0.561810 0.105910 0.262810 -0.534728
O41   O     O_R   0.105910 0.561810 0.262810 -0.517610
O42   O     O_R   0.894090 0.438190 0.737190 -0.520965
O43   O     O_R   0.561810 0.894090 0.262810 -0.521366
O44   O     O_R   0.438190 0.105910 0.737190 -0.533787
O45   O     O_R   0.894090 0.438190 0.262810 -0.517785
O46   O     O_R   0.455820 0.000000 0.200350 -0.513694
O47   O     O_R   0.105910 0.561810 0.737190 -0.520739
O48   O     O_R   0.438190 0.105910 0.262810 -0.521553
O49   O     O_R   0.561810 0.894090 0.737190 -0.531856
O50   O     O_2   0.399975 0.989773 0.406257 -0.479221
O51   O     O_2   0.597049 0.026297 0.593565 -0.480888
O52   O     O_2   0.965916 0.405396 0.406545 -0.479863
O53   O     O_2   0.018690 0.598768 0.593910 -0.501176
O54   O     O_2   0.600024 0.010224 0.406307 -0.479178
O55   O     O_2   0.402956 0.973703 0.593517 -0.480814
O56   O     O_2   0.034312 0.594556 0.406570 -0.479826
O57   O     O_R   0.544180 0.000000 0.799650 -0.513190
O58   O     O_2   0.981123 0.401220 0.593897 -0.501215
O59   O     O_2   0.903241 0.527344 0.906438 -0.480790
O60   O     O_2   0.099911 0.488714 0.093748 -0.478918
O61   O     O_2   0.492134 0.897133 0.906420 -0.496979
O62   O     O_2   0.495833 0.097910 0.093752 -0.476237
O63   O     O_2   0.096755 0.472653 0.906486 -0.480343
O64   O     O_2   0.900090 0.511289 0.093699 -0.479478
O65   O     O_2   0.504161 0.097910 0.906247 -0.476819
O66   O     O_2   0.507872 0.897133 0.093580 -0.496402
O67   O     O_3   0.458025 0.094721 0.336190 -0.507943
O68   O     O_R   1.000000 0.455820 0.200350 -0.511980
O69   O     O_3   0.504021 0.103851 0.663408 -0.497950
O70   O     O_3   0.896214 0.504156 0.336637 -0.497297
O71   O     O_3   0.906821 0.545739 0.663747 -0.530372
O72   O     O_3   0.541971 0.905277 0.336211 -0.507594
O73   O     O_3   0.495985 0.896149 0.663406 -0.497741
O74   O     O_3   0.103880 0.495857 0.336657 -0.497313
O75   O     O_3   0.093080 0.454226 0.663771 -0.530331
O76   O     O_3   0.997118 0.603893 0.836597 -0.498161
O77   O     O_3   0.042973 0.594260 0.163826 -0.507744
O78   O     O_3   0.400514 0.969426 0.836197 -0.525876
O79   O     O_R   1.000000 0.544180 0.799650 -0.502592
O80   O     O_3   0.399951 0.026656 0.163346 -0.499341
O81   O     O_3   0.002878 0.396105 0.836598 -0.497755
O82   O     O_3   0.957031 0.405740 0.163804 -0.507492
O83   O     O_3   0.600047 0.026659 0.836654 -0.499702
O84   O     O_3   0.599487 0.969428 0.163803 -0.526361
O85   O     O_3   0.456567 0.094831 0.381730 -0.500980
O86   O     O_3   0.506241 0.104107 0.618098 -0.497680
O87   O     O_3   0.895851 0.502011 0.381928 -0.497393
O88   O     O_3   0.906274 0.542875 0.617738 -0.527276
O89   O     O_3   0.543430 0.905166 0.381751 -0.500938
O90   O     O_R   0.544180 0.000000 0.200350 -0.493587
O91   O     O_3   0.493765 0.895893 0.618096 -0.497652
O92   O     O_3   0.104332 0.497970 0.381950 -0.497381
O93   O     O_3   0.093564 0.457099 0.617764 -0.527292
O94   O     O_3   0.994890 0.604167 0.881903 -0.498167
O95   O     O_3   0.044421 0.594375 0.118278 -0.500830
O96   O     O_3   0.399942 0.971474 0.882034 -0.522682
O97   O     O_3   0.400041 0.025935 0.117859 -0.499946
O98   O     O_3   0.005106 0.395830 0.881905 -0.497609
O99   O     O_3   0.955581 0.405628 0.118256 -0.500352
O100  O     O_3   0.599957 0.025937 0.882141 -0.500278
Zn1   Zn    Zn3+2 0.500000 0.937230 0.268990 0.961682
Zn2   Zn    Zn3+2 0.000000 0.562770 0.231010 0.963977
Zn3   Zn    Zn3+2 0.562770 0.000000 0.768990 0.960823
Zn4   Zn    Zn3+2 0.437230 1.000000 0.231010 0.963032
Zn5   Zn    Zn3+2 1.000000 0.562770 0.768990 0.965589
Zn6   Zn    Zn3+2 0.000000 0.437230 0.231010 0.964836
Zn7   Zn    Zn3+2 0.437230 0.000000 0.768990 0.975989
Zn8   Zn    Zn3+2 0.562770 1.000000 0.231010 0.977989
Zn9   Zn    Zn3+2 0.500000 0.062770 0.731010 0.971026
Zn10  Zn    Zn3+2 0.062770 0.500000 0.268990 0.971187
Zn11  Zn    Zn3+2 0.937230 0.500000 0.731010 0.970952
Zn12  Zn    Zn3+2 0.500000 0.062770 0.268990 0.968354
Zn13  Zn    Zn3+2 0.500000 0.937230 0.731010 0.964365
Zn14  Zn    Zn3+2 0.937230 0.500000 0.268990 0.971051
Zn15  Zn    Zn3+2 0.062770 0.500000 0.731010 0.970870
Zn16  Zn    Zn3+2 1.000000 0.437230 0.768990 0.966473

loop_
_geom_bond_atom_site_label_1
_geom_bond_atom_site_label_2
_ccdc_geom_bond_type
C103  O96   S    
C7    O22   A    
C74   C124  A    
C150  H110  S    
C100  O94   S    
C132  H57   S    
C80   O60   S    
O35   Zn11  S    
C248  O17   A    
C154  O89   S    
O47   Zn15  S    
C247  O16   A    
C82   N8    A    
C78   C167  A    
C91   C127  A    
C14   C21   S    
C35   C221  A    
O5    Zn16  S    
C232  H42   S    
C154  H124  S    
C92   C109  A    
C194  C197  S    
C72   C101  A    
C72   O52   S    
C167  C185  A    
O1    Zn1   S    
C162  H19   S    
C172  C199  S    
C2    C90   A    
C236  H46   S    
C133  H59   S    
C36   C53   S    
C237  H47   S    
O45   Zn14  S    
C38   C55   S    
C114  C197  A    
C83   C171  A    
C211  C237  A    
C3    O42   A    
C74   O54   S    
C81   C169  A    
C48   C65   S    
C194  O10   A    
C166  O3    S    
C111  C196  A    
C186  C233  A    
C73   N4    A    
C128  N5    S    
C90   C177  A    
C76   C146  A    
C106  O73   S    
C209  C222  A    
C159  H8    S    
C55   C65   T    
O26   Zn16  S    
C213  C219  A    
C15   C20   S    
O57   Zn3   S    
C115  C198  A    
C40   C58   S    
C163  H22   S    
C164  H25   S    
C144  H92   S    
C46   C220  A    
C169  C187  A    
C92   C123  A    
C47   C64   S    
C15   O37   A    
O14   Zn1   S    
C147  H100  S    
C153  H120  S    
C112  O2    A    
C187  H13   S    
O13   Zn13  S    
C7    C28   S    
C205  O11   A    
O36   Zn1   S    
C182  H96   S    
C209  C235  A    
O24   Zn14  S    
O35   Zn5   S    
O19   Zn4   S    
C240  H49   S    
C75   O55   S    
C189  H34   S    
C12   O39   A    
C148  H104  S    
C104  O97   S    
C195  C216  S    
C106  C195  A    
C134  H62   S    
C176  C243  A    
C212  C225  A    
C83   O63   S    
C113  C179  A    
C108  O75   S    
O1    Zn12  S    
C214  C218  A    
C138  O73   S    
C231  H40   S    
C33   C51   T    
C17   C34   T    
C84   C173  A    
C103  C121  A    
C145  H97   S    
C43   C61   S    
C118  O84   S    
C57   C223  A    
C150  O85   S    
C131  N8    S    
C227  O9    A    
C116  O82   S    
C70   C79   A    
C68   C222  A    
C151  H112  S    
C16   O38   A    
O4    Zn2   S    
C154  H122  S    
O29   Zn8   S    
C241  H50   S    
O13   Zn3   S    
C163  O98   S    
O27   Zn2   S    
C177  H41   S    
C23   C41   T    
O9    Zn12  S    
C142  H86   S    
C189  C230  A    
C152  H115  S    
C81   N7    A    
C16   O31   A    
C83   N5    A    
C11   C23   S    
C153  O88   S    
O32   Zn15  S    
C144  H93   S    
C103  C130  A    
C1    O46   A    
C212  C239  A    
C115  O81   S    
C14   O29   A    
C8    O23   A    
C139  H76   S    
C140  O75   S    
C110  C195  A    
C70   O50   S    
C51   C69   S    
C145  H95   S    
C4    O19   A    
C218  C226  A    
C138  H72   S    
C94   O87   S    
O18   Zn16  S    
C192  C231  A    
O17   Zn2   S    
C77   O58   S    
C119  C198  A    
C173  C190  A    
C164  H27   S    
C247  O44   A    
C156  H3    S    
C29   C47   T    
C122  C201  A    
C30   C48   T    
C97   O99   S    
C179  H63   S    
C72   N3    A    
C85   N7    A    
C104  C122  A    
C12   C22   S    
C120  C199  A    
C88   C106  A    
C190  H35   S    
C33   C248  S    
C202  C220  A    
C108  C197  A    
C101  C178  A    
C183  O5    A    
C76   N3    A    
C27   C44   T    
C161  H17   S    
C104  C131  A    
C147  H101  S    
C230  H39   S    
C56   C64   T    
O25   Zn4   S    
C109  C193  A    
C213  C226  A    
C157  C184  A    
C218  C244  A    
C219  C228  A    
C159  O94   S    
C19   C37   T    
C50   C67   S    
O44   Zn9   S    
C159  H9    S    
C188  H24   S    
C89   O92   S    
C160  H14   S    
C70   N1    A    
C85   O65   S    
C137  H69   S    
C107  C196  A    
C84   O64   S    
C136  H67   S    
C242  H51   S    
O37   Zn11  S    
C168  C186  A    
C49   C66   S    
C151  H113  S    
C160  O95   S    
C193  C227  S    
C3    O18   A    
C4    O48   A    
C175  C192  A    
C116  C199  A    
C24   C157  A    
C239  H48   S    
C76   O56   S    
C160  H11   S    
C163  H23   S    
C144  O80   S    
C158  H6    S    
C88   C125  A    
C124  C238  A    
C161  H15   S    
C87   C105  A    
C212  C215  A    
C10   O26   A    
C2    C224  A    
C85   C174  A    
C140  H80   S    
O35   Zn16  S    
C100  C119  A    
C188  C235  A    
C202  C229  A    
C10   C25   S    
C229  H38   S    
C143  H90   S    
C210  C236  A    
O41   Zn10  S    
O31   Zn6   S    
C135  C181  A    
C182  C241  A    
C166  H31   S    
C129  N6    S    
C207  C233  A    
C5    C30   S    
C142  O77   S    
C71   O51   S    
C136  O71   S    
O13   Zn9   S    
C205  O7    A    
O16   Zn7   S    
C100  C128  A    
C79   C176  A    
C105  O72   S    
C150  H111  S    
C132  H58   S    
C151  O86   S    
C7    O47   A    
C203  C230  A    
C181  H85   S    
C54   C66   T    
C244  H54   S    
C91   O93   S    
C174  C191  A    
C227  O14   A    
O21   Zn6   S    
C203  C221  A    
C204  C210  A    
C142  H87   S    
C82   O62   S    
C110  O69   S    
C87   C123  A    
C71   C90   A    
O46   Zn4   S    
C162  H20   S    
C112  C200  S    
C123  N1    S    
C98   O100  S    
C84   N6    A    
C53   C67   T    
C152  O87   S    
C139  H78   S    
O10   Zn15  S    
C86   N8    A    
C143  O78   S    
C122  O80   S    
C180  H74   S    
C155  H126  S    
C170  C188  A    
C216  O12   A    
C79   C238  A    
C137  H71   S    
C165  O100  S    
C217  C225  A    
C9    O36   A    
O49   Zn13  S    
C139  H77   S    
C35   C171  A    
C137  O72   S    
C213  C240  A    
C1    C201  S    
C215  C224  A    
C82   C170  A    
C92   O85   S    
C156  O92   S    
C149  H106  S    
C5    O49   A    
C207  C220  A    
C46   C168  A    
O8    Zn13  S    
C163  H21   S    
C164  H26   S    
C191  H36   S    
C114  O71   S    
O30   Zn5   S    
C75   C135  A    
C172  O68   A    
C147  H99   S    
C153  H119  S    
O28   Zn7   S    
C181  C237  A    
C10   O32   A    
O2    Zn7   S    
C162  O97   S    
C73   C113  A    
C141  H82   S    
C96   C128  A    
C86   C175  A    
C134  O70   S    
O11   Zn14  S    
C133  O69   S    
C52   C69   T    
C184  H107  S    
C93   O86   S    
C68   C170  A    
O23   Zn3   S    
C119  O76   S    
C215  C242  A    
C233  H43   S    
C234  H44   S    
C165  H30   S    
C187  C236  A    
C99   O3    S    
C245  H55   S    
C185  C234  A    
C77   N4    A    
C8    O34   A    
C138  H75   S    
C225  C238  A    
C6    O21   A    
C150  H109  S    
C31   C49   T    
C133  H61   S    
C68   C175  A    
O24   Zn2   S    
C89   C126  A    
C87   O89   S    
C211  C217  A    
C183  C198  S    
C146  C182  A    
C206  C232  A    
O40   Zn12  S    
C176  H1    S    
C154  H123  S    
C152  H117  S    
C136  H66   S    
C78   N5    A    
C162  H18   S    
C8    C18   S    
C60   C61   T    
O15   Zn8   S    
C133  H60   S    
C152  H116  S    
C172  O4    A    
C178  C245  A    
C183  O79   A    
C71   N2    A    
C149  O84   S    
C94   C111  A    
C93   C110  A    
C98   C130  A    
C46   C173  A    
O20   Zn3   S    
C97   C116  A    
C144  H94   S    
C134  H65   S    
C117  C200  A    
C246  O43   A    
C161  O96   S    
C102  C120  A    
C26   C247  S    
C149  H108  S    
C143  H91   S    
C210  C223  A    
C204  C222  A    
C91   C108  A    
C2    C135  A    
C165  H29   S    
C126  N3    S    
C25   C42   T    
C156  H4    S    
C1    O90   A    
C153  H121  S    
O38   Zn10  S    
C147  O82   S    
C34   C52   S    
C185  H118  S    
C180  C239  A    
C141  H84   S    
C11   O27   A    
C190  C229  A    
C204  C231  A    
C9    O25   A    
C5    O20   A    
C95   O88   S    
O68   Zn6   S    
C121  O78   S    
C16   C19   S    
C211  C224  A    
C148  H103  S    
C165  H28   S    
C3    C32   S    
C93   C125  A    
C248  O41   A    
C186  H2    S    
C4    C31   S    
O90   Zn8   S    
C57   C174  A    
C95   C127  A    
C6    C29   S    
O24   Zn6   S    
C107  O74   S    
C127  N4    S    
C132  H56   S    
C138  H73   S    
C178  H52   S    
C18   C36   T    
C145  H98   S    
C96   O98   S    
O42   Zn11  S    
O43   Zn1   S    
C155  H127  S    
C73   O53   S    
O6    Zn11  S    
C206  C209  A    
C102  C129  A    
C13   C228  A    
C235  H45   S    
C121  C200  A    
C136  H68   S    
C105  C193  A    
O1    Zn4   S    
C81   O61   S    
C214  C241  A    
C158  O93   S    
C149  H105  S    
C14   O40   A    
C160  H12   S    
C171  C189  A    
C216  O8    A    
C246  O15   A    
C196  C205  S    
C158  H7    S    
C134  H64   S    
C39   C56   S    
C191  C232  A    
O39   Zn13  S    
C139  O74   S    
C35   C167  A    
C219  C245  A    
C96   C115  A    
O35   Zn15  S    
C184  C240  A    
C214  C228  A    
C179  C244  A    
C88   O91   S    
C177  C242  A    
C24   C113  A    
C143  H89   S    
C202  C208  A    
C130  N7    S    
C89   C107  A    
C80   N6    A    
C13   C146  A    
C24   C226  A    
C166  H32   S    
C26   C43   T    
C109  O67   S    
C164  O99   S    
C57   C169  A    
C94   C126  A    
C80   C168  A    
C28   C45   T    
O1    Zn8   S    
C74   N1    A    
C41   C59   S    
C27   C246  S    
C42   C60   S    
O34   Zn9   S    
C78   O59   S    
C44   C62   S    
C208  C221  A    
C203  C207  A    
C45   C63   S    
C141  H83   S    
C217  C243  A    
C142  H88   S    
C156  H128  S    
C75   N2    A    
C20   C38   T    
C21   C39   T    
C141  O76   S    
C206  C223  A    
O13   Zn7   S    
C22   C40   T    
C140  H81   S    
C32   C50   T    
O33   Zn14  S    
C120  O77   S    
C9    C17   S    
O48   Zn12  S    
C159  H10   S    
C95   C114  A    
C155  H125  S    
C111  O70   S    
C118  C201  A    
C13   C101  A    
C137  H70   S    
C208  C234  A    
C11   O33   A    
O79   Zn5   S    
C98   C117  A    
C6    O45   A    
C58   C63   T    
C59   C62   T    
C151  H114  S    
C192  H37   S    
C132  O67   S    
C155  O91   S    
O22   Zn5   S    
C37   C54   S    
C166  H33   S    
O7    Zn10  S    
C99   C131  A    
C158  H5    S    
C97   C129  A    
C99   C118  A    
C161  H16   S    
C12   O28   A    
O12   Zn9   S    
C140  H79   S    
C102  O95   S    
C145  O81   S    
C124  C180  A    
C117  O83   S    
O24   Zn10  S    
C15   O30   A    
C243  H53   S    
C148  O83   S    
C125  N2    S    
C112  O57   A    
C148  H102  S    
C194  O6    A    
C86   O66   S    
C77   C157  A    
