data_mof_unit_31080.cif
_audit_creation_date              2012-12-11T16:26:54-0500
_audit_creation_method            fapswitch 2.2
_symmetry_space_group_name_H-M    P1
_symmetry_Int_Tables_number       1
_space_group_crystal_system       triclinic
_cell_length_a                    8.665309
_cell_length_b                    17.570977
_cell_length_c                    18.775003
_cell_angle_alpha                 96.554568
_cell_angle_beta                  92.167701
_cell_angle_gamma                 97.263432
_cell_volume                      2813.20503816

loop_
_atom_site_label
_atom_site_type_symbol
_atom_type_description
_atom_site_fract_x
_atom_site_fract_y
_atom_site_fract_z
_atom_type_partial_charge
Ba1   Ba    Ba6+2 0.848080 0.535720 0.465810 1.533960
Ba2   Ba    Ba6+2 0.341750 0.464340 0.534200 1.525626
C1    C     C_3   0.665033 0.731703 0.145772 -0.216440
C2    C     C_3   0.617083 0.705122 0.217509 0.751221
C3    C     C_3   0.432872 0.318521 0.310115 0.518843
C4    C     C_3   0.365061 0.265383 0.242753 0.362131
C5    C     C_3   0.955585 0.245354 0.706555 0.144262
C6    C     C_3   0.965069 0.233495 0.785554 -0.627571
C7    C     C_3   0.444288 0.339586 0.808319 0.868782
C8    C     C_3   0.462894 0.369223 0.889839 0.324460
C9    C     C_2   0.303339 0.493866 0.285769 -0.164954
C10   C     C_3   0.390430 0.553461 0.246225 -0.068644
C11   C     C_2   0.353237 0.532855 0.165996 -0.176723
C12   C     C_3   0.007984 0.780805 0.318589 0.499979
C13   C     C_2   0.209197 0.495913 0.142647 0.007996
C14   C     C_2   0.101921 0.468208 0.198922 -0.197823
C15   C     C_1   0.156356 0.469566 0.266711 -0.054681
C16   C     C_R   0.064137 0.468386 0.921369 0.338340
C17   C     C_R   0.158878 0.484023 0.064011 0.344255
C18   C     C_R   0.103477 0.504227 0.795427 -0.172573
C19   C     C_R   0.037929 0.521199 0.730316 -0.051902
C20   C     C_R   0.786947 0.457240 0.755817 0.045313
C21   C     C_R   0.850495 0.439247 0.821285 -0.234635
C22   C     C_R   0.006843 0.468367 0.844682 -0.009980
C23   C     C_3   0.979042 0.854287 0.286770 -0.704773
C24   C     C_R   0.879700 0.504273 0.715716 -0.196715
C25   C     C_R   0.412926 0.722400 0.482420 0.147824
C26   C     C_R   0.562024 0.747584 0.511813 -0.129456
C27   C     C_R   0.627425 0.826225 0.512476 0.209922
C28   C     C_R   0.532132 0.879317 0.486691 -0.008051
C29   C     C_R   0.382105 0.850997 0.456083 -0.393058
C30   C     C_R   0.325568 0.772186 0.452479 0.041518
C31   C     C_R   0.584866 0.166446 0.486452 -0.137279
C32   C     C_R   0.640609 0.245429 0.489824 -0.028730
C33   C     C_R   0.890922 0.221722 0.541233 0.010692
C34   C     C_3   0.131013 0.715558 0.706048 0.754768
C35   C     C_R   0.834106 0.142510 0.537502 -0.369448
C36   C     C_R   0.681271 0.114390 0.509614 0.070666
C37   C     C_1   0.624850 0.031957 0.502349 -0.082866
C38   C     C_1   0.580585 0.962794 0.495417 -0.029515
C39   C     C_R   0.794978 0.272222 0.515543 0.221052
C40   C     C_3   0.144725 0.705921 0.786901 0.716997
C41   C     C_3   0.867614 0.296582 0.321004 0.473721
C42   C     C_3   0.830199 0.280987 0.239797 -0.856654
C43   C     C_3   0.708316 0.755975 0.683590 0.558595
C44   C     C_3   0.568479 0.801644 0.690277 0.006023
H1    H     H_    0.058937 0.656174 0.796539 1.190607
H2    H     H_    0.784684 0.333064 0.345027 0.192161
H3    H     H_    0.810273 0.335255 0.218097 0.238206
H4    H     H_    0.723749 0.238629 0.228240 0.233328
H5    H     H_    0.926946 0.257092 0.211733 0.221742
H6    H     H_    0.793859 0.787178 0.652163 0.096064
H7    H     H_    0.791302 0.753808 0.149197 0.149603
H8    H     H_    0.487636 0.785484 0.642209 0.094993
H9    H     H_    0.503327 0.787340 0.737868 0.168159
H10   H     H_    0.491398 0.682435 0.209465 -0.048920
H11   H     H_    0.598374 0.779131 0.133350 0.116855
H12   H     H_    0.335027 0.340733 0.339059 0.056106
H13   H     H_    0.462492 0.243588 0.213285 0.159253
H14   H     H_    0.962569 0.842931 0.227508 0.172185
H15   H     H_    0.917629 0.302931 0.703112 0.147260
H16   H     H_    0.867787 0.198594 0.679417 0.061520
H17   H     H_    0.026098 0.286131 0.818060 0.219310
H18   H     H_    0.845653 0.222945 0.804960 0.167491
H19   H     H_    0.026012 0.182872 0.793247 0.207522
H20   H     H_    0.344289 0.374216 0.909208 0.153547
H21   H     H_    0.906604 0.735854 0.304972 0.163648
H22   H     H_    0.435532 0.554282 0.128546 0.176405
H23   H     H_    0.982597 0.443633 0.183446 0.145336
H24   H     H_    0.226234 0.522118 0.808777 0.144336
H25   H     H_    0.780004 0.405670 0.854955 0.184662
H26   H     H_    0.359132 0.473073 0.330642 0.024258
H27   H     H_    0.828572 0.525621 0.669624 0.013130
H28   H     H_    0.468940 0.145217 0.463177 0.102184
H29   H     H_    0.306612 0.890585 0.438348 0.161398
H30   H     H_    0.908101 0.103325 0.557092 0.136046
H31   H     H_    0.874257 0.876605 0.308882 0.209891
H32   H     H_    0.080537 0.899661 0.300570 0.200428
H33   H     H_    0.006421 0.705034 0.686384 -0.136862
N1    N     N_R   0.208686 0.503844 0.944954 -0.244362
N2    N     N_R   0.255010 0.511271 0.014350 -0.216603
N3    N     N_R   0.014581 0.447940 0.040505 -0.192497
N4    N     N_R   0.968219 0.440510 0.970957 -0.207812
O1    O     O_2   0.870670 0.457200 0.328780 -0.471720
O2    O     O_3   0.669196 0.679551 0.649376 -0.633603
O3    O     O_3   0.014763 0.798299 0.393854 -0.584136
O4    O     O_2   0.319030 0.542820 0.671260 -0.401745
O5    O     O_3   0.066510 0.541590 0.583850 -0.503130
O6    O     O_3   0.544220 0.404070 0.628440 -0.449921
O7    O     O_3   0.213416 0.664833 0.663328 -0.591805
O8    O     O_3   0.618730 0.408150 0.464380 -0.520210
O9    O     O_3   0.124970 0.364690 0.593190 -0.457990
O10   O     O_2   0.220279 0.228216 0.551033 -0.493809
O11   O     O_3   0.100493 0.240956 0.675949 -0.515635
O12   O     O_3   0.123190 0.458470 0.416160 -0.484778
O13   O     O_3   0.570980 0.591910 0.535630 -0.441120
O14   O     O_2   0.357950 0.313790 0.466200 -0.466828
O15   O     O_3   0.519426 0.275889 0.351651 -0.608896
O16   O     O_2   0.556315 0.523081 0.723738 -0.471404
O17   O     O_3   0.420865 0.403268 0.770349 -0.539537
O18   O     O_3   0.645490 0.595990 0.371560 -0.511663
O19   O     O_2   0.683221 0.505570 0.249949 -0.417040
O20   O     O_3   0.021707 0.333077 0.336320 -0.580266
O21   O     O_3   0.709528 0.648009 0.233566 -0.577338
O22   O     O_2   0.831760 0.686240 0.533840 -0.449628
O23   O     O_3   0.064740 0.635370 0.406810 -0.481867
O24   O     O_2   0.075436 0.748225 0.514227 -0.457234
P1    P     P_3+3 0.041170 0.434790 0.339740 1.026792
P2    P     P_3+3 0.658290 0.675180 0.554960 1.123624
P3    P     P_3+3 0.119670 0.735937 0.435746 1.118620
P4    P     P_3+3 0.148540 0.565270 0.660270 1.023689
P5    P     P_3+3 0.083428 0.263054 0.587353 1.061391
P6    P     P_3+3 0.603756 0.576386 0.276730 1.014885
P7    P     P_3+3 0.531360 0.310856 0.443485 1.031772
P8    P     P_3+3 0.580187 0.437545 0.721615 1.115020
O25   O     O_3   0.648332 0.768697 0.271758 -0.694479
C45   C     C_3   0.512031 0.801024 0.288680 0.055464
H34   H     H_    0.435022 0.760561 0.316974 0.090249
H35   H     H_    0.450234 0.815757 0.240087 0.049619
H36   H     H_    0.544677 0.855271 0.325295 0.094449
O26   O     O_3   0.298224 0.692616 0.805275 -0.667666
C46   C     C_3   0.314274 0.682183 0.878551 0.093216
H37   H     H_    0.332147 0.739103 0.912270 0.070678
H38   H     H_    0.419022 0.653290 0.886964 0.072100
H39   H     H_    0.212988 0.645176 0.896663 0.035290
O27   O     O_3   0.109341 0.773575 0.827348 -0.741370
H40   H     H_    0.053255 0.757748 0.869522 0.270846
O28   O     O_3   0.839557 0.227431 0.353709 -0.610512
C47   C     C_3   0.958479 0.180015 0.343296 0.332213
H41   H     H_    0.070036 0.207976 0.371331 0.094190
H42   H     H_    0.972828 0.162982 0.285435 0.050324
H43   H     H_    0.924271 0.126101 0.367561 -0.000557
O29   O     O_3   0.782121 0.757457 0.752758 -0.666736
C48   C     C_3   0.719329 0.695760 0.789513 0.225028
H44   H     H_    0.590772 0.682475 0.781582 0.100116
H45   H     H_    0.747724 0.711578 0.847836 0.005072
H46   H     H_    0.773920 0.643443 0.772190 0.041981
O30   O     O_3   0.625864 0.881321 0.698245 -0.606790
C49   C     C_3   0.501133 0.925305 0.696820 0.249106
H47   H     H_    0.425607 0.916079 0.742471 0.063494
H48   H     H_    0.432601 0.912356 0.644566 0.041814
H49   H     H_    0.549298 0.987395 0.702693 0.033128
O31   O     O_3   0.532826 0.378928 0.288127 -0.696785
H50   H     H_    0.573248 0.412749 0.332407 0.302059
O32   O     O_3   0.266728 0.202287 0.262247 -0.745859
H51   H     H_    0.237371 0.166782 0.217443 0.307432
O33   O     O_3   0.284271 0.306112 0.196732 -0.676110
H52   H     H_    0.186743 0.316224 0.219706 0.319406
O34   O     O_3   0.634375 0.669810 0.090981 -0.691337
H53   H     H_    0.666425 0.690632 0.046053 0.312306
O35   O     O_3   0.574586 0.302373 0.785471 -0.693357
C50   C     C_3   0.538809 0.252585 0.720251 0.168587
H54   H     H_    0.642668 0.254419 0.688003 0.059517
H55   H     H_    0.444538 0.269402 0.685672 0.117016
H56   H     H_    0.506600 0.192336 0.732120 0.033847
O36   O     O_3   0.306929 0.286620 0.798494 -0.717713
H57   H     H_    0.323830 0.241802 0.824321 0.299947
O37   O     O_3   0.527801 0.316317 0.929043 -0.697488
H58   H     H_    0.641268 0.321974 0.921900 0.342330
O38   O     O_3   0.550029 0.442899 0.902966 -0.725584
H59   H     H_    0.547688 0.459484 0.955217 0.344846
O39   O     O_3   0.148840 0.758005 0.292317 -0.654145
C51   C     C_3   0.116610 0.697080 0.235723 0.123521
H60   H     H_    0.039414 0.712391 0.192388 0.049953
H61   H     H_    0.064148 0.643237 0.256191 0.063899
H62   H     H_    0.227010 0.685583 0.211636 0.032796
O40   O     O_3   0.773323 0.849726 0.547084 -0.628992
C52   C     C_3   0.872304 0.898524 0.508629 0.299177
H63   H     H_    0.839549 0.893253 0.450152 0.048563
H64   H     H_    0.992488 0.884247 0.514766 0.055586
H65   H     H_    0.877369 0.959192 0.533245 0.008063
O41   O     O_3   0.344851 0.648194 0.487349 -0.619860
C53   C     C_3   0.363510 0.603554 0.422080 0.518374
H66   H     H_    0.433912 0.557272 0.430105 0.055929
H67   H     H_    0.395807 0.636877 0.376536 -0.256898
H68   H     H_    0.256403 0.569867 0.403833 0.049696
O42   O     O_3   0.855866 0.348146 0.512944 -0.673495
C54   C     C_3   0.825596 0.391601 0.577494 1.086121
H69   H     H_    0.783194 0.357240 0.620756 -0.945647
H70   H     H_    0.756860 0.437791 0.567639 0.011974
H71   H     H_    0.929086 0.427123 0.599933 -0.008080
O43   O     O_3   0.204294 0.790991 0.698172 -0.659718
C55   C     C_3   0.097215 0.841567 0.683001 0.140063
H72   H     H_    0.015119 0.848384 0.726396 0.129423
H73   H     H_    0.036502 0.822684 0.629975 0.088061
H74   H     H_    0.161637 0.899590 0.679937 0.012765

loop_
_geom_bond_atom_site_label_1
_geom_bond_atom_site_label_2
_ccdc_geom_bond_type
C42   H3    S    
C19   C24   A    
O6    P8    S    
O27   H40   S    
C8    O38   S    
O18   P6    S    
C34   C40   S    
O33   H52   S    
C55   H72   S    
O28   C47   S    
C48   H46   S    
O32   H51   S    
C5    C6    S    
C53   H66   S    
Ba1   O1    S    
C13   C17   S    
C10   C11   S    
O17   P8    S    
C26   C27   A    
O10   P5    D    
C35   C36   A    
C30   P3    S    
C3    H12   S    
C16   C22   S    
C39   O42   S    
Ba2   O12   S    
C51   H61   S    
O39   C51   S    
O2    P2    S    
C45   H35   S    
O16   P8    D    
C3    C4    S    
C49   H49   S    
O15   P7    S    
O4    P4    D    
C34   O7    S    
O31   H50   S    
C24   H27   S    
O25   C45   S    
Ba1   Ba2   S    
O11   P5    S    
C18   C22   A    
O43   C55   S    
C5    H15   S    
Ba1   P2    S    
O5    P4    S    
C52   H65   S    
C7    O35   S    
C51   H60   S    
Ba2   O14   S    
C14   C15   D    
C44   H9    S    
O35   C50   S    
Ba2   O5    S    
O20   P1    S    
C23   H14   S    
C17   N3    A    
C7    C8    S    
C8    O37   S    
C7    O36   S    
Ba1   O12   S    
Ba1   O23   S    
C44   O30   S    
C47   H43   S    
Ba1   O5    S    
C52   H64   S    
C6    H19   S    
Ba1   O8    S    
C2    H10   S    
C18   H24   S    
C32   C39   A    
O7    P4    S    
C19   P4    S    
C54   H69   S    
C8    H20   S    
Ba2   P4    S    
C1    O34   S    
C23   H32   S    
C21   H25   S    
C51   H62   S    
C12   O3    S    
O30   C49   S    
C45   H36   S    
O40   C52   S    
C4    O32   S    
C9    H26   S    
O9    P5    S    
C48   H45   S    
C6    H17   S    
C43   H6    S    
C43   C44   S    
O36   H57   S    
C12   O39   S    
Ba2   O6    S    
C43   O2    S    
C41   C42   S    
C5    H16   S    
C27   C28   A    
O29   C48   S    
C29   H29   S    
C29   C30   A    
C50   H56   S    
C28   C29   A    
C12   H21   S    
C44   H8    S    
C16   N4    A    
C28   C38   S    
Ba2   O4    S    
C15   P1    S    
Ba2   O9    S    
O26   C46   S    
C53   H67   S    
C6    H18   S    
C1    H11   S    
C42   H5    S    
C16   N1    A    
C20   P8    S    
C35   H30   S    
C50   H55   S    
O42   C54   S    
C7    O17   S    
C11   C13   D    
O37   H58   S    
O24   P3    D    
C23   H31   S    
C52   H63   S    
C34   O43   S    
C46   H38   S    
C1    C2    S    
C18   C19   A    
Ba1   O18   S    
C37   C38   T    
O41   C53   S    
C33   C35   A    
C47   H41   S    
C41   H2    S    
C53   H68   S    
C42   H4    S    
C5    O11   S    
O22   P2    D    
C9    C15   D    
C21   C22   A    
O3    P3    S    
C25   C30   A    
C4    H13   S    
C2    O25   S    
C14   H23   S    
N1    N2    A    
C34   H33   S    
C41   O28   S    
C54   H70   S    
C49   H47   S    
C48   H44   S    
C26   P2    S    
C32   P7    S    
O13   P2    S    
C43   O29   S    
C31   C36   A    
O8    P7    S    
C55   H74   S    
O38   H59   S    
C27   O40   S    
C46   H39   S    
C55   H73   S    
C46   H37   S    
O19   P6    D    
C17   N2    A    
C45   H34   S    
C4    O33   S    
C49   H48   S    
C1    H7    S    
C36   C37   S    
Ba1   O13   S    
C2    O21   S    
Ba2   O13   S    
O1    P1    D    
C31   C32   A    
C10   P6    S    
C40   H1    S    
C12   C23   S    
Ba2   O8    S    
C33   C39   A    
C41   O20   S    
C54   H71   S    
C3    O31   S    
O12   P1    S    
C40   O27   S    
Ba1   P1    S    
O21   P6    S    
C31   H28   S    
C3    O15   S    
C40   O26   S    
O23   P3    S    
N3    N4    A    
C20   C24   A    
C25   C26   A    
C20   C21   A    
C50   H54   S    
O14   P7    D    
O34   H53   S    
C25   O41   S    
C33   P5    S    
C13   C14   S    
C9    C10   S    
Ba1   O22   S    
C47   H42   S    
C11   H22   S    
