data_mof_unit_12754.cif
_audit_creation_date              2012-12-10T17:20:53-0500
_audit_creation_method            fapswitch 2.2
_symmetry_space_group_name_H-M    P1
_symmetry_Int_Tables_number       1
_space_group_crystal_system       triclinic
_cell_length_a                    14.334774
_cell_length_b                    10.781943
_cell_length_c                    9.678335
_cell_angle_alpha                 89.611321
_cell_angle_beta                  89.924349
_cell_angle_gamma                 94.363563
_cell_volume                      1491.47886113

loop_
_atom_site_label
_atom_site_type_symbol
_atom_type_description
_atom_site_fract_x
_atom_site_fract_y
_atom_site_fract_z
_atom_type_partial_charge
C1    C     C_R   0.498423 0.262930 0.500303 0.785107
C2    C     C_1   0.771066 0.500471 0.499738 -0.175038
C3    C     C_R   0.331141 0.110274 0.579904 -0.174783
C4    C     C_R   0.251372 0.036437 0.619094 -0.223747
C5    C     C_R   0.251963 0.906439 0.620162 0.464875
C6    C     C_R   0.333239 0.851867 0.581389 -0.139796
C7    C     C_R   0.415128 0.925149 0.541801 -0.037530
C8    C     C_R   0.413902 0.055932 0.541833 0.091776
C9    C     C_R   0.494988 0.128901 0.500620 -0.148575
C10   C     C_R   0.575072 0.074350 0.458088 -0.176986
C11   C     C_R   0.578377 0.946405 0.459448 0.396979
C12   C     C_R   0.331322 0.498854 0.500103 0.763602
C13   C     C_R   0.497746 0.871033 0.500198 -0.170304
C14   C     C_R   0.613882 0.677681 0.148556 -0.089821
C15   C     C_R   0.659494 0.779273 0.085568 -0.242807
C16   C     C_R   0.659914 0.787666 0.945003 -0.271628
C17   C     C_R   0.618290 0.691000 0.863994 0.487012
C18   C     C_R   0.556838 0.591869 0.926063 0.087313
C19   C     C_R   0.555883 0.589184 0.075608 0.111135
C20   C     C_R   0.447975 0.414406 0.075740 -0.022198
C21   C     C_R   0.447030 0.413509 0.929536 0.466598
C22   C     C_R   0.499850 0.737036 0.499742 0.784637
C23   C     C_R   0.668642 0.500205 0.499849 0.817831
C24   C     C_1   0.228936 0.499252 0.500302 -0.166796
C25   C     C_1   0.143487 0.499742 0.500373 0.036643
C26   C     C_1   0.042775 0.500243 0.500287 0.030565
C27   C     C_1   0.957300 0.500499 0.500111 0.017914
C28   C     C_1   0.856556 0.500581 0.499866 0.005691
Cu1   Cu    Cu3+1 0.499990 0.499990 0.640660 0.981507
Cu2   Cu    Cu3+1 0.500010 0.500010 0.359340 0.940384
H1    H     H_    0.636791 0.132260 0.426797 0.161358
H2    H     H_    0.701518 0.865135 0.898473 0.156777
H3    H     H_    0.326954 0.210014 0.578177 0.129555
H4    H     H_    0.188957 0.080795 0.647802 0.139686
H5    H     H_    0.331012 0.751530 0.582075 0.150069
H6    H     H_    0.404915 0.344323 0.132062 0.163481
H7    H     H_    0.627781 0.672683 0.255465 0.205528
H8    H     H_    0.699504 0.848683 0.146060 0.209803
N1    N     N_R   0.500820 0.501210 0.147910 -0.221331
N2    N     N_R   0.500850 0.501290 0.852040 -0.231122
O1    O     O_R   0.499990 0.319640 0.618810 -0.573419
O2    O     O_R   0.500000 0.319660 0.381240 -0.571972
O3    O     O_R   0.376050 0.499990 0.618810 -0.588663
O4    O     O_R   0.376060 0.500010 0.381240 -0.549261
O5    O     O_R   0.500000 0.680340 0.618760 -0.520559
O6    O     O_R   0.500010 0.680360 0.381190 -0.586093
O7    O     O_R   0.623940 0.499990 0.618760 -0.484810
O8    O     O_R   0.623950 0.500010 0.381190 -0.592008
O9    O     O_3   0.647663 0.690100 0.729587 -0.702883
H9    H     H_    0.690037 0.764332 0.705863 0.301938
O10   O     O_3   0.390382 0.319796 0.870585 -0.740132
H10   H     H_    0.378637 0.341839 0.774387 0.367589
O11   O     O_3   0.174283 0.830159 0.657536 -0.727929
H11   H     H_    0.122829 0.882656 0.681648 0.323238
O12   O     O_3   0.662262 0.900266 0.422722 -0.753620
H12   H     H_    0.661730 0.811113 0.447225 0.305220

loop_
_geom_bond_atom_site_label_1
_geom_bond_atom_site_label_2
_ccdc_geom_bond_type
C13   C22   S    
O12   H12   S    
C15   H8    S    
Cu1   Cu2   S    
C16   H2    S    
C9    C10   A    
C12   C24   S    
C7    C13   A    
C17   C18   A    
C24   C25   T    
C11   O12   S    
C7    C8    A    
C12   O4    A    
O11   H11   S    
Cu1   O3    S    
C14   H7    S    
C4    C5    A    
C11   C13   A    
Cu2   O4    S    
C26   C27   T    
C6    C7    A    
C21   N2    A    
C19   N1    A    
Cu1   O7    S    
C15   C16   A    
C10   H1    S    
Cu1   N2    S    
C1    O1    A    
C22   O6    A    
Cu2   N1    S    
C18   C19   A    
C12   O3    A    
C5    C6    A    
C4    H4    S    
C23   O7    A    
C10   C11   A    
C3    H3    S    
C17   O9    S    
O10   H10   S    
C20   H6    S    
C1    O2    A    
C21   O10   S    
C22   O5    A    
C1    C9    S    
C20   C21   A    
C3    C8    A    
Cu2   O8    S    
C5    O11   S    
C2    C23   S    
O9    H9    S    
C20   N1    A    
C18   N2    A    
C14   C15   A    
Cu2   O2    S    
C2    C28   T    
C23   O8    A    
Cu1   O1    S    
C25   C26   S    
C14   C19   A    
Cu2   O6    S    
C6    H5    S    
C3    C4    A    
C16   C17   A    
Cu1   O5    S    
C8    C9    A    
C27   C28   S    
