data_mof_unit_48890.cif
_audit_creation_date              2012-12-10T17:40:50-0500
_audit_creation_method            fapswitch 2.2
_symmetry_space_group_name_H-M    P1
_symmetry_Int_Tables_number       1
_space_group_crystal_system       triclinic
_cell_length_a                    14.706259
_cell_length_b                    15.434804
_cell_length_c                    9.93719
_cell_angle_alpha                 91.230322
_cell_angle_beta                  90.375767
_cell_angle_gamma                 89.723968
_cell_volume                      2255.03193783

loop_
_atom_site_label
_atom_site_type_symbol
_atom_type_description
_atom_site_fract_x
_atom_site_fract_y
_atom_site_fract_z
_atom_type_partial_charge
C1    C     C_R   0.385389 0.875442 0.498906 0.932112
C2    C     C_R   0.692739 0.241126 0.390057 0.691980
C3    C     C_R   0.170557 0.238956 0.443930 0.613087
C4    C     C_R   0.192731 0.741136 0.390076 0.691947
C5    C     C_R   0.692637 0.820424 0.497715 -0.200647
C6    C     C_R   0.672078 0.200364 0.510597 -0.258762
C7    C     C_R   0.192614 0.320403 0.497725 -0.200575
C8    C     C_R   0.172092 0.700355 0.510610 -0.258626
C9    C     C_R   0.335641 0.995560 0.143852 -0.203968
C10   C     C_R   0.835641 0.495558 0.143852 -0.204043
C11   C     C_R   0.252563 0.991160 0.078710 0.581702
C12   C     C_R   0.381127 0.120411 0.500687 0.888705
C13   C     C_R   0.752563 0.491155 0.078710 0.581709
C14   C     C_R   0.249245 0.991577 0.940595 -0.304163
C15   C     C_R   0.749245 0.491572 0.940595 -0.304154
C16   C     C_R   0.328660 0.996550 0.865862 0.627652
C17   C     C_R   0.828660 0.496549 0.865861 0.627637
C18   C     C_R   0.416944 0.998130 0.928351 -0.112816
C19   C     C_R   0.916944 0.498130 0.928351 -0.112849
C20   C     C_R   0.418293 0.997830 0.073083 -0.113153
C21   C     C_R   0.918293 0.497830 0.073083 -0.113155
C22   C     C_R   0.578243 0.001659 0.072053 0.650114
C23   C     C_R   0.885389 0.375441 0.498908 0.932243
C24   C     C_R   0.078243 0.501655 0.072053 0.650075
C25   C     C_R   0.613606 0.125599 0.502578 0.987354
C26   C     C_R   0.621944 0.882500 0.499379 1.028490
C27   C     C_R   0.113605 0.625600 0.502581 0.987512
C28   C     C_R   0.121934 0.382490 0.499380 1.028682
C29   C     C_R   0.578231 0.001449 0.929147 0.621474
C30   C     C_R   0.078232 0.501444 0.929146 0.621533
C31   C     C_R   0.432438 0.289317 0.605610 -0.202823
C32   C     C_R   0.369691 0.754822 0.724386 -0.146659
C33   C     C_R   0.932349 0.789243 0.606093 -0.203058
C34   C     C_R   0.881136 0.620419 0.500687 0.888700
C35   C     C_R   0.869623 0.254866 0.724450 -0.146762
C36   C     C_R   0.456203 0.371636 0.653186 -0.269042
C37   C     C_R   0.342625 0.727787 0.850680 -0.300808
C38   C     C_R   0.956058 0.871516 0.653932 -0.269115
C39   C     C_R   0.842519 0.227864 0.850744 -0.300639
C40   C     C_R   0.893155 0.938857 0.649220 0.658032
C41   C     C_R   0.751892 0.207464 0.872142 0.688970
C42   C     C_R   0.393292 0.438971 0.648478 0.658001
C43   C     C_R   0.252006 0.707374 0.872119 0.688924
C44   C     C_R   0.805984 0.924122 0.597354 0.593243
C45   C     C_R   0.234188 0.174141 0.445412 -0.213173
C46   C     C_R   0.690635 0.205186 0.764062 0.612728
C47   C     C_R   0.306059 0.424185 0.596883 0.593118
C48   C     C_R   0.190720 0.705117 0.764075 0.612686
C49   C     C_R   0.779919 0.839962 0.550891 -0.189903
C50   C     C_R   0.721130 0.220949 0.631086 -0.160961
C51   C     C_R   0.279951 0.339988 0.550650 -0.189803
C52   C     C_R   0.221175 0.720912 0.631086 -0.160871
C53   C     C_R   0.344309 0.272546 0.554065 0.010916
C54   C     C_R   0.306156 0.759421 0.617046 0.041799
C55   C     C_R   0.844272 0.772515 0.554310 0.010915
C56   C     C_R   0.265978 0.795287 0.385489 -0.213309
C57   C     C_R   0.806117 0.259449 0.617071 0.041733
C58   C     C_R   0.319134 0.190382 0.501925 -0.104766
C59   C     C_R   0.322688 0.804759 0.497882 -0.137286
C60   C     C_R   0.819153 0.690398 0.501918 -0.104769
C61   C     C_R   0.822680 0.304762 0.497891 -0.137233
C62   C     C_R   0.734278 0.674218 0.445123 -0.213264
C63   C     C_R   0.765990 0.295275 0.385478 -0.213388
C64   C     C_R   0.670650 0.739034 0.443637 0.613283
F1    F     F_    0.312182 0.002229 0.734301 -0.639217
F2    F     F_    0.600969 0.198654 0.793504 -0.639680
F3    F     F_    0.249681 0.493427 0.588560 -0.627185
F4    F     F_    0.101064 0.698583 0.793577 -0.639767
F5    F     F_    0.586488 0.722037 0.392403 -0.634520
F6    F     F_    0.641213 0.230039 0.277030 -0.567593
F7    F     F_    0.086332 0.221912 0.392968 -0.634674
F8    F     F_    0.141184 0.730065 0.277064 -0.567676
F9    F     F_    0.658571 0.003247 0.139675 -0.554847
F10   F     F_    0.158572 0.503241 0.139675 -0.554820
F11   F     F_    0.174560 0.988005 0.150536 -0.607025
F12   F     F_    0.812182 0.502230 0.734301 -0.639188
F13   F     F_    0.674560 0.487997 0.150535 -0.607019
F14   F     F_    0.658484 0.002530 0.862991 -0.570028
F15   F     F_    0.158485 0.502517 0.862988 -0.570104
F16   F     F_    0.917182 0.019392 0.693294 -0.601930
F17   F     F_    0.723046 0.190469 0.998172 -0.550569
F18   F     F_    0.417366 0.519544 0.692310 -0.602044
F19   F     F_    0.223197 0.690348 0.998158 -0.550565
F20   F     F_    0.749641 0.993386 0.588969 -0.627038
H1    H     H_    0.524075 0.383370 0.692166 0.212243
H2    H     H_    0.777561 0.330385 0.293935 0.206213
H3    H     H_    0.183761 0.989700 0.889991 0.219415
H4    H     H_    0.683761 0.489693 0.889990 0.219420
H5    H     H_    0.483890 0.239471 0.608312 0.197290
H6    H     H_    0.440157 0.772639 0.711681 0.194071
H7    H     H_    0.983809 0.739403 0.608769 0.197541
H8    H     H_    0.940096 0.272668 0.711776 0.194126
H9    H     H_    0.390925 0.727047 0.933334 0.210395
H10   H     H_    0.023887 0.883215 0.693104 0.212378
H11   H     H_    0.890796 0.227137 0.933427 0.210360
H12   H     H_    0.331941 0.997456 0.250238 0.225607
H13   H     H_    0.831941 0.497455 0.250237 0.225607
H14   H     H_    0.216836 0.110537 0.404583 0.199017
H15   H     H_    0.277530 0.830414 0.293955 0.206206
H16   H     H_    0.716972 0.610657 0.404083 0.199058
N1    N     N_R   0.498810 1.000000 0.142780 -0.174831
N2    N     N_R   0.998810 0.500000 0.142780 -0.174853
N3    N     N_R   0.498740 0.000000 0.857170 -0.173703
N4    N     N_R   0.998740 0.500000 0.857170 -0.173716
O1    O     O_R   0.408390 0.908380 0.614690 -0.581665
O2    O     O_R   0.591620 0.908390 0.614640 -0.588709
O3    O     O_R   0.091620 0.591610 0.614640 -0.519528
O4    O     O_R   0.091620 0.408390 0.614640 -0.588701
O5    O     O_R   0.591610 0.091610 0.385310 -0.514574
O6    O     O_R   0.591610 0.908390 0.385310 -0.559785
O7    O     O_R   0.091610 0.591610 0.385310 -0.514497
O8    O     O_R   0.091610 0.408390 0.385310 -0.559887
O9    O     O_R   0.408390 0.091620 0.614690 -0.534756
O10   O     O_R   0.908390 0.408380 0.614690 -0.581664
O11   O     O_R   0.908390 0.591620 0.614690 -0.534842
O12   O     O_R   0.408370 0.908380 0.385360 -0.656062
O13   O     O_R   0.408370 0.091620 0.385360 -0.648867
O14   O     O_R   0.908370 0.408380 0.385360 -0.656104
O15   O     O_R   0.908370 0.591620 0.385360 -0.648885
O16   O     O_R   0.591620 0.091610 0.614640 -0.519414
Zn1   Zn    Zn3+2 0.500010 0.000000 0.653130 1.105260
Zn2   Zn    Zn3+2 0.000010 0.500000 0.653130 1.105210
Zn3   Zn    Zn3+2 0.499980 1.000000 0.346870 1.079318
Zn4   Zn    Zn3+2 0.999980 0.500000 0.346870 1.079285

loop_
_geom_bond_atom_site_label_1
_geom_bond_atom_site_label_2
_ccdc_geom_bond_type
C44   C49   A    
C33   C55   A    
O12   Zn3   S    
C43   F19   S    
C36   C42   A    
C42   F18   S    
C4    C8    A    
C26   O2    A    
C23   O14   A    
C39   C41   A    
C22   C29   A    
O15   Zn4   S    
C28   O8    A    
N1    Zn3   S    
C22   N1    A    
C19   C21   A    
C14   H3    S    
O8    Zn4   S    
C3    C7    A    
C45   H14   S    
C33   H7    S    
C11   C14   A    
C31   C53   A    
C6    C25   S    
N4    Zn2   S    
C29   N3    A    
C60   C62   A    
C47   F3    S    
C61   C63   A    
C62   C64   A    
C32   H6    S    
C29   F14   S    
C31   H5    S    
C17   F12   S    
C41   C46   A    
C40   F16   S    
C1    O12   A    
C43   C48   A    
C8    C52   A    
C40   C44   A    
C24   N2    A    
C25   O5    A    
C18   N3    A    
C12   C58   S    
C35   H8    S    
C27   O7    A    
O11   Zn2   S    
C55   C60   A    
C4    C56   A    
C34   C60   S    
C5    C49   A    
C2    C6    A    
N2    Zn4   S    
C32   C54   A    
C52   C54   A    
C54   C59   A    
C10   C21   A    
C13   F13   S    
C45   C58   A    
O1    Zn1   S    
O5    Zn3   S    
C47   C51   A    
C20   N1    A    
C34   O11   A    
C49   C55   A    
C3    C45   A    
C48   F4    S    
C7    C28   S    
C12   O13   A    
C5    C64   A    
C51   C53   A    
C37   C43   A    
C10   H13   S    
C35   C39   A    
O6    Zn3   S    
C19   N4    A    
C9    C20   A    
C27   O3    A    
C41   F17   S    
C38   H10   S    
C37   H9    S    
O14   Zn4   S    
C32   C37   A    
C6    C50   A    
C57   C61   A    
C9    C11   A    
C9    H12   S    
C39   H11   S    
C62   H16   S    
C30   F15   S    
C13   C15   A    
C63   H2    S    
C14   C16   A    
C21   N2    A    
N3    Zn1   S    
C25   O16   A    
C4    F8    S    
O16   Zn1   S    
C12   O9    A    
C23   C61   S    
C34   O15   A    
C15   C17   A    
C26   O6    A    
C2    C63   A    
O7    Zn4   S    
C50   C57   A    
O4    Zn2   S    
C44   F20   S    
C10   C13   A    
C53   C58   A    
C46   F2    S    
C3    F7    S    
C36   H1    S    
C64   F5    S    
C46   C50   A    
C33   C38   A    
C22   F9    S    
C56   C59   A    
C35   C57   A    
C1    C59   S    
O13   Zn3   S    
C7    C51   A    
C11   F11   S    
C23   O10   A    
C38   C40   A    
C24   F10   S    
C28   O4    A    
O3    Zn2   S    
O2    Zn1   S    
C17   C19   A    
C18   C20   A    
C42   C47   A    
C24   C30   A    
C5    C26   S    
O10   Zn2   S    
C48   C52   A    
O9    Zn1   S    
C16   C18   A    
C30   N4    A    
C8    C27   S    
C31   C36   A    
C16   F1    S    
C56   H15   S    
C2    F6    S    
C1    O1    A    
C15   H4    S    
