data_mof_unit_13644.cif
_audit_creation_date              2012-12-11T16:12:52-0500
_audit_creation_method            fapswitch 2.2
_symmetry_space_group_name_H-M    P1
_symmetry_Int_Tables_number       1
_space_group_crystal_system       orthorhombic
_cell_length_a                    6.955693
_cell_length_b                    21.305553
_cell_length_c                    23.637171
_cell_angle_alpha                 90.0
_cell_angle_beta                  90.0
_cell_angle_gamma                 90.0
_cell_volume                      3502.90785847

loop_
_atom_site_label
_atom_site_type_symbol
_atom_type_description
_atom_site_fract_x
_atom_site_fract_y
_atom_site_fract_z
_atom_type_partial_charge
O1    O     O_R   0.615270 0.806540 0.192260 -0.534822
O2    O     O_R   0.384730 0.193460 0.807740 -0.534822
O3    O     O_R   0.384730 0.193460 0.692260 -0.534822
O4    O     O_R   0.615270 0.806540 0.307740 -0.534822
O5    O     O_R   0.115270 0.693460 0.307740 -0.534822
O6    O     O_R   0.884730 0.306540 0.692260 -0.534822
O7    O     O_R   0.884730 0.306540 0.807740 -0.534822
O8    O     O_R   0.115270 0.693460 0.192260 -0.534822
O9    O     O_R   0.285500 0.813970 0.307340 -0.537796
O10   O     O_R   0.714500 0.186030 0.692660 -0.537796
O11   O     O_R   0.714500 0.186030 0.807340 -0.537796
O12   O     O_R   0.285500 0.813970 0.192660 -0.537796
O13   O     O_R   0.785500 0.686030 0.192660 -0.537796
O14   O     O_R   0.214500 0.313970 0.807340 -0.537796
O15   O     O_R   0.214500 0.313970 0.692660 -0.537796
O16   O     O_R   0.785500 0.686030 0.307340 -0.537796
C1    C     C_R   0.454354 0.829137 0.326700 0.724617
C2    C     C_R   0.545646 0.170863 0.673300 0.724617
C3    C     C_R   0.545646 0.170863 0.826700 0.724617
C4    C     C_R   0.454354 0.829137 0.173300 0.724617
C5    C     C_R   0.954354 0.670863 0.173300 0.724617
C6    C     C_R   0.045646 0.329137 0.826700 0.724617
C7    C     C_R   0.045646 0.329137 0.673300 0.724617
C8    C     C_R   0.954354 0.670863 0.326700 0.724617
O17   O     O_3   0.448760 0.710460 0.250000 -0.368258
O18   O     O_3   0.551240 0.289540 0.750000 -0.368258
O19   O     O_3   0.948760 0.789540 0.250000 -0.368258
O20   O     O_3   0.051240 0.210460 0.750000 -0.368258
V1    V     V_3+5 0.173900 0.757330 0.250000 1.426042
V2    V     V_3+5 0.826100 0.242670 0.750000 1.426043
V3    V     V_3+5 0.673900 0.742670 0.250000 1.426042
V4    V     V_3+5 0.326100 0.257330 0.750000 1.426042
C9    C     C_3   0.128026 0.520939 0.538051 0.114529
C10   C     C_3   0.871974 0.479061 0.461949 0.114530
C11   C     C_3   0.871974 0.479061 0.038051 0.114529
C12   C     C_3   0.128026 0.520939 0.961949 0.114529
C13   C     C_3   0.628026 0.979061 0.961949 0.114530
C14   C     C_3   0.371974 0.020939 0.038051 0.114530
C15   C     C_3   0.371974 0.020939 0.461949 0.114530
C16   C     C_3   0.628026 0.979061 0.538051 0.114529
C17   C     C_3   0.943302 0.554901 0.519373 0.219056
C18   C     C_3   0.056698 0.445099 0.480627 0.219056
C19   C     C_3   0.056698 0.445099 0.019373 0.219056
C20   C     C_3   0.943302 0.554901 0.980627 0.219056
C21   C     C_3   0.443302 0.945099 0.980627 0.219055
C22   C     C_3   0.556698 0.054901 0.019373 0.219056
C23   C     C_3   0.556698 0.054901 0.480627 0.219055
C24   C     C_3   0.443302 0.945099 0.519373 0.219056
H1    H     H_    0.682667 0.489534 0.545811 0.136287
H2    H     H_    0.317333 0.510466 0.454189 0.136287
H3    H     H_    0.317333 0.510466 0.045811 0.136287
H4    H     H_    0.682667 0.489534 0.954189 0.136287
H5    H     H_    0.182667 0.010466 0.954189 0.136287
H6    H     H_    0.817332 0.989534 0.045811 0.136287
H7    H     H_    0.817333 0.989534 0.454189 0.136287
H8    H     H_    0.182667 0.010466 0.545811 0.136287
C25   C     C_1   0.964374 0.625003 0.371998 -0.189385
C26   C     C_1   0.035626 0.374997 0.628002 -0.189384
C27   C     C_1   0.035626 0.374997 0.871998 -0.189384
C28   C     C_1   0.964374 0.625003 0.128002 -0.189384
C29   C     C_1   0.464374 0.874997 0.128002 -0.189384
C30   C     C_1   0.535626 0.125002 0.871998 -0.189384
C31   C     C_1   0.535626 0.125002 0.628002 -0.189384
C32   C     C_1   0.464374 0.874997 0.371998 -0.189385
C33   C     C_3   0.175198 0.506143 0.475032 -0.209758
C34   C     C_3   0.824802 0.493857 0.524968 -0.209758
C35   C     C_3   0.824802 0.493857 0.975032 -0.209758
C36   C     C_3   0.175198 0.506143 0.024968 -0.209757
C37   C     C_3   0.675198 0.993857 0.024968 -0.209758
C38   C     C_3   0.324802 0.006143 0.975032 -0.209759
C39   C     C_3   0.324802 0.006143 0.524968 -0.209758
C40   C     C_3   0.675198 0.993857 0.475032 -0.209758
C41   C     C_3   0.987894 0.540778 0.456983 0.039206
C42   C     C_3   0.012105 0.459222 0.543017 0.039206
C43   C     C_3   0.012105 0.459222 0.956983 0.039206
C44   C     C_3   0.987894 0.540778 0.043017 0.039206
C45   C     C_3   0.487894 0.959222 0.043017 0.039206
C46   C     C_3   0.512105 0.040778 0.956983 0.039206
C47   C     C_3   0.512105 0.040778 0.543017 0.039207
C48   C     C_3   0.487894 0.959222 0.456983 0.039206
C49   C     C_1   0.974435 0.586959 0.410169 -0.025835
C50   C     C_1   0.025565 0.413041 0.589831 -0.025835
C51   C     C_1   0.025565 0.413041 0.910169 -0.025835
C52   C     C_1   0.974435 0.586959 0.089831 -0.025835
C53   C     C_1   0.474435 0.913041 0.089831 -0.025834
C54   C     C_1   0.525565 0.086959 0.910169 -0.025835
C55   C     C_1   0.525565 0.086959 0.589831 -0.025835
C56   C     C_1   0.474435 0.913041 0.410169 -0.025835
N1    N     N_3   0.876946 0.615487 0.540184 -0.674360
H9    H     H_    0.886170 0.614629 0.584293 0.223542
H10   H     H_    0.972549 0.649734 0.525812 0.233397
N2    N     N_3   0.123053 0.384513 0.459816 -0.674360
H11   H     H_    0.113831 0.385371 0.415707 0.223542
H12   H     H_    0.027451 0.350266 0.474188 0.233397
N3    N     N_3   0.123054 0.384513 0.040184 -0.674360
H13   H     H_    0.113831 0.385371 0.084293 0.223542
H14   H     H_    0.027452 0.350266 0.025812 0.233396
N4    N     N_3   0.876946 0.615487 0.959816 -0.674360
H15   H     H_    0.886169 0.614629 0.915707 0.223542
H16   H     H_    0.972548 0.649734 0.974188 0.233396
N5    N     N_3   0.376947 0.884513 0.959816 -0.674360
H17   H     H_    0.386168 0.885371 0.915707 0.223542
H18   H     H_    0.472551 0.850266 0.974187 0.233397
N6    N     N_3   0.623053 0.115487 0.040184 -0.674360
H19   H     H_    0.613831 0.114629 0.084293 0.223542
H20   H     H_    0.527450 0.149734 0.025812 0.233397
N7    N     N_3   0.623054 0.115487 0.459816 -0.674360
H21   H     H_    0.613833 0.114628 0.415707 0.223542
H22   H     H_    0.527451 0.149734 0.474188 0.233397
N8    N     N_3   0.376945 0.884513 0.540184 -0.674360
H23   H     H_    0.386168 0.885371 0.584293 0.223542
H24   H     H_    0.472548 0.850266 0.525812 0.233396
C57   C     C_3   0.271784 0.543188 0.582663 -0.378768
C58   C     C_3   0.388346 0.599484 0.562367 -0.719074
H25   H     H_    0.467611 0.587767 0.522987 0.245702
H26   H     H_    0.293392 0.640308 0.554379 0.219582
H27   H     H_    0.494136 0.612750 0.595431 0.225947
H28   H     H_    0.193108 0.555755 0.621943 0.176948
H29   H     H_    0.371484 0.504023 0.592612 0.182092
C59   C     C_3   0.728216 0.456812 0.417337 -0.378767
C60   C     C_3   0.611654 0.400516 0.437633 -0.719075
H30   H     H_    0.706608 0.359692 0.445621 0.219583
H31   H     H_    0.532389 0.412233 0.477013 0.245702
H32   H     H_    0.505864 0.387250 0.404568 0.225947
H33   H     H_    0.628516 0.495977 0.407387 0.182092
H34   H     H_    0.806892 0.444245 0.378057 0.176948
C61   C     C_3   0.728216 0.456812 0.082663 -0.378767
C62   C     C_3   0.611655 0.400516 0.062368 -0.719074
H35   H     H_    0.532390 0.412233 0.022987 0.245702
H36   H     H_    0.706609 0.359691 0.054379 0.219582
H37   H     H_    0.505865 0.387250 0.095432 0.225947
H38   H     H_    0.806893 0.444245 0.121943 0.176948
H39   H     H_    0.628516 0.495977 0.092613 0.182092
C63   C     C_3   0.271784 0.543188 0.917337 -0.378768
C64   C     C_3   0.388345 0.599484 0.937632 -0.719075
H40   H     H_    0.293391 0.640308 0.945621 0.219582
H41   H     H_    0.467610 0.587767 0.977013 0.245702
H42   H     H_    0.494135 0.612750 0.904568 0.225947
H43   H     H_    0.371483 0.504023 0.907387 0.182092
H44   H     H_    0.193107 0.555755 0.878057 0.176948
C65   C     C_3   0.771784 0.956812 0.917337 -0.378768
C66   C     C_3   0.888347 0.900516 0.937633 -0.719075
H45   H     H_    0.967611 0.912233 0.977013 0.245702
H46   H     H_    0.793393 0.859692 0.945621 0.219582
H47   H     H_    0.994137 0.887250 0.904569 0.225947
H48   H     H_    0.693108 0.944245 0.878057 0.176949
H49   H     H_    0.871484 0.995977 0.907388 0.182092
C67   C     C_3   0.228215 0.043187 0.082663 -0.378767
C68   C     C_3   0.111653 0.099484 0.062367 -0.719075
H50   H     H_    0.206607 0.140308 0.054379 0.219582
H51   H     H_    0.032389 0.087767 0.022987 0.245702
H52   H     H_    0.005863 0.112750 0.095431 0.225947
H53   H     H_    0.128516 0.004023 0.092612 0.182092
H54   H     H_    0.306891 0.055755 0.121943 0.176948
C69   C     C_3   0.228217 0.043188 0.417336 -0.378768
C70   C     C_3   0.111654 0.099484 0.437632 -0.719075
H55   H     H_    0.032389 0.087767 0.477013 0.245702
H56   H     H_    0.206608 0.140308 0.445621 0.219583
H57   H     H_    0.005865 0.112750 0.404568 0.225946
H58   H     H_    0.306893 0.055755 0.378057 0.176948
H59   H     H_    0.128517 0.004023 0.407387 0.182092
C71   C     C_3   0.771783 0.956812 0.582663 -0.378768
C72   C     C_3   0.888345 0.900516 0.562368 -0.719075
H60   H     H_    0.793391 0.859692 0.554379 0.219582
H61   H     H_    0.967610 0.912233 0.522987 0.245702
H62   H     H_    0.994135 0.887250 0.595432 0.225946
H63   H     H_    0.871483 0.995977 0.592613 0.182092
H64   H     H_    0.693107 0.944245 0.621943 0.176948

loop_
_geom_bond_atom_site_label_1
_geom_bond_atom_site_label_2
_ccdc_geom_bond_type
O17   V3    S    
C7    C26   S    
C17   N1    S    
C14   C38   S    
O18   V4    S    
N5    H17   S    
C13   C37   S    
O12   V1    S    
O19   V1    S    
C37   C45   S    
C24   N8    S    
C72   H60   S    
C10   C18   S    
C23   C47   S    
C43   C51   S    
C62   H35   S    
C44   C52   S    
N6    H20   S    
C58   H25   S    
C9    C33   S    
O15   V4    S    
C12   C36   S    
C69   H59   S    
O16   V3    S    
C30   C54   T    
O11   C3    A    
C13   C65   S    
O8    V1    S    
C70   H55   S    
C72   H61   S    
C27   C51   T    
C57   C58   S    
C68   H51   S    
C1    C32   S    
C63   H44   S    
C59   H34   S    
C2    C31   S    
C38   C46   S    
C3    C30   S    
C62   H36   S    
C34   C42   S    
O1    V3    S    
C33   C41   S    
O3    C2    A    
O2    V4    S    
C41   C49   S    
C4    C29   S    
C20   C44   S    
C16   C24   S    
N8    H23   S    
C22   C37   S    
C57   H29   S    
C20   N4    S    
N3    H13   S    
O11   V2    S    
C19   C36   S    
C60   H32   S    
C18   C33   S    
C19   N3    S    
N7    H21   S    
C11   C35   S    
N1    H10   S    
C11   C19   S    
H7    C40   S    
O9    V1    S    
C46   C54   S    
O15   C7    A    
C69   H58   S    
C45   C53   S    
O16   C8    A    
O7    V2    S    
C48   C56   S    
C10   C59   S    
N7    H22   S    
C66   H47   S    
C10   C34   S    
C67   H54   S    
C42   C50   S    
H5    C38   S    
C47   C55   S    
N6    H19   S    
H2    C33   S    
O5    V1    S    
O17   V1    S    
C11   C44   S    
C18   C42   S    
C14   C22   S    
H1    C34   S    
C21   C38   S    
O19   V3    S    
O4    V3    S    
C64   H40   S    
C72   H62   S    
C67   C68   S    
C26   C50   T    
C5    C28   S    
C68   H52   S    
O14   V4    S    
C6    C27   S    
C22   C46   S    
C59   H33   S    
C8    C25   S    
C22   N6    S    
C39   C47   S    
C71   H63   S    
C15   C69   S    
C16   C71   S    
C12   C43   S    
O10   V2    S    
O20   V4    S    
H8    C39   S    
O12   C4    A    
N2    H12   S    
O8    C5    A    
C16   C47   S    
O13   C5    A    
C11   C61   S    
C61   H38   S    
C14   C67   S    
C60   H30   S    
C63   C64   S    
C64   H42   S    
C29   C53   T    
C65   H48   S    
C71   H64   S    
O4    C1    A    
O9    C1    A    
O6    V2    S    
O18   V2    S    
C23   N7    S    
C21   N5    S    
C66   H46   S    
C12   C20   S    
C35   C43   S    
C67   H53   S    
C24   C39   S    
C13   C21   S    
C61   C62   S    
C62   H37   S    
C63   H43   S    
C59   C60   S    
C19   C43   S    
C15   C23   S    
C71   C72   S    
C64   H41   S    
H6    C37   S    
O1    C4    A    
C16   C40   S    
C31   C55   T    
O2    C3    A    
O13   V3    S    
C70   H57   S    
C61   H39   S    
C25   C49   T    
H4    C35   S    
C12   C63   S    
C58   H26   S    
N3    H14   S    
C17   C34   S    
C14   C45   S    
C36   C44   S    
O7    C6    A    
C13   C46   S    
C9    C57   S    
C9    C17   S    
C15   C48   S    
C24   C48   S    
C70   H56   S    
C40   C48   S    
C65   C66   S    
C28   C52   T    
O14   C6    A    
O5    C8    A    
O10   C2    A    
O6    C7    A    
O20   V2    S    
N2    H11   S    
C18   N2    S    
H3    C36   S    
O3    V4    S    
N4    H16   S    
N8    H24   S    
C23   C40   S    
C60   H31   S    
C58   H27   S    
C65   H49   S    
C10   C41   S    
C17   C41   S    
C57   H28   S    
C9    C42   S    
N5    H18   S    
N4    H15   S    
C69   C70   S    
C15   C39   S    
C66   H45   S    
C20   C35   S    
C21   C45   S    
N1    H9    S    
C68   H50   S    
C32   C56   T    
