data_mof_unit_54694.cif
_audit_creation_date              2012-12-10T19:07:02-0500
_audit_creation_method            fapswitch 2.2
_symmetry_space_group_name_H-M    P1
_symmetry_Int_Tables_number       1
_space_group_crystal_system       triclinic
_cell_length_a                    27.746674
_cell_length_b                    10.779991
_cell_length_c                    9.555581
_cell_angle_alpha                 90.192226
_cell_angle_beta                  90.299244
_cell_angle_gamma                 90.606996
_cell_volume                      2857.94329185

loop_
_atom_site_label
_atom_site_type_symbol
_atom_type_description
_atom_site_fract_x
_atom_site_fract_y
_atom_site_fract_z
_atom_type_partial_charge
C1    C     C_R   0.496060 0.262496 0.499285 0.814803
C2    C     C_R   0.279384 0.518840 0.371070 -0.108435
C3    C     C_R   0.253933 0.468285 0.483903 0.354989
C4    C     C_R   0.101738 0.461098 0.471175 -0.044685
C5    C     C_R   0.127664 0.349491 0.471981 -0.018412
C6    C     C_R   0.102638 0.236491 0.467126 -0.147504
C7    C     C_R   0.127192 0.574731 0.475852 -0.018727
C8    C     C_R   0.354736 0.487572 0.495170 -0.028404
C9    C     C_R   0.645025 0.476409 0.495343 -0.087869
C10   C     C_R   0.974004 0.342181 0.468815 0.043324
C11   C     C_R   0.973964 0.570806 0.450827 0.043166
C12   C     C_R   0.407536 0.497062 0.499226 0.746768
C13   C     C_R   0.948670 0.455767 0.459040 0.069481
C14   C     C_R   0.946894 0.230846 0.482519 -0.202537
C15   C     C_R   0.896803 0.231041 0.484132 -0.153935
C16   C     C_R   0.871621 0.341961 0.472099 -0.032067
C17   C     C_R   0.897402 0.454491 0.458449 -0.044168
C18   C     C_R   0.871786 0.565947 0.445279 -0.024012
C19   C     C_R   0.821247 0.563124 0.448087 0.548130
C20   C     C_R   0.820999 0.343386 0.475914 0.577322
C21   C     C_R   0.716360 0.408630 0.366170 0.506965
C22   C     C_R   0.665872 0.421861 0.376519 -0.365032
C23   C     C_R   0.495034 0.737386 0.499232 0.819645
C24   C     C_R   0.674781 0.516192 0.605195 -0.241040
C25   C     C_R   0.724528 0.505696 0.595657 -0.190777
C26   C     C_R   0.745445 0.454348 0.476068 0.306734
C27   C     C_R   0.025289 0.343663 0.466327 0.042396
C28   C     C_R   0.050488 0.459159 0.466010 0.066942
C29   C     C_R   0.025069 0.572828 0.461017 0.043369
C30   C     C_R   0.052550 0.233347 0.464233 -0.205732
C31   C     C_R   0.101824 0.685821 0.475694 -0.147867
C32   C     C_R   0.947011 0.680358 0.432291 -0.205669
C33   C     C_R   0.896994 0.677736 0.429984 -0.148787
C34   C     C_R   0.592432 0.494122 0.499712 0.799823
C35   C     C_R   0.051851 0.685180 0.468637 -0.206206
C36   C     C_R   0.476841 0.061827 0.615316 -0.019109
C37   C     C_R   0.484066 0.130565 0.494629 -0.263667
C38   C     C_R   0.476195 0.066419 0.365943 0.378168
C39   C     C_R   0.480711 0.935856 0.363786 0.170030
C40   C     C_R   0.482268 0.869334 0.493332 -0.253927
C41   C     C_R   0.469791 0.936608 0.613156 -0.090077
C42   C     C_3   0.473829 0.927438 0.770238 0.275269
C43   C     C_3   0.485772 0.068061 0.769268 0.105076
C44   C     C_R   0.542255 0.499952 0.074509 0.116320
C45   C     C_R   0.178302 0.353634 0.476328 0.530676
C46   C     C_R   0.458189 0.489703 0.073315 -0.099645
C47   C     C_R   0.458290 0.487445 0.925123 -0.109908
C48   C     C_R   0.542219 0.500620 0.927780 0.119027
C49   C     C_3   0.583222 0.591743 0.923595 0.216064
C50   C     C_3   0.582997 0.591618 0.083614 0.237298
C51   C     C_R   0.177729 0.574754 0.481690 0.530502
C52   C     C_R   0.279083 0.424822 0.601167 -0.103736
C53   C     C_R   0.329268 0.433899 0.606504 -0.259377
C54   C     C_R   0.329455 0.528224 0.376438 -0.238704
Cu1   Cu    Cu3+1 0.500000 0.499980 0.640670 0.943206
Cu2   Cu    Cu3+1 0.500000 0.500020 0.359330 0.970085
H1    H     H_    0.348336 0.568755 0.288495 0.143789
H2    H     H_    0.259685 0.385725 0.688893 0.145484
H3    H     H_    0.120533 0.774461 0.481234 0.186029
H4    H     H_    0.963400 0.770212 0.416984 0.135448
H5    H     H_    0.659966 0.559565 0.695982 0.141438
H6    H     H_    0.878123 0.764453 0.416882 0.184277
H7    H     H_    0.747131 0.540135 0.680294 0.156099
H8    H     H_    0.035338 0.775019 0.472599 0.135022
H9    H     H_    0.260237 0.551996 0.279755 0.141635
H10   H     H_    0.503102 0.867283 0.808494 0.139702
H11   H     H_    0.524001 0.089637 0.795298 0.072950
H12   H     H_    0.424051 0.484716 0.126683 0.126355
H13   H     H_    0.424376 0.477780 0.870510 0.136350
H14   H     H_    0.615564 0.546620 0.879772 -0.003655
H15   H     H_    0.615743 0.550507 0.131760 0.020686
H16   H     H_    0.121716 0.149314 0.465661 0.185845
H17   H     H_    0.642583 0.391654 0.291801 0.138948
H18   H     H_    0.877852 0.143311 0.495787 0.183365
H19   H     H_    0.963192 0.141448 0.495590 0.134846
H20   H     H_    0.036388 0.142275 0.458053 0.134764
H21   H     H_    0.348049 0.400057 0.697955 0.142857
N1    N     N_R   0.202209 0.465244 0.481016 -0.466894
N2    N     N_R   0.796996 0.453131 0.465006 -0.445896
N3    N     N_R   0.500300 0.500930 0.147930 -0.140052
N4    N     N_R   0.500310 0.500890 0.852020 -0.152505
O1    O     O_R   0.500000 0.319640 0.618810 -0.580027
O2    O     O_2   0.795994 0.236374 0.492108 -0.546815
O3    O     O_2   0.202264 0.683430 0.488857 -0.542420
O4    O     O_2   0.796446 0.669526 0.434448 -0.546929
O5    O     O_R   0.500010 0.319680 0.381230 -0.554981
O6    O     O_R   0.430260 0.500000 0.618780 -0.605991
O7    O     O_R   0.430270 0.500040 0.381190 -0.613064
O8    O     O_R   0.499990 0.680320 0.618770 -0.569605
O9    O     O_R   0.500000 0.680360 0.381190 -0.500206
O10   O     O_R   0.569730 0.499960 0.618810 -0.574757
O11   O     O_R   0.569740 0.500000 0.381220 -0.574758
O12   O     O_2   0.203443 0.247151 0.474636 -0.544463
O13   O     O_3   0.468030 0.127577 0.240460 -0.606171
C55   C     C_3   0.423029 0.189467 0.243781 0.140318
H22   H     H_    0.425567 0.268576 0.170724 0.163468
H23   H     H_    0.413978 0.229165 0.348079 0.120542
C56   C     C_3   0.381552 0.105643 0.193963 -0.425359
H24   H     H_    0.388898 0.072949 0.085918 0.261681
H25   H     H_    0.378145 0.024581 0.264848 0.219966
C57   C     C_3   0.333950 0.175449 0.193512 -0.869936
H26   H     H_    0.325206 0.208050 0.300790 0.275826
H27   H     H_    0.304524 0.112769 0.156389 0.269514
H28   H     H_    0.336124 0.256605 0.122349 0.240869
N5    N     N_2   0.487712 0.875292 0.232728 -0.352468
H29   H     H_    0.506210 0.927222 0.159670 0.277792
C58   C     C_3   0.445634 0.814341 0.173713 -0.543298
H30   H     H_    0.421906 0.883374 0.124919 0.213114
H31   H     H_    0.425170 0.762055 0.254363 0.201879
H32   H     H_    0.457193 0.748855 0.091127 0.242178
O14   O     O_3   0.429165 0.906996 0.838092 -0.591919
C59   C     C_3   0.408130 0.791747 0.802003 0.082151
H33   H     H_    0.431392 0.715004 0.837844 0.164673
H34   H     H_    0.402210 0.784189 0.687017 0.155650
C60   C     C_3   0.359064 0.782998 0.874100 -0.365569
H35   H     H_    0.364136 0.777478 0.989118 0.206231
H36   H     H_    0.338086 0.867835 0.850627 0.241634
C61   C     C_3   0.329999 0.670306 0.825660 -0.885297
H37   H     H_    0.323137 0.675764 0.711303 0.281060
H38   H     H_    0.294791 0.667887 0.880321 0.260658
H39   H     H_    0.349627 0.584155 0.850928 0.239020
N6    N     N_2   0.452168 0.144599 0.848372 -0.354554
H40   H     H_    0.468778 0.216253 0.902394 0.254278
C62   C     C_3   0.406351 0.178994 0.786556 -0.584328
H41   H     H_    0.383657 0.223540 0.867371 0.188109
H42   H     H_    0.386673 0.096342 0.745545 0.257966
H43   H     H_    0.412192 0.246012 0.700376 0.208327
O15   O     O_3   0.569618 0.707386 0.866245 -0.556465
C63   C     C_3   0.609097 0.766143 0.798638 0.109518
H44   H     H_    0.605980 0.746695 0.684559 0.166018
H45   H     H_    0.644998 0.732305 0.833981 0.076948
C64   C     C_3   0.608816 0.906605 0.827707 -0.378304
H46   H     H_    0.575769 0.933581 0.884228 0.218256
H47   H     H_    0.639509 0.931506 0.897765 0.191967
C65   C     C_3   0.613271 0.982845 0.693945 -0.907460
H48   H     H_    0.648127 0.963620 0.642339 0.268098
H49   H     H_    0.612082 0.083241 0.719909 0.250780
H50   H     H_    0.583171 0.960240 0.620783 0.251287
O16   O     O_3   0.568045 0.705023 0.143605 -0.521061
C66   C     C_3   0.608042 0.785771 0.164938 0.116223
H51   H     H_    0.595534 0.882198 0.148723 0.144994
H52   H     H_    0.637830 0.770315 0.089197 0.109917
C67   C     C_3   0.627361 0.774628 0.314445 -0.365024
H53   H     H_    0.597783 0.789774 0.390410 0.220308
H54   H     H_    0.641805 0.680334 0.329480 0.227173
C68   C     C_3   0.667925 0.868135 0.342666 -0.891213
H55   H     H_    0.697419 0.856048 0.265811 0.270815
H56   H     H_    0.682913 0.852791 0.449032 0.272877
H57   H     H_    0.654129 0.964327 0.336092 0.245163
O17   O     O_3   0.739297 0.362662 0.247626 -0.604387
C69   C     C_3   0.712321 0.268165 0.179281 0.051120
H58   H     H_    0.684206 0.310653 0.111826 0.129171
H59   H     H_    0.695345 0.203172 0.255697 0.148524
C70   C     C_3   0.745968 0.193662 0.085866 -0.276647
H60   H     H_    0.764093 0.257006 0.010608 0.227352
H61   H     H_    0.774069 0.149322 0.151636 0.238711
C71   C     C_3   0.718370 0.093450 0.004424 -0.941251
H62   H     H_    0.700198 0.028420 0.077542 0.248136
H63   H     H_    0.743784 0.040187 0.938656 0.271950
H64   H     H_    0.690940 0.136208 0.935119 0.260063

loop_
_geom_bond_atom_site_label_1
_geom_bond_atom_site_label_2
_ccdc_geom_bond_type
C10   C27   A    
C67   C68   S    
C21   C26   A    
C57   H26   S    
C65   H50   S    
C41   C42   S    
C55   H22   S    
C66   C67   S    
Cu1   Cu2   S    
C2    H9    S    
C45   O12   S    
O15   C63   S    
C59   H34   S    
C55   C56   S    
C65   H48   S    
C6    H16   S    
N5    C58   S    
C71   H62   S    
C28   C29   A    
C66   H52   S    
C68   H55   S    
C5    C6    A    
C3    C52   A    
C9    C22   A    
Cu2   O7    S    
C15   C16   A    
C48   N4    A    
C65   H49   S    
C18   C19   A    
C25   H7    S    
C69   C70   S    
C31   H3    S    
C61   H37   S    
C47   H13   S    
Cu1   O10   S    
C34   O10   A    
O14   C59   S    
C16   C17   A    
C60   H36   S    
C23   C40   S    
C58   H30   S    
C23   O8    A    
C45   N1    A    
Cu1   N4    S    
C64   H46   S    
C70   H61   S    
C20   N2    A    
C16   C20   A    
C63   C64   S    
Cu2   O9    S    
C69   H58   S    
C71   H63   S    
C21   C22   A    
C27   C30   A    
C58   H31   S    
C36   C41   A    
C4    C7    A    
C59   H33   S    
C4    C28   A    
C68   H56   S    
C7    C31   A    
C12   O7    A    
C44   N3    A    
C66   H51   S    
C70   C71   S    
C2    C54   A    
C8    C54   A    
C39   C40   A    
C50   O16   S    
C33   H6    S    
C47   N4    A    
C1    O1    A    
C5    C45   A    
C61   H39   S    
C53   H21   S    
C42   O14   S    
C46   H12   S    
C37   C38   A    
C68   H57   S    
C30   H20   S    
Cu2   O5    S    
C8    C12   S    
C60   C61   S    
C38   O13   S    
C17   C18   A    
C23   O9    A    
C50   H15   S    
C21   O17   S    
C24   C25   A    
Cu1   O1    S    
C19   N2    A    
C43   N6    S    
C70   H60   S    
C35   H8    S    
C52   H2    S    
C24   H5    S    
C64   H47   S    
C40   C41   A    
C6    C30   A    
C11   C32   A    
C49   C50   S    
C71   H64   S    
C56   H25   S    
C49   H14   S    
C62   H43   S    
C10   C14   A    
C9    C34   S    
C58   H32   S    
C31   C35   A    
C42   C43   S    
C32   H4    S    
N6    C62   S    
C52   C53   A    
C62   H42   S    
C63   H44   S    
C57   H27   S    
C44   C50   S    
C1    O5    A    
C67   H54   S    
C49   O15   S    
C46   C47   A    
C36   C37   A    
C12   O6    A    
O17   C69   S    
C39   N5    S    
C4    C5    A    
C19   O4    S    
C10   C13   A    
C8    C53   A    
O16   C66   S    
C55   H23   S    
C9    C24   A    
C1    C37   S    
C57   H28   S    
C56   C57   S    
N5    H29   S    
C29   C35   A    
C26   N2    S    
Cu2   N3    S    
C13   C17   A    
C14   H19   S    
C67   H53   S    
C25   C26   A    
C51   N1    A    
C7    C51   A    
Cu1   O8    S    
C32   C33   A    
C46   N3    A    
C11   C13   A    
C38   C39   A    
C64   C65   S    
C48   C49   S    
C34   O11   A    
C2    C3    A    
C69   H59   S    
Cu1   O6    S    
O13   C55   S    
C18   C33   A    
C61   H38   S    
C44   C48   A    
Cu2   O11   S    
C15   H18   S    
C11   C29   A    
C43   H11   S    
C56   H24   S    
C20   O2    S    
C27   C28   A    
C42   H10   S    
C14   C15   A    
C36   C43   S    
C22   H17   S    
N6    H40   S    
C3    N1    S    
C51   O3    S    
C59   C60   S    
C60   H35   S    
C62   H41   S    
C63   H45   S    
C54   H1    S    
