data_mof_unit_43685.cif
_audit_creation_date              2012-12-11T14:15:50-0500
_audit_creation_method            fapswitch 2.2
_symmetry_space_group_name_H-M    P1
_symmetry_Int_Tables_number       1
_space_group_crystal_system       triclinic
_cell_length_a                    11.047938
_cell_length_b                    12.634344
_cell_length_c                    23.413585
_cell_angle_alpha                 90.090613
_cell_angle_beta                  96.36217
_cell_angle_gamma                 69.611332
_cell_volume                      3042.13038171

loop_
_atom_site_label
_atom_site_type_symbol
_atom_type_description
_atom_site_fract_x
_atom_site_fract_y
_atom_site_fract_z
_atom_type_partial_charge
C1    C     C_R   0.149790 0.617160 0.428967 0.535753
C2    C     C_2   0.211352 0.188665 0.235240 -0.127130
C3    C     C_2   0.160942 0.135763 0.270162 -0.129142
C4    C     C_R   0.813856 0.571934 0.401490 0.564240
C5    C     C_1   0.135565 0.178632 0.326137 -0.051855
C6    C     C_1   0.239945 0.147550 0.179302 -0.058688
C7    C     C_1   0.117902 0.220902 0.371956 -0.010217
C8    C     C_1   0.164857 0.748247 0.123116 -0.015866
C9    C     C_2   0.141114 0.684998 0.227667 -0.132210
C10   C     C_2   0.234959 0.677735 0.270592 -0.122860
C11   C     C_1   0.218007 0.653881 0.328719 -0.041671
C12   C     C_R   0.825865 0.492631 0.304880 -0.142444
C13   C     C_1   0.152217 0.717875 0.170159 -0.063004
C14   C     C_1   0.194435 0.635983 0.376043 0.002356
C15   C     C_1   0.628806 0.759217 0.864530 -0.017898
C16   C     C_R   0.101360 0.280188 0.424204 0.536163
C17   C     C_2   0.697172 0.717403 0.759814 -0.130668
C18   C     C_2   0.610669 0.702942 0.718535 -0.125531
C19   C     C_1   0.648435 0.669163 0.662439 -0.052441
C20   C     C_1   0.663284 0.741694 0.817273 -0.051815
C21   C     C_1   0.687834 0.639145 0.616958 -0.009136
C22   C     C_R   0.266128 0.070382 0.837601 -0.000017
C23   C     C_R   0.772920 0.694052 0.312803 -0.124504
C24   C     C_R   0.110296 0.200800 0.633717 0.008265
C25   C     C_R   0.012419 0.148728 0.712171 -0.132875
C26   C     C_R   0.999555 0.197466 0.657203 -0.130253
C27   C     C_R   0.233116 0.143084 0.661979 -0.126780
C28   C     C_R   0.148870 0.616273 0.591122 0.546130
C29   C     C_R   0.245745 0.102902 0.718229 0.032714
C30   C     C_R   0.135113 0.108536 0.744563 0.044414
C31   C     C_R   0.148133 0.083893 0.803594 -0.139758
C32   C     C_R   0.377296 0.070370 0.810038 -0.006666
C33   C     C_R   0.366345 0.073860 0.750105 -0.110908
C34   C     C_R   0.760945 0.707565 0.252995 0.008054
C35   C     C_R   0.126194 0.745809 0.853106 0.012011
C36   C     C_R   0.185685 0.635864 0.650534 0.010930
C37   C     C_R   0.306481 0.565946 0.743433 -0.139496
C38   C     C_R   0.293647 0.558725 0.683793 -0.134295
C39   C     C_R   0.093501 0.721742 0.676889 -0.117348
C40   C     C_R   0.748630 0.602182 0.565885 0.558249
C41   C     C_R   0.100765 0.724637 0.735686 0.041836
C42   C     C_R   0.208909 0.647550 0.769560 0.043584
C43   C     C_R   0.219725 0.657229 0.828677 -0.122155
C44   C     C_R   0.011959 0.812910 0.819727 -0.134872
C45   C     C_R   0.777196 0.613275 0.218109 0.050505
C46   C     C_R   0.000024 0.803403 0.760880 -0.149606
C47   C     C_R   0.288817 0.066760 0.077377 0.561941
C48   C     C_R   0.606114 0.773001 0.080053 0.532163
C49   C     C_R   0.188741 0.787387 0.069519 0.539282
C50   C     C_R   0.273644 0.055139 0.900977 0.570828
C51   C     C_R   0.574857 0.776966 0.918162 0.534507
C52   C     C_R   0.099091 0.276028 0.584453 0.548289
C53   C     C_R   0.163309 0.785997 0.907770 0.537011
C54   C     C_R   0.699214 0.744563 0.133930 0.004624
C55   C     C_R   0.800032 0.587264 0.338799 0.008001
C56   C     C_R   0.747812 0.631039 0.157583 -0.012506
C57   C     C_R   0.817930 0.504904 0.245375 -0.136867
C58   C     C_3   0.771875 0.530783 0.118245 -0.234427
C59   C     C_3   0.670396 0.472075 0.118978 -0.271556
C60   C     C_3   0.675518 0.395335 0.068204 -0.446476
C61   C     C_3   0.501364 0.079756 0.842875 -0.235544
C62   C     C_3   0.610574 0.082061 0.807759 -0.337756
C63   C     C_3   0.724549 0.094922 0.846782 -0.453019
C64   C     C_3   0.711345 0.945282 0.143445 -0.239879
C65   C     C_3   0.824505 0.981298 0.169731 -0.314095
C66   C     C_3   0.827703 0.085441 0.137777 -0.446575
C67   C     C_R   0.716829 0.832114 0.168412 -0.022120
C68   C     C_R   0.736859 0.814177 0.228137 -0.128477
C69   C     C_1   0.263328 0.112060 0.132560 -0.009743
Cr1   Cr    Cr6+3 0.189770 0.415650 0.511620 1.022641
Cr2   Cr    Cr6+3 0.930400 0.667320 0.496770 1.017352
Cr3   Cr    Cr6+3 0.879870 0.417010 0.491650 1.017010
Cr4   Cr    Cr6+3 0.149500 0.973980 0.985330 1.003797
Cr5   Cr    Cr6+3 0.457000 0.976510 0.994660 0.979489
Cr6   Cr    Cr6+3 0.411170 0.724270 0.995270 0.994002
H1    H     H_    0.053188 0.670404 0.235913 0.144140
H2    H     H_    0.937509 0.879413 0.838314 0.131836
H3    H     H_    0.390226 0.506477 0.769050 0.108609
H4    H     H_    0.914779 0.860502 0.735005 0.100869
H5    H     H_    0.364877 0.491271 0.663986 0.128689
H6    H     H_    0.009330 0.782453 0.651998 0.136091
H7    H     H_    0.843392 0.428457 0.221773 0.111794
H8    H     H_    0.733678 0.883810 0.255682 0.109715
H9    H     H_    0.854169 0.408682 0.324569 0.130047
H10   H     H_    0.759149 0.767311 0.338959 0.131459
H11   H     H_    0.139667 0.060921 0.257103 0.133940
H12   H     H_    0.512914 0.712447 0.727284 0.144246
H13   H     H_    0.232283 0.263490 0.248689 0.140151
H14   H     H_    0.322223 0.693658 0.262561 0.141354
H15   H     H_    0.651067 0.445724 0.026982 0.166688
H16   H     H_    0.774095 0.330098 0.069337 0.150220
H17   H     H_    0.603936 0.352283 0.070500 0.139236
H18   H     H_    0.687651 0.419562 0.158910 0.141896
H19   H     H_    0.570504 0.534796 0.117592 0.204256
H20   H     H_    0.774280 0.558744 0.073540 0.160931
H21   H     H_    0.871070 0.468353 0.130527 0.125007
H22   H     H_    0.692984 0.176786 0.868407 0.153697
H23   H     H_    0.795373 0.706218 0.751213 0.142172
H24   H     H_    0.763417 0.024970 0.879989 0.156523
H25   H     H_    0.803304 0.093005 0.820698 0.138541
H26   H     H_    0.646816 0.001969 0.784788 0.164339
H27   H     H_    0.573575 0.154919 0.776115 0.161710
H28   H     H_    0.472966 0.159682 0.866328 0.176997
H29   H     H_    0.545373 0.007918 0.873777 0.193360
H30   H     H_    0.843046 0.067005 0.092189 0.161935
H31   H     H_    0.735052 0.157278 0.139374 0.151429
H32   H     H_    0.908950 0.110143 0.158342 0.152306
H33   H     H_    0.814862 0.002116 0.215459 0.157331
H34   H     H_    0.063702 0.085382 0.823647 0.123426
H35   H     H_    0.918238 0.911106 0.167610 0.182812
H36   H     H_    0.719866 0.939953 0.096763 0.176197
H37   H     H_    0.617154 0.011249 0.150306 0.159275
H38   H     H_    0.925965 0.152289 0.731094 0.101048
H39   H     H_    0.448285 0.068358 0.727493 0.103253
H40   H     H_    0.902966 0.239013 0.634969 0.132559
H41   H     H_    0.318657 0.142638 0.643062 0.120910
H42   H     H_    0.306770 0.603036 0.854649 0.127337
O1    O     O_R   0.196340 0.303200 0.448500 -0.502084
O2    O     O_R   0.555390 0.700940 0.062700 -0.516689
O3    O     O_R   0.295020 0.731920 0.049950 -0.492780
O4    O     O_R   0.199310 0.519670 0.454880 -0.492085
O5    O     O_R   0.094290 0.884230 0.921550 -0.533141
O6    O     O_R   0.168980 0.069410 0.926940 -0.486386
O7    O     O_R   0.358400 0.089990 0.927950 -0.528705
O8    O     O_R   0.544850 0.873850 0.939920 -0.536709
O9    O     O_R   0.536020 0.701900 0.936430 -0.507183
O10   O     O_R   0.277070 0.732810 0.932890 -0.503954
O11   O     O_3   0.339220 0.891590 0.991750 -0.268174
O12   O     O_R   0.811960 0.658090 0.547150 -0.488973
O13   O     O_R   0.045660 0.691380 0.441680 -0.517303
O14   O     O_R   0.811930 0.659460 0.430950 -0.502956
O15   O     O_R   0.757900 0.507620 0.421760 -0.504128
O16   O     O_R   0.988630 0.322990 0.439840 -0.521687
O17   O     O_R   0.196380 0.301720 0.573850 -0.515304
O18   O     O_R   0.199350 0.518300 0.571080 -0.494708
O19   O     O_R   0.045700 0.689900 0.567030 -0.522396
O20   O     O_R   0.757930 0.506140 0.547110 -0.505817
O21   O     O_R   0.988670 0.321620 0.556040 -0.502305
O22   O     O_3   0.000020 0.499990 0.500010 -0.266337
O23   O     O_R   0.113660 0.883270 0.047820 -0.520144
O24   O     O_R   0.186930 0.068530 0.043990 -0.482939
O25   O     O_R   0.377770 0.089040 0.054220 -0.507660
O26   O     O_R   0.562800 0.872960 0.056970 -0.522775

loop_
_geom_bond_atom_site_label_1
_geom_bond_atom_site_label_2
_ccdc_geom_bond_type
C24   C52   S    
C6    C69   T    
Cr5   O7    S    
C40   O12   A    
C8    C13   T    
C35   C53   S    
C28   O18   A    
C52   O17   A    
C41   C42   A    
C24   C27   A    
C66   H32   S    
Cr5   O26   S    
C39   C41   A    
Cr4   O24   S    
C48   C54   S    
C47   O25   A    
C45   C57   A    
C33   H39   S    
C37   C38   A    
C22   C32   A    
C44   H2    S    
C61   H28   S    
C24   C26   A    
C32   C61   S    
C18   C19   S    
C25   H38   S    
C53   O5    A    
C46   H4    S    
C11   C14   T    
C64   H37   S    
Cr5   O8    S    
C27   C29   A    
C29   C33   A    
C17   C20   S    
C9    C13   S    
C12   H9    S    
Cr6   O11   S    
C37   C42   A    
C10   H14   S    
C58   H21   S    
C26   H40   S    
C47   C69   S    
C63   H24   S    
C53   O10   A    
Cr3   O22   S    
Cr5   O11   S    
C45   C56   A    
Cr4   O6    S    
C52   O21   A    
C41   C46   A    
C2    H13   S    
C9    H1    S    
C15   C51   S    
C48   O2    A    
C29   C30   A    
C35   C43   A    
C17   H23   S    
C65   H33   S    
C22   C50   S    
C62   H26   S    
C27   H41   S    
Cr3   O21   S    
Cr5   O25   S    
Cr1   O22   S    
C3    H11   S    
C68   H8    S    
C2    C6    S    
C66   H31   S    
C16   O16   A    
C44   C46   A    
Cr3   O15   S    
C4    O14   A    
C60   H17   S    
C15   C20   T    
C54   C56   A    
C22   C31   A    
Cr6   O3    S    
C67   C68   A    
C51   O8    A    
C64   C67   S    
C61   H29   S    
Cr6   O2    S    
C39   H6    S    
C4    O15   A    
C1    O13   A    
C34   C68   A    
Cr2   O19   S    
C5    C7    T    
C64   H36   S    
Cr2   O22   S    
C54   C67   A    
C63   H25   S    
C58   C59   S    
C48   O26   A    
C58   H20   S    
C62   C63   S    
C16   O1    A    
Cr2   O12   S    
C23   C34   A    
C40   O20   A    
C17   C18   D    
C31   H34   S    
C50   O7    A    
C34   C45   A    
C35   C44   A    
C43   H42   S    
C12   C57   A    
C7    C16   S    
C59   H19   S    
C65   C66   S    
C4    C55   S    
Cr1   O18   S    
C42   C43   A    
C66   H30   S    
C9    C10   D    
C60   H16   S    
C25   C30   A    
Cr3   O20   S    
C19   C21   T    
C28   O19   A    
C51   O9    A    
C36   C39   A    
C50   O6    A    
C3    C5    S    
C23   C55   A    
Cr4   O23   S    
C60   H15   S    
Cr4   O11   S    
C37   H3    S    
C47   O24   A    
C18   H12   S    
Cr6   O9    S    
C64   C65   S    
C36   C38   A    
C2    C3    D    
C25   C26   A    
C63   H22   S    
C32   C33   A    
Cr2   O13   S    
Cr1   O4    S    
Cr3   O16   S    
C30   C31   A    
C21   C40   S    
C38   H5    S    
Cr1   O1    S    
C56   C58   S    
Cr6   O10   S    
C61   C62   S    
C1    O4    A    
C65   H35   S    
C12   C55   A    
C10   C11   S    
Cr2   O14   S    
C49   O3    A    
C59   C60   S    
C28   C36   S    
Cr4   O5    S    
C23   H10   S    
C49   O23   A    
Cr1   O17   S    
C57   H7    S    
C1    C14   S    
C59   H18   S    
C8    C49   S    
C62   H27   S    
