data_mof_unit_5003.cif
_audit_creation_date              2012-12-11T14:57:53-0500
_audit_creation_method            fapswitch 2.2
_symmetry_space_group_name_H-M    P1
_symmetry_Int_Tables_number       1
_space_group_crystal_system       triclinic
_cell_length_a                    6.931059
_cell_length_b                    16.750544
_cell_length_c                    17.066813
_cell_angle_alpha                 100.419166
_cell_angle_beta                  90.034269
_cell_angle_gamma                 90.799782
_cell_volume                      1948.56848981

loop_
_atom_site_label
_atom_site_type_symbol
_atom_type_description
_atom_site_fract_x
_atom_site_fract_y
_atom_site_fract_z
_atom_type_partial_charge
O1    O     O_R   0.506180 0.438940 0.579430 -0.546377
O2    O     O_R   0.170520 0.406230 0.413590 -0.548778
O3    O     O_R   0.005180 0.561060 0.420570 -0.539868
C1    C     C_R   0.339135 0.383746 0.384619 0.812530
O4    O     O_R   0.176140 0.429310 0.578370 -0.553084
O5    O     O_R   0.010830 0.584300 0.586530 -0.543844
C2    C     C_R   0.345734 0.413782 0.605289 0.662130
O6    O     O_R   0.500520 0.415700 0.413470 -0.520223
O7    O     O_3   0.340830 0.550820 0.502480 -0.353991
V1    V     V_3+5 0.064040 0.490570 0.499540 1.466901
O8    O     O_R   0.681400 0.593770 0.586410 -0.529435
C3    C     C_R   0.851440 0.617494 0.614032 0.791442
O9    O     O_R   0.675790 0.570690 0.421630 -0.501649
C4    C     C_R   0.846544 0.584617 0.393334 0.812043
V2    V     V_3+5 0.564650 0.509430 0.500460 1.537721
O10   O     O_3   0.837730 0.449180 0.497520 -0.386862
C5    C     C_R   0.891736 0.861477 0.166447 -0.100608
C6    C     C_R   0.873528 0.634558 0.329901 -0.091534
C7    C     C_R   0.095453 0.679280 0.233023 0.333920
C8    C     C_R   0.045519 0.626017 0.285103 -0.227552
C9    C     C_R   0.745498 0.695621 0.318934 -0.172901
C10   C     C_R   0.794929 0.750645 0.268305 0.089038
C11   C     C_R   0.970997 0.742920 0.225147 0.120822
C12   C     C_R   0.018209 0.798742 0.174531 -0.205575
C13   C     C_R   0.720245 0.869200 0.211633 -0.139448
C14   C     C_R   0.672209 0.814533 0.261440 -0.096845
H1    H     H_    0.149187 0.792021 0.139473 0.166427
H2    H     H_    0.619638 0.917149 0.207262 0.122744
H3    H     H_    0.537894 0.822055 0.294282 0.141868
H4    H     H_    0.144402 0.578269 0.291882 0.189040
H5    H     H_    0.611855 0.702629 0.352260 0.143041
H6    H     H_    0.098524 0.627194 0.963520 0.142433
C15   C     C_R   0.781110 0.911181 0.733636 -0.344981
C16   C     C_R   0.718876 0.928716 0.661606 0.561967
C17   C     C_R   0.712194 0.868458 0.594405 0.510749
C18   C     C_R   0.765530 0.788262 0.598542 0.166204
C19   C     C_R   0.820048 0.767848 0.673402 -0.031298
C20   C     C_R   0.832666 0.831563 0.741417 -0.063353
C21   C     C_R   0.865958 0.686791 0.682188 -0.121526
C22   C     C_R   0.928825 0.671265 0.757325 0.043808
C23   C     C_R   0.947551 0.735887 0.823672 0.067149
C24   C     C_R   0.899761 0.815848 0.815684 -0.095432
C25   C     C_R   0.971177 0.591378 0.768297 -0.168110
C26   C     C_R   0.032769 0.576107 0.841812 -0.101665
C27   C     C_R   0.051816 0.639393 0.906344 -0.091717
C28   C     C_R   0.008963 0.718358 0.897845 -0.149040
H7    H     H_    0.789473 0.961588 0.783025 0.188829
H8    H     H_    0.955948 0.539511 0.720638 0.099722
H9    H     H_    0.064746 0.514692 0.848806 0.137419
H10   H     H_    0.022928 0.765139 0.950340 0.099957
C29   C     C_R   0.231816 0.218352 0.394880 -0.166078
C30   C     C_R   0.187134 0.139012 0.403311 -0.077414
C31   C     C_R   0.216142 0.075186 0.340352 -0.092870
C32   C     C_R   0.290454 0.090189 0.268529 -0.166531
C33   C     C_R   0.335678 0.170233 0.257733 0.085658
C34   C     C_R   0.305339 0.235819 0.322294 0.053038
C35   C     C_R   0.414071 0.184952 0.184729 -0.089825
C36   C     C_R   0.463202 0.265617 0.176668 -0.101544
C37   C     C_R   0.430742 0.331837 0.240667 -0.110696
C38   C     C_R   0.352426 0.316681 0.314123 -0.140809
C39   C     C_R   0.541311 0.281787 0.104593 -0.258291
C40   C     C_R   0.589730 0.360337 0.095201 0.535829
C41   C     C_R   0.556921 0.425987 0.157071 0.223146
C42   C     C_R   0.475422 0.411976 0.228339 0.501406
H11   H     H_    0.208668 0.265465 0.446173 0.095191
H12   H     H_    0.130813 0.126981 0.459253 0.133939
H13   H     H_    0.182432 0.013564 0.347369 0.136656
H14   H     H_    0.314234 0.038098 0.222111 0.101966
H15   H     H_    0.566479 0.233817 0.054293 0.206620
C43   C     C_R   0.401156 0.134769 0.829780 -0.203374
C44   C     C_R   0.365415 0.363990 0.668790 -0.054881
C45   C     C_R   0.546076 0.337546 0.784385 -0.072221
C46   C     C_R   0.503567 0.387518 0.729372 -0.196927
C47   C     C_R   0.269112 0.288895 0.664570 -0.159642
C48   C     C_R   0.314281 0.237294 0.719008 0.036412
C49   C     C_R   0.453875 0.261648 0.779551 0.032660
C50   C     C_R   0.497652 0.210089 0.834248 0.512993
C51   C     C_R   0.266737 0.109605 0.767429 0.354440
C52   C     C_R   0.224436 0.161045 0.712846 -0.209884
H16   H     H_    0.653577 0.358052 0.829954 0.200975
H17   H     H_    0.119928 0.141597 0.665732 0.147631
H18   H     H_    0.581371 0.444706 0.733473 0.121285
H19   H     H_    0.165662 0.269224 0.617086 0.109929
O11   O     O_R   0.265840 0.084300 0.086750 -0.539604
O12   O     O_R   0.589750 0.070740 0.921690 -0.522443
O13   O     O_R   0.755020 0.915730 0.913400 -0.543076
C53   C     C_R   0.420258 0.085728 0.894303 0.824586
O14   O     O_R   0.595830 0.093740 0.086480 -0.541111
O15   O     O_R   0.761150 0.938890 0.079360 -0.543841
C54   C     C_R   0.427278 0.116716 0.115123 0.671070
O16   O     O_R   0.259710 0.061140 0.920790 -0.520580
O17   O     O_3   0.425260 0.949200 0.997610 -0.380435
V3    V     V_3+5 0.702060 0.009430 0.000450 1.501762
O18   O     O_R   0.090530 0.929220 0.078150 -0.551167
C55   C     C_R   0.919438 0.913741 0.105179 0.681732
O19   O     O_R   0.084440 0.906220 0.913360 -0.533808
C56   C     C_R   0.914386 0.883191 0.885414 0.709246
V4    V     V_3+5 0.201450 0.990520 0.999290 1.480317
O20   O     O_3   0.928380 0.050800 0.002390 -0.354662
F1    F     F_    0.655608 0.888770 0.524437 -0.658919
O21   O     O_3   0.770537 0.730488 0.529837 -0.647194
H20   H     H_    0.733974 0.754864 0.483453 0.325885
O22   O     O_3   0.601055 0.505048 0.150038 -0.615005
H21   H     H_    0.658064 0.505798 0.096959 0.342362
F2    F     F_    0.666695 0.372211 0.025015 -0.640141
F3    F     F_    0.436358 0.478531 0.283864 -0.693032
F4    F     F_    0.627862 0.234488 0.893565 -0.652869
O23   O     O_3   0.178551 0.034184 0.760859 -0.631326
H22   H     H_    0.093276 0.024923 0.713333 0.311909
O24   O     O_3   0.266532 0.671123 0.190929 -0.647729
H23   H     H_    0.338622 0.624792 0.204607 0.345168
F5    F     F_    0.669002 0.005692 0.656619 -0.648095

loop_
_geom_bond_atom_site_label_1
_geom_bond_atom_site_label_2
_ccdc_geom_bond_type
C26   H9    S    
C33   C34   A    
O21   H20   S    
C53   O16   A    
C43   C51   A    
C6    C9    A    
C16   F5    S    
C23   C24   A    
C4    C6    S    
O2    C1    A    
C7    C8    A    
C12   H1    S    
C47   H19   S    
C45   C49   A    
O17   V4    S    
C40   F2    S    
C8    H4    S    
C31   C32   A    
C26   C27   A    
C13   H2    S    
C9    H5    S    
C37   C42   A    
C19   C20   A    
C18   C19   A    
C16   C17   A    
C2    C44   S    
C32   H14   S    
O18   V4    S    
V2    O10   S    
O23   H22   S    
C51   O23   S    
C29   C34   A    
C29   H11   S    
O13   C56   A    
O24   H23   S    
C32   C33   A    
O8    V2    S    
C22   C25   A    
C17   C18   A    
O19   V4    S    
C23   C28   A    
C5    C55   S    
C25   H8    S    
V3    O20   S    
C1    O6    A    
C36   C39   A    
C37   C38   A    
O9    C4    A    
C43   C50   A    
O15   V3    S    
C39   C40   A    
O11   C54   A    
C43   C53   S    
O12   C53   A    
C5    C12   A    
C35   C54   S    
C29   C30   A    
C50   F4    S    
C49   C50   A    
C41   O22   S    
C47   C48   A    
C24   C56   S    
C21   C22   A    
C52   H17   S    
C51   C52   A    
C36   C37   A    
C27   C28   A    
C34   C38   A    
C18   O21   S    
O15   C55   A    
C7    C11   A    
C48   C49   A    
C40   C41   A    
O13   V3    S    
O12   V3    S    
C11   C12   A    
O19   C56   A    
C1    C38   S    
C15   C16   A    
H6    C27   S    
O3    C4    A    
O1    V2    S    
C22   C23   A    
O14   C54   A    
O6    V2    S    
C33   C35   A    
C25   C26   A    
C15   H7    S    
C17   F1    S    
O2    V1    S    
C46   H18   S    
C30   H12   S    
C30   C31   A    
O4    C2    A    
O7    V1    S    
C7    O24   S    
C39   H15   S    
O14   V3    S    
O1    C2    A    
C45   C46   A    
O5    V1    S    
C44   C47   A    
O8    C3    A    
C42   F3    S    
C28   H10   S    
C15   C20   A    
O11   V4    S    
C3    C21   S    
O9    V2    S    
C13   C14   A    
C5    C13   A    
O4    V1    S    
C45   H16   S    
O3    V1    S    
V1    O10   S    
O5    C3    A    
C35   C36   A    
O17   V3    S    
C6    C8    A    
O16   V4    S    
O7    V2    S    
O18   C55   A    
C31   H13   S    
C41   C42   A    
C20   C24   A    
C14   H3    S    
C19   C21   A    
V4    O20   S    
C10   C14   A    
C44   C46   A    
O22   H21   S    
C10   C11   A    
C9    C10   A    
C48   C52   A    
