data_mof_unit_33104.cif
_audit_creation_date              2012-12-10T20:25:42-0500
_audit_creation_method            fapswitch 2.2
_symmetry_space_group_name_H-M    P1
_symmetry_Int_Tables_number       1
_space_group_crystal_system       triclinic
_cell_length_a                    8.586256
_cell_length_b                    10.683292
_cell_length_c                    9.873222
_cell_angle_alpha                 89.770328
_cell_angle_beta                  98.439067
_cell_angle_gamma                 90.243084
_cell_volume                      895.846112944

loop_
_atom_site_label
_atom_site_type_symbol
_atom_type_description
_atom_site_fract_x
_atom_site_fract_y
_atom_site_fract_z
_atom_type_partial_charge
C1    C     C_R   0.504047 0.260033 0.500757 0.890736
C2    C     C_R   0.563829 0.935882 0.389178 -0.184386
C3    C     C_R   0.525453 0.871408 0.503839 -0.075031
C4    C     C_R   0.514494 0.935753 0.624420 0.040248
C5    C     C_3   0.396657 0.928886 0.722581 -0.209882
C6    C     C_3   0.399373 0.071335 0.722803 -0.504837
C7    C     C_R   0.432505 0.403475 0.063421 0.161583
C8    C     C_R   0.579095 0.589169 0.081631 -0.110674
C9    C     C_R   0.579168 0.589149 0.937728 -0.102082
C10   C     C_R   0.431357 0.403885 0.920600 0.223577
C11   C     C_3   0.261672 0.366327 0.895303 -0.568798
C12   C     C_R   0.201250 0.500390 0.464194 1.001436
C13   C     C_3   0.264239 0.364387 0.049842 -0.269988
C14   C     C_R   0.504087 0.739900 0.500315 0.879502
C15   C     C_R   0.798670 0.501375 0.535624 0.957279
C16   C     C_2   0.036143 0.499683 0.444667 -0.357486
C17   C     C_2   0.963540 0.505564 0.554365 -0.360519
C18   C     C_R   0.516907 0.063269 0.625309 0.113130
C19   C     C_R   0.526613 0.128637 0.504730 -0.079009
C20   C     C_R   0.564167 0.065402 0.389545 -0.170872
H1    H     H_    0.974788 0.492683 0.340391 0.189638
H2    H     H_    0.640663 0.662487 0.891049 0.147494
H3    H     H_    0.242985 0.273661 0.845107 0.212512
H4    H     H_    0.188052 0.437155 0.086318 0.174850
H5    H     H_    0.024608 0.514131 0.658133 0.188821
H6    H     H_    0.584190 0.115011 0.297716 0.192853
H7    H     H_    0.583853 0.887270 0.297229 0.168832
H8    H     H_    0.447824 0.887398 0.822796 0.157663
H9    H     H_    0.452465 0.111067 0.822969 0.223563
N1    N     N_R   0.498950 0.499140 0.142680 -0.121985
N2    N     N_R   0.498950 0.499180 0.857030 -0.102857
O1    O     O_R   0.500020 0.316790 0.614690 -0.621088
O2    O     O_R   0.500000 0.316760 0.385350 -0.620552
O3    O     O_R   0.271760 0.500010 0.587850 -0.604051
O4    O     O_R   0.271740 0.499970 0.358500 -0.618528
O5    O     O_R   0.500000 0.683240 0.614650 -0.625711
O6    O     O_R   0.499980 0.683210 0.385310 -0.627596
O7    O     O_R   0.728260 0.500030 0.641500 -0.622879
O8    O     O_R   0.728240 0.499990 0.412150 -0.618755
Zn1   Zn    Zn3+2 0.500010 0.500020 0.653130 0.970757
Zn2   Zn    Zn3+2 0.499990 0.499980 0.346870 0.964439
H10   H     H_    0.186019 0.441832 0.844734 0.217353
C21   C     C_2   0.244067 0.236688 0.110560 0.985527
O9    O     O_2   0.318857 0.147095 0.078269 -0.654813
O10   O     O_R   0.140155 0.221901 0.205928 -0.804848
H11   H     H_    0.137796 0.132914 0.241722 0.353485
C22   C     C_2   0.239627 0.873437 0.662877 0.972868
O11   O     O_2   0.180919 0.791178 0.725653 -0.633442
O12   O     O_R   0.162211 0.915123 0.536241 -0.812610
H12   H     H_    0.058719 0.869826 0.507405 0.334900
H13   H     H_    0.287714 0.116492 0.675886 0.216034
H14   H     H_    0.640539 0.662534 0.143363 0.144199

loop_
_geom_bond_atom_site_label_1
_geom_bond_atom_site_label_2
_ccdc_geom_bond_type
C7    C10   A    
C21   O9    D    
N1    Zn2   S    
C2    H7    S    
C6    H13   S    
C5    H8    S    
C21   O10   S    
C8    H14   S    
C19   C20   A    
O5    Zn1   S    
C17   H5    S    
C8    N1    A    
C13   C21   S    
C2    C3    A    
C4    C18   A    
O8    Zn2   S    
C7    N1    A    
O10   H11   S    
N2    Zn1   S    
C14   O6    A    
O7    Zn1   S    
C5    C22   S    
C15   O8    A    
C16   H1    S    
C3    C14   S    
C20   H6    S    
C15   O7    A    
O3    Zn1   S    
C11   H3    S    
C18   C19   A    
O1    Zn1   S    
O6    Zn2   S    
C5    C6    S    
O4    Zn2   S    
C6    C18   S    
C9    H2    S    
C1    C19   S    
C11   C13   S    
C16   C17   D    
C10   C11   S    
C9    N2    A    
C1    O2    A    
C3    C4    A    
C12   C16   S    
C7    C13   S    
C6    H9    S    
O2    Zn2   S    
C11   H10   S    
C22   O12   S    
O12   H12   S    
C15   C17   S    
C2    C20   A    
C8    C9    A    
C14   O5    A    
C12   O3    A    
C10   N2    A    
C1    O1    A    
C22   O11   D    
C13   H4    S    
C4    C5    S    
C12   O4    A    
