data_mof_unit_61083.cif
_audit_creation_date              2012-10-26T17:40:19-0400
_audit_creation_method            fapswitch 2.2
_symmetry_space_group_name_H-M    P1
_symmetry_Int_Tables_number       1
_space_group_crystal_system       triclinic
_cell_length_a                    37.414588
_cell_length_b                    30.36187
_cell_length_c                    21.721688
_cell_angle_alpha                 90.000031
_cell_angle_beta                  54.233405
_cell_angle_gamma                 90.0
_cell_volume                      20021.6833567

loop_
_atom_site_label
_atom_site_type_symbol
_atom_type_description
_atom_site_fract_x
_atom_site_fract_y
_atom_site_fract_z
_atom_type_partial_charge
C1    C     C_R   0.085180 0.500002 0.415290 0.550786
C2    C     C_R   0.970275 0.471527 0.249284 -0.030540
C3    C     C_R   0.202430 0.982016 0.746443 -0.114592
C4    C     C_R   0.274333 0.500328 0.227443 0.030216
C5    C     C_R   0.725666 0.500329 0.772556 0.030215
C6    C     C_R   0.774333 0.000329 0.227444 0.030215
C7    C     C_R   0.225667 0.000329 0.772557 0.030216
C8    C     C_R   0.000000 0.414828 1.000000 0.543409
C9    C     C_R   0.500000 0.914828 0.000000 0.543414
C10   C     C_R   0.000090 0.499010 0.880992 0.550256
C11   C     C_R   0.999910 0.499010 0.119008 0.550256
C12   C     C_R   0.500090 0.999010 0.880992 0.550258
C13   C     C_R   0.529724 0.971525 0.750717 -0.030541
C14   C     C_R   0.499910 0.999010 0.119008 0.550256
C15   C     C_R   0.000000 0.585083 0.000000 0.546782
C16   C     C_R   0.500000 0.085083 0.000000 0.546782
C17   C     C_R   0.500000 0.414921 1.000000 0.534729
C18   C     C_R   0.000000 0.914920 1.000000 0.534729
C19   C     C_R   0.414934 0.500074 0.085212 0.563046
C20   C     C_R   0.585066 0.500074 0.914787 0.563046
C21   C     C_R   0.914934 0.000074 0.085213 0.563047
C22   C     C_R   0.085066 0.000074 0.914787 0.563047
C23   C     C_R   0.500000 0.584908 0.000000 0.634053
C24   C     C_R   0.470276 0.971526 0.249283 -0.030541
C25   C     C_R   0.000000 0.084908 0.000000 0.634055
C26   C     C_R   0.038125 0.297259 0.978187 -0.125555
C27   C     C_R   0.961875 0.297259 0.021812 -0.125555
C28   C     C_R   0.538125 0.797259 0.978187 -0.125557
C29   C     C_R   0.461875 0.797259 0.021812 -0.125558
C30   C     C_R   0.942291 0.597451 0.733661 -0.068656
C31   C     C_R   0.057704 0.597453 0.266345 -0.068653
C32   C     C_R   0.442305 0.097454 0.733636 -0.068642
C33   C     C_R   0.557704 0.097456 0.266338 -0.068661
C34   C     C_R   0.038078 0.343156 0.978491 -0.145731
C35   C     C_R   0.028881 0.472893 0.687441 -0.148190
C36   C     C_R   0.961922 0.343156 0.021509 -0.145728
C37   C     C_R   0.538078 0.843156 0.978491 -0.145729
C38   C     C_R   0.461922 0.843156 0.021509 -0.145729
C39   C     C_R   0.000000 0.366457 1.000000 0.004445
C40   C     C_R   0.500000 0.866457 1.000000 0.004446
C41   C     C_R   1.000000 0.273995 0.000000 0.032823
C42   C     C_R   0.500000 0.773995 0.000000 0.032821
C43   C     C_R   0.465326 0.702279 0.062541 -0.095131
C44   C     C_R   0.534673 0.702279 0.937459 -0.095131
C45   C     C_R   0.965327 0.202279 0.062541 -0.095131
C46   C     C_R   0.971120 0.472892 0.312558 -0.148190
C47   C     C_R   0.034673 0.202279 0.937459 -0.095130
C48   C     C_R   0.465237 0.656333 0.063029 0.187650
C49   C     C_R   0.534763 0.656333 0.936971 0.187650
C50   C     C_R   0.965237 0.156333 0.063029 0.187651
C51   C     C_R   0.034763 0.156333 0.936971 0.187650
C52   C     C_R   0.500000 0.633072 0.000000 0.041946
C53   C     C_R   0.000000 0.133072 0.000000 0.041946
C54   C     C_R   0.500000 0.725496 0.000000 -0.052444
C55   C     C_R   1.000000 0.225496 0.000000 -0.052444
C56   C     C_R   0.962577 0.702602 0.018181 -0.120991
C57   C     C_R   0.528879 0.972891 0.687443 -0.148190
C58   C     C_R   0.037423 0.702602 0.981818 -0.120991
C59   C     C_R   0.537423 0.202602 0.981819 -0.120991
C60   C     C_R   0.462577 0.202602 0.018181 -0.120991
C61   C     C_R   0.962443 0.656709 0.018767 -0.129279
C62   C     C_R   0.037557 0.656709 0.981233 -0.129278
C63   C     C_R   0.537556 0.156710 0.981233 -0.129278
C64   C     C_R   0.462443 0.156709 0.018766 -0.129278
C65   C     C_R   1.000000 0.633428 0.000000 0.017733
C66   C     C_R   0.500000 0.133429 0.000000 0.017733
C67   C     C_R   0.934703 0.552868 0.754506 0.043592
C68   C     C_R   0.471121 0.972891 0.312557 -0.148190
C69   C     C_R   0.065295 0.552870 0.245496 0.043593
C70   C     C_R   0.434708 0.052874 0.754502 0.043590
C71   C     C_R   0.565294 0.052872 0.245497 0.043596
C72   C     C_R   1.000000 0.725794 1.000000 0.030542
C73   C     C_R   0.500000 0.225794 1.000000 0.030541
C74   C     C_R   0.486811 0.297370 0.960595 -0.121331
C75   C     C_R   0.513189 0.297370 0.039404 -0.121330
C76   C     C_R   0.013190 0.797370 0.039404 -0.121330
C77   C     C_R   0.986810 0.797370 0.960596 -0.121330
C78   C     C_R   0.487131 0.343263 0.960097 -0.129352
C79   C     C_R   0.998937 0.500056 0.686781 0.006701
C80   C     C_R   0.512869 0.343263 0.039903 -0.129352
C81   C     C_R   0.012870 0.843263 0.039902 -0.129352
C82   C     C_R   0.987130 0.843263 0.960097 -0.129352
C83   C     C_R   0.500000 0.366557 1.000000 0.018327
C84   C     C_R   0.000000 0.866556 1.000000 0.018327
C85   C     C_R   0.500000 0.274178 1.000000 0.030780
C86   C     C_R   1.000000 0.774178 1.000000 0.030780
C87   C     C_R   0.893559 0.534119 0.782623 -0.090290
C88   C     C_R   0.106441 0.534123 0.217376 -0.090291
C89   C     C_R   0.393558 0.034132 0.782634 -0.090296
C90   C     C_R   0.001063 0.500056 0.313218 0.006700
C91   C     C_R   0.606438 0.034124 0.217386 -0.090285
C92   C     C_R   0.860236 0.559837 0.790128 -0.112416
C93   C     C_R   0.139762 0.559842 0.209871 -0.112417
C94   C     C_R   0.360239 0.059854 0.790134 -0.112419
C95   C     C_R   0.639759 0.059844 0.209881 -0.112417
C96   C     C_R   0.868007 0.604178 0.768769 -0.108541
C97   C     C_R   0.131990 0.604183 0.231234 -0.108543
C98   C     C_R   0.368018 0.104192 0.768755 -0.108546
C99   C     C_R   0.631987 0.104186 0.231237 -0.108540
C100  C     C_R   0.969866 0.524996 0.813490 -0.148600
C101  C     C_R   0.498937 0.000056 0.686782 0.006699
C102  C     C_R   0.030133 0.524997 0.186511 -0.148600
C103  C     C_R   0.469868 0.024998 0.813488 -0.148601
C104  C     C_R   0.530132 0.024998 0.186512 -0.148600
C105  C     C_R   0.914820 0.500002 0.584710 0.550787
C106  C     C_R   0.501063 0.000056 0.313218 0.006699
C107  C     C_R   0.969002 0.526208 0.750334 -0.034299
C108  C     C_R   0.030997 0.526209 0.249666 -0.034299
C109  C     C_R   0.469004 0.026211 0.750333 -0.034300
C110  C     C_R   0.530995 0.026211 0.249667 -0.034299
C111  C     C_R   0.105612 0.445273 0.699592 -0.085835
C112  C     C_R   0.894390 0.445269 0.300403 -0.085833
C113  C     C_R   0.605607 0.945266 0.699601 -0.085832
C114  C     C_R   0.394392 0.945266 0.300399 -0.085832
C115  C     C_R   0.134023 0.414421 0.697607 -0.112138
C116  C     C_R   0.585180 0.000002 0.415290 0.550786
C117  C     C_R   0.865981 0.414416 0.302386 -0.112137
C118  C     C_R   0.634015 0.914410 0.697619 -0.112137
C119  C     C_R   0.365985 0.914411 0.302381 -0.112137
C120  C     C_R   0.116887 0.377781 0.745600 -0.101201
C121  C     C_R   0.883119 0.377775 0.254393 -0.101199
C122  C     C_R   0.616876 0.877770 0.745612 -0.101198
C123  C     C_R   0.383124 0.877771 0.254388 -0.101198
C124  C     C_R   0.071325 0.372013 0.795783 -0.101152
C125  C     C_R   0.928681 0.372009 0.204213 -0.101153
C126  C     C_R   0.571313 0.872005 0.795791 -0.101154
C127  C     C_R   0.414820 0.000002 0.584710 0.550787
C128  C     C_R   0.428686 0.872005 0.204209 -0.101154
C129  C     C_R   0.042792 0.403149 0.798874 -0.069524
C130  C     C_R   0.957213 0.403146 0.201123 -0.069528
C131  C     C_R   0.542783 0.903144 0.798880 -0.069533
C132  C     C_R   0.457216 0.903144 0.201120 -0.069533
C133  C     C_R   0.999269 0.500024 0.619595 0.556472
C134  C     C_R   0.000731 0.500024 0.380405 0.556471
C135  C     C_R   0.499269 0.000024 0.619595 0.556472
C136  C     C_R   0.500731 0.000024 0.380405 0.556470
C137  C     C_R   0.059813 0.439935 0.750608 0.048850
C138  C     C_R   0.000128 0.498210 0.813976 0.003107
C139  C     C_R   0.940189 0.439932 0.249389 0.048850
C140  C     C_R   0.559808 0.939930 0.750614 0.048849
C141  C     C_R   0.440191 0.939930 0.249386 0.048849
C142  C     C_R   0.202936 0.460590 0.305790 -0.124247
C143  C     C_R   0.797064 0.460590 0.694210 -0.124248
C144  C     C_R   0.702936 0.960590 0.305790 -0.124247
C145  C     C_R   0.297064 0.960590 0.694205 -0.124246
C146  C     C_R   0.157028 0.460422 0.350876 -0.132935
C147  C     C_R   0.842972 0.460422 0.649125 -0.132935
C148  C     C_R   0.657028 0.960422 0.350876 -0.132935
C149  C     C_R   0.999872 0.498210 0.186024 0.003107
C150  C     C_R   0.342972 0.960423 0.649120 -0.132933
C151  C     C_R   0.133635 0.500088 0.368042 0.016260
C152  C     C_R   0.866364 0.500088 0.631957 0.016261
C153  C     C_R   0.633635 0.000088 0.368043 0.016259
C154  C     C_R   0.366365 0.000088 0.631958 0.016263
C155  C     C_R   0.156975 0.539902 0.339794 -0.131836
C156  C     C_R   0.843025 0.539902 0.660203 -0.131837
C157  C     C_R   0.656975 0.039902 0.339797 -0.131841
C158  C     C_R   0.343025 0.039902 0.660212 -0.131835
C159  C     C_R   0.202869 0.539923 0.293347 -0.127704
C160  C     C_R   0.500128 0.998210 0.813976 0.003109
C161  C     C_R   0.797131 0.539923 0.706651 -0.127704
C162  C     C_R   0.702869 0.039923 0.293349 -0.127705
C163  C     C_R   0.297131 0.039922 0.706660 -0.127701
C164  C     C_R   0.226031 0.500284 0.276256 0.028273
C165  C     C_R   0.773969 0.500284 0.723743 0.028272
C166  C     C_R   0.726031 0.000284 0.276257 0.028272
C167  C     C_R   0.273969 0.000284 0.723745 0.028275
C168  C     C_R   0.297361 0.518598 0.154502 -0.116080
C169  C     C_R   0.702639 0.518598 0.845498 -0.116079
C170  C     C_R   0.797360 0.018596 0.154502 -0.116080
C171  C     C_R   0.499872 0.998211 0.186024 0.003109
C172  C     C_R   0.202639 0.018596 0.845501 -0.116080
C173  C     C_R   0.343281 0.518083 0.107682 -0.109920
C174  C     C_R   0.656720 0.518083 0.892318 -0.109921
C175  C     C_R   0.843280 0.018080 0.107681 -0.109923
C176  C     C_R   0.156719 0.018080 0.892320 -0.109923
C177  C     C_R   0.366628 0.500154 0.133994 0.036781
C178  C     C_R   0.633372 0.500154 0.866006 0.036781
C179  C     C_R   0.866628 0.000154 0.133994 0.036781
C180  C     C_R   0.133372 0.000154 0.866006 0.036781
C181  C     C_R   0.909042 0.622942 0.740368 -0.110048
C182  C     C_R   0.029726 0.471528 0.750714 -0.030540
C183  C     C_R   0.090953 0.622945 0.259639 -0.110048
C184  C     C_R   0.409058 0.122949 0.740338 -0.110046
C185  C     C_R   0.590953 0.122949 0.259632 -0.110048
C186  C     C_R   0.343477 0.482364 0.207405 -0.115977
C187  C     C_R   0.656523 0.482364 0.792594 -0.115977
C188  C     C_R   0.843477 0.982366 0.207407 -0.115976
C189  C     C_R   0.156523 0.982367 0.792593 -0.115975
C190  C     C_R   0.297571 0.482013 0.253555 -0.114592
C191  C     C_R   0.702429 0.482014 0.746444 -0.114591
C192  C     C_R   0.797571 0.982015 0.253557 -0.114591
Cl1   Cl    Cl    0.420271 0.628962 0.142521 -0.600003
Cl2   Cl    Cl    0.579729 0.628961 0.857479 -0.600002
Cl3   Cl    Cl    0.920271 0.128962 0.142521 -0.600002
Cl4   Cl    Cl    0.079729 0.128962 0.857479 -0.600001
Cu1   Cu    Cu3+1 0.000000 0.544040 0.500000 0.933817
Cu2   Cu    Cu3+1 0.500010 0.500000 0.938190 0.985630
Cu3   Cu    Cu3+1 0.999990 0.000000 0.061810 0.985629
Cu4   Cu    Cu3+1 0.000010 0.000000 0.938190 0.985630
Cu5   Cu    Cu3+1 0.500000 0.044040 0.500000 0.933817
Cu6   Cu    Cu3+1 0.000000 0.455940 0.500000 0.928502
Cu7   Cu    Cu3+1 0.500000 0.955940 0.500000 0.928502
Cu8   Cu    Cu3+1 0.955940 0.499960 0.044050 0.934045
Cu9   Cu    Cu3+1 0.044060 0.499960 0.955950 0.934045
Cu10  Cu    Cu3+1 0.455940 0.999960 0.044050 0.934044
Cu11  Cu    Cu3+1 0.544060 0.999960 0.955950 0.934045
Cu12  Cu    Cu3+1 0.499990 0.500000 0.061810 0.985629
H1    H     H_    0.842235 0.623968 0.774214 0.104364
H2    H     H_    0.941881 0.343206 0.168196 0.123237
H3    H     H_    0.976923 0.860492 0.929112 0.127382
H4    H     H_    0.887217 0.499805 0.799377 0.107617
H5    H     H_    0.112784 0.499810 0.200618 0.107617
H6    H     H_    0.387211 0.999821 0.799404 0.107619
H7    H     H_    0.612780 0.999810 0.200635 0.107615
H8    H     H_    0.828416 0.545369 0.812350 0.114126
H9    H     H_    0.171583 0.545376 0.187647 0.114125
H10   H     H_    0.328416 0.045392 0.812367 0.114120
H11   H     H_    0.671578 0.045378 0.187663 0.114126
H12   H     H_    0.558112 0.843202 0.831808 0.123239
H13   H     H_    0.441887 0.843202 0.168192 0.123239
H14   H     H_    0.007535 0.398245 0.837842 0.100802
H15   H     H_    0.992470 0.398243 0.162157 0.100803
H16   H     H_    0.507526 0.898242 0.837845 0.100804
H17   H     H_    0.492474 0.898242 0.162155 0.100804
H18   H     H_    0.220489 0.429713 0.292910 0.110277
H19   H     H_    0.779511 0.429713 0.707092 0.110278
H20   H     H_    0.720489 0.929713 0.292909 0.110278
H21   H     H_    0.157760 0.623974 0.225790 0.104365
H22   H     H_    0.279511 0.929714 0.707081 0.110276
H23   H     H_    0.139913 0.429278 0.372343 0.130727
H24   H     H_    0.860087 0.429278 0.627660 0.130727
H25   H     H_    0.639913 0.929278 0.372341 0.130727
H26   H     H_    0.360087 0.929279 0.627649 0.130726
H27   H     H_    0.139819 0.571006 0.352681 0.136591
H28   H     H_    0.860181 0.571006 0.647315 0.136591
H29   H     H_    0.639819 0.071006 0.352685 0.136591
H30   H     H_    0.360181 0.071005 0.647329 0.136591
H31   H     H_    0.220340 0.570870 0.271285 0.116849
H32   H     H_    0.342250 0.123985 0.774196 0.104364
H33   H     H_    0.779660 0.570870 0.728711 0.116850
H34   H     H_    0.720340 0.070870 0.271289 0.116851
H35   H     H_    0.279660 0.070869 0.728726 0.116847
H36   H     H_    0.360526 0.532188 0.051374 0.131462
H37   H     H_    0.639474 0.532188 0.948626 0.131462
H38   H     H_    0.860525 0.032184 0.051372 0.131462
H39   H     H_    0.139474 0.032183 0.948630 0.131462
H40   H     H_    0.360868 0.468213 0.228685 0.126797
H41   H     H_    0.639131 0.468213 0.771314 0.126798
H42   H     H_    0.860869 0.968216 0.228688 0.126799
H43   H     H_    0.657757 0.123977 0.225793 0.104365
H44   H     H_    0.139132 0.968218 0.771311 0.126800
H45   H     H_    0.914990 0.657292 0.723988 0.101772
H46   H     H_    0.085004 0.657295 0.276023 0.101772
H47   H     H_    0.415012 0.157297 0.723943 0.101770
H48   H     H_    0.585004 0.157300 0.276009 0.101773
H49   H     H_    0.280140 0.467933 0.309919 0.111857
H50   H     H_    0.719860 0.467934 0.690080 0.111858
H51   H     H_    0.780140 0.967937 0.309922 0.111859
H52   H     H_    0.219861 0.967939 0.690078 0.111857
H53   H     H_    0.067766 0.279899 0.961814 0.116441
H54   H     H_    0.138898 0.353709 0.743543 0.110883
H55   H     H_    0.932234 0.279899 0.038186 0.116441
H56   H     H_    0.567766 0.779899 0.961814 0.116442
H57   H     H_    0.432234 0.779899 0.038186 0.116442
H58   H     H_    0.067808 0.360383 0.961948 0.131469
H59   H     H_    0.932191 0.360383 0.038051 0.131470
H60   H     H_    0.567809 0.860383 0.961949 0.131470
H61   H     H_    0.432192 0.860383 0.038051 0.131471
H62   H     H_    0.438490 0.719903 0.111342 0.151070
H63   H     H_    0.561510 0.719903 0.888658 0.151070
H64   H     H_    0.938490 0.219903 0.111342 0.151070
H65   H     H_    0.861109 0.353702 0.256449 0.110884
H66   H     H_    0.061510 0.219903 0.888658 0.151071
H67   H     H_    0.933314 0.720038 0.032794 0.109125
H68   H     H_    0.066686 0.720038 0.967206 0.109125
H69   H     H_    0.566686 0.220038 0.967207 0.109125
H70   H     H_    0.433314 0.220038 0.032793 0.109125
H71   H     H_    0.933141 0.639465 0.033166 0.126879
H72   H     H_    0.066859 0.639465 0.966834 0.126878
H73   H     H_    0.566859 0.139465 0.966835 0.126878
H74   H     H_    0.433141 0.139465 0.033165 0.126878
H75   H     H_    0.476784 0.279933 0.929499 0.108300
H76   H     H_    0.638885 0.853696 0.743557 0.110884
H77   H     H_    0.523216 0.279933 0.070501 0.108299
H78   H     H_    0.023217 0.779933 0.070500 0.108299
H79   H     H_    0.976783 0.779933 0.929500 0.108299
H80   H     H_    0.973829 0.612352 0.712383 0.108102
H81   H     H_    0.026166 0.612352 0.287626 0.108102
H82   H     H_    0.473846 0.112350 0.712346 0.108105
H83   H     H_    0.526167 0.112356 0.287611 0.108100
H84   H     H_    0.946858 0.545149 0.862490 0.129472
H85   H     H_    0.053140 0.545150 0.137511 0.129471
H86   H     H_    0.446862 0.045153 0.862487 0.129469
H87   H     H_    0.361115 0.853697 0.256443 0.110884
H88   H     H_    0.553138 0.045153 0.137513 0.129469
H89   H     H_    0.051411 0.452367 0.638671 0.125542
H90   H     H_    0.948590 0.452365 0.361326 0.125544
H91   H     H_    0.551408 0.952363 0.638676 0.125545
H92   H     H_    0.448592 0.952363 0.361324 0.125545
H93   H     H_    0.119219 0.473290 0.661576 0.107276
H94   H     H_    0.880782 0.473286 0.338419 0.107276
H95   H     H_    0.619216 0.973282 0.661585 0.107276
H96   H     H_    0.380783 0.973283 0.338415 0.107276
H97   H     H_    0.169316 0.418733 0.658453 0.107685
H98   H     H_    0.058127 0.343210 0.831800 0.123236
H99   H     H_    0.830687 0.418726 0.341539 0.107685
H100  H     H_    0.669309 0.918720 0.658467 0.107684
H101  H     H_    0.330690 0.918721 0.341532 0.107684
H102  H     H_    0.279749 0.532723 0.133604 0.106371
H103  H     H_    0.720251 0.532723 0.866395 0.106371
H104  H     H_    0.779749 0.032720 0.133603 0.106373
H105  H     H_    0.220250 0.032718 0.866400 0.106371
H106  H     H_    0.476924 0.360492 0.929111 0.127382
H107  H     H_    0.523076 0.360492 0.070889 0.127382
H108  H     H_    0.023077 0.860492 0.070888 0.127382
O1    O     O_R   0.064270 0.537190 0.435730 -0.509062
O2    O     O_R   0.564280 0.500010 0.987920 -0.523480
O3    O     O_R   0.935720 0.000010 0.012080 -0.523481
O4    O     O_R   0.064280 0.000010 0.987920 -0.523481
O5    O     O_R   0.500000 0.564270 0.052190 -0.470573
O6    O     O_R   0.500000 0.564270 0.947810 -0.470572
O7    O     O_R   0.000000 0.064270 0.052190 -0.470573
O8    O     O_R   0.000000 0.064270 0.947810 -0.470573
O9    O     O_R   0.064260 0.462790 0.435740 -0.515724
O10   O     O_R   0.935740 0.462790 0.564260 -0.515724
O11   O     O_R   0.564260 0.962790 0.435740 -0.515725
O12   O     O_R   0.935730 0.537190 0.564270 -0.509063
O13   O     O_R   0.435740 0.962790 0.564260 -0.515722
O14   O     O_R   0.000000 0.537190 0.590180 -0.503684
O15   O     O_R   0.000000 0.537190 0.409820 -0.503684
O16   O     O_R   0.500000 0.037190 0.590180 -0.503688
O17   O     O_R   0.500000 0.037190 0.409820 -0.503679
O18   O     O_R   0.999990 0.462790 0.590190 -0.511560
O19   O     O_R   0.000010 0.462790 0.409810 -0.511560
O20   O     O_R   0.499990 0.962790 0.590190 -0.511559
O21   O     O_R   0.500010 0.962790 0.409810 -0.511562
O22   O     O_R   0.962800 0.435700 0.037190 -0.509343
O23   O     O_R   0.564270 0.037190 0.435730 -0.509062
O24   O     O_R   0.037200 0.435700 0.962810 -0.509345
O25   O     O_R   0.462800 0.935700 0.037190 -0.509343
O26   O     O_R   0.537200 0.935700 0.962810 -0.509344
O27   O     O_R   0.962790 0.499970 0.947030 -0.518225
O28   O     O_R   0.037210 0.499970 0.052970 -0.518225
O29   O     O_R   0.462790 0.999970 0.947030 -0.518225
O30   O     O_R   0.537210 0.999970 0.052970 -0.518224
O31   O     O_R   0.037190 0.499990 0.872630 -0.494809
O32   O     O_R   0.962810 0.499990 0.127370 -0.494809
O33   O     O_R   0.537190 0.999990 0.872630 -0.494810
O34   O     O_R   0.435730 0.037190 0.564270 -0.509062
O35   O     O_R   0.462810 0.999990 0.127370 -0.494810
O36   O     O_R   0.962790 0.564230 0.037210 -0.513442
O37   O     O_R   0.037210 0.564230 0.962790 -0.513443
O38   O     O_R   0.462790 0.064230 0.037210 -0.513443
O39   O     O_R   0.537210 0.064230 0.962790 -0.513443
O40   O     O_R   0.499980 0.435740 0.052200 -0.522836
O41   O     O_R   0.500020 0.435740 0.947800 -0.522835
O42   O     O_R   0.999980 0.935740 0.052200 -0.522835
O43   O     O_R   0.000020 0.935740 0.947800 -0.522835
O44   O     O_R   0.435720 0.500010 0.116470 -0.492034
O45   O     O_R   0.564280 0.500010 0.883530 -0.492035
O46   O     O_R   0.935720 0.000010 0.116470 -0.492036
O47   O     O_R   0.064280 0.000010 0.883530 -0.492036
O48   O     O_R   0.435720 0.500010 0.012080 -0.523481

loop_
_geom_bond_atom_site_label_1
_geom_bond_atom_site_label_2
_ccdc_geom_bond_type
C145  H22   S    
Cu4   O43   S    
C29   C42   A    
C87   H4    S    
C142  C146  A    
C190  H49   S    
C192  H51   S    
C62   H72   S    
C130  H15   S    
C25   C53   S    
C154  C158  A    
C3    C189  A    
C145  C167  A    
C90   C134  S    
C95   C99   A    
Cu3   O46   S    
C89   C94   A    
C24   C171  A    
C91   H7    S    
C131  C140  A    
C8    O24   A    
C152  C156  A    
C56   C72   A    
C1    O1    A    
C112  H94   S    
C169  C174  A    
C131  H16   S    
C151  C155  A    
Cu3   O4    S    
C59   C73   A    
Cu4   O3    S    
C161  H33   S    
C23   O5    A    
Cu2   O41   S    
C134  O15   A    
C7    C172  A    
C127  O13   A    
C80   C83   A    
C35   H89   S    
C126  H12   S    
C97   C183  A    
C102  H85   S    
C18   O43   A    
C50   C53   A    
Cu6   O10   S    
C99   H43   S    
Cu10  Cu11  S    
C179  C188  A    
C111  H93   S    
C22   O4    A    
C177  C186  A    
C4    C168  A    
C64   C66   A    
C186  C190  A    
Cu9   O37   S    
C50   Cl3   S    
C43   C54   A    
C24   C141  S    
C69   C88   A    
C158  H30   S    
C104  C171  A    
C74   H75   S    
C82   C84   A    
C148  C153  A    
C136  O21   A    
C99   C185  A    
C111  C137  A    
C103  H86   S    
C17   O41   A    
C129  H14   S    
Cu9   O24   S    
C11   O32   A    
C46   H90   S    
C143  H19   S    
Cu4   O8    S    
Cu1   O12   S    
C119  C123  A    
C59   C63   A    
C60   C64   A    
C100  H84   S    
C104  C110  A    
C77   C82   A    
Cu10  O25   S    
Cu6   O19   S    
C138  C182  A    
C38   H61   S    
C10   O27   A    
C33   C71   A    
C102  C149  A    
C61   C65   A    
C21   C179  S    
C129  C137  A    
C10   C138  S    
C157  C162  A    
C161  C165  A    
C89   H6    S    
C78   H106  S    
C9    O26   A    
C124  H98   S    
C11   O28   A    
Cu2   O6    S    
C123  H87   S    
C185  H48   S    
C186  H40   S    
Cu2   O48   S    
Cu8   O36   S    
C68   H92   S    
C30   C67   A    
C189  H44   S    
C45   C50   A    
C37   C40   A    
C180  C189  A    
C184  H47   S    
C13   C57   A    
C92   C96   A    
C93   H9    S    
C20   O45   A    
C118  C122  A    
C191  H50   S    
Cu5   O17   S    
Cu5   O23   S    
C143  C165  A    
C29   C38   A    
C16   O39   A    
C163  H35   S    
C173  C177  A    
C19   C177  S    
C145  C150  A    
C106  C136  S    
Cu5   Cu7   S    
C76   H78   S    
Cu12  O44   S    
C127  C154  S    
C11   C149  S    
C146  H23   S    
C101  C135  S    
C20   O2    A    
C58   H68   S    
C21   O3    A    
C88   H5    S    
C155  C159  A    
C34   C39   A    
C114  C141  A    
C4    C190  A    
C5    C191  A    
C32   C70   A    
C51   C53   A    
C37   H60   S    
C187  H41   S    
C121  C125  A    
C64   H74   S    
C81   H108  S    
Cu3   O7    S    
C25   O7    A    
C48   C52   A    
Cu1   Cu6   S    
C73   C85   S    
C158  C163  A    
C156  C161  A    
C74   C78   A    
C70   C89   A    
C93   C97   A    
C6    C170  A    
Cu8   O22   S    
C132  C141  A    
C7    C167  S    
C159  H31   S    
C13   C160  A    
C36   C39   A    
C14   C171  S    
C57   H91   S    
C128  H13   S    
C31   H81   S    
C57   C101  A    
Cu10  O35   S    
C188  C192  A    
C19   O48   A    
C90   C108  A    
C18   C84   S    
Cu8   O27   S    
C23   C52   S    
C28   C37   A    
C156  H28   S    
C20   C178  S    
C35   C79   A    
C105  O10   A    
C168  H102  S    
C74   C85   A    
C98   C184  A    
C136  O17   A    
C91   C95   A    
C146  C151  A    
C44   C54   A    
C12   O29   A    
Cu3   Cu4   S    
Cu8   Cu9   S    
C45   C55   A    
Cu1   O1    S    
C95   H11   S    
C159  C164  A    
C122  H76   S    
C172  C176  A    
C58   C62   A    
C45   H64   S    
C6    C166  S    
C135  O16   A    
C29   H57   S    
C47   H66   S    
C26   H53   S    
Cu12  O5    S    
C2    C139  S    
C10   O31   A    
Cu1   O15   S    
C3    C7    A    
C142  C164  A    
C112  C117  A    
C48   Cl1   S    
C103  C160  A    
C98   H32   S    
C49   Cl2   S    
C94   C98   A    
C101  C109  A    
C15   C65   S    
C71   C110  S    
C60   C73   A    
C41   C55   S    
C133  O18   A    
C162  C166  A    
C78   C83   A    
C75   C85   A    
Cu11  O26   S    
C183  H46   S    
C142  H18   S    
C162  H34   S    
C174  C178  A    
C1    C151  S    
C63   C66   A    
C60   H70   S    
C87   C92   A    
C30   H80   S    
C61   H71   S    
C16   O38   A    
C115  H97   S    
C130  C139  A    
C34   H58   S    
Cu11  O33   S    
C170  C175  A    
C17   O40   A    
C13   C140  S    
C22   C180  S    
C96   C181  A    
C169  H103  S    
C47   C51   A    
C170  H104  S    
C105  O12   A    
C144  C166  A    
Cu10  O38   S    
C147  H24   S    
C31   C69   A    
C49   C52   A    
C27   H55   S    
C75   H77   S    
C79   C107  A    
C12   C160  S    
C116  C153  S    
C100  C138  A    
Cu5   O34   S    
C44   H63   S    
C178  C187  A    
C23   O6    A    
C157  H29   S    
C120  H54   S    
C59   H69   S    
C30   C181  A    
C16   C66   S    
C76   C86   A    
C18   O42   A    
C105  C152  S    
C14   O30   A    
C9    O25   A    
C72   C86   S    
C46   C90   A    
Cu7   O11   S    
C27   C36   A    
C104  H88   S    
Cu4   O47   S    
C103  C109  A    
C150  H26   S    
C42   C54   S    
C38   C40   A    
C173  H36   S    
C15   O37   A    
C124  C129  A    
C92   H8    S    
C116  O23   A    
C9    C40   S    
C153  C157  A    
Cu5   O16   S    
C121  H65   S    
C24   C68   A    
C71   C91   A    
C119  H101  S    
C6    C192  A    
C15   O36   A    
C5    C169  A    
C56   C61   A    
C33   C185  A    
C127  O34   A    
C174  H37   S    
C32   H82   S    
C44   C49   A    
C19   O44   A    
Cu6   O9    S    
C144  C148  A    
C67   C107  S    
Cu7   O13   S    
C2    C46   A    
C35   C182  A    
C143  C147  A    
C134  O19   A    
C80   H107  S    
C148  H25   S    
C51   Cl4   S    
C12   O33   A    
C3    H52   S    
C14   O35   A    
C94   H10   S    
Cu6   O18   S    
C116  O11   A    
C117  C121  A    
C43   H62   S    
C125  C130  A    
C26   C34   A    
C175  H38   S    
C97   H21   S    
C117  H99   S    
C135  O20   A    
C118  H100  S    
C4    C164  S    
C102  C108  A    
C8    C39   S    
C5    C165  S    
C75   C80   A    
C187  C191  A    
C2    C149  A    
C112  C139  A    
C68   C106  A    
C128  C132  A    
Cu11  O39   S    
C33   H83   S    
C69   C108  S    
C176  H39   S    
C168  C173  A    
C79   C133  S    
C77   H79   S    
Cu2   Cu12  S    
C133  O14   A    
Cu11  O30   S    
C175  C179  A    
C137  C182  S    
C28   H56   S    
Cu12  O40   S    
Cu9   O28   S    
C17   C83   S    
C122  C126  A    
C163  C167  A    
C70   C109  S    
Cu7   O20   S    
C27   C41   A    
C176  C180  A    
C155  H27   S    
C113  H95   S    
C56   H67   S    
C114  H96   S    
C113  C140  A    
C188  H42   S    
C181  H45   S    
C8    O22   A    
C77   C86   A    
Cu10  O29   S    
C22   O47   A    
C81   C84   A    
C63   H73   S    
C47   C55   A    
C82   H3    S    
C43   C48   A    
C88   C93   A    
Cu7   O21   S    
C100  C107  A    
C96   H1    S    
C62   C65   A    
C31   C183  A    
Cu12  O2    S    
C32   C184  A    
Cu9   O31   S    
C114  C119  A    
C76   C81   A    
C125  H2    S    
C67   C87   A    
C21   O46   A    
C172  H105  S    
C147  C152  A    
Cu1   O14   S    
C132  H17   S    
C58   C72   A    
C123  C128  A    
C25   O8    A    
C126  C131  A    
Cu8   O32   S    
C28   C42   A    
C36   H59   S    
Cu3   O42   S    
C113  C118  A    
C106  C110  A    
C115  C120  A    
C150  C154  A    
C144  H20   S    
C111  C115  A    
C1    O9    A    
C120  C124  A    
C26   C41   A    
Cu2   O45   S    
