data_mof_unit_15314.cif
_audit_creation_date              2013-03-05T15:45:59-0500
_audit_creation_method            fapswitch 2.2
_symmetry_space_group_name_H-M    P1
_symmetry_Int_Tables_number       1
_space_group_crystal_system       triclinic
_cell_length_a                    14.854457
_cell_length_b                    14.625629
_cell_length_c                    10.312901
_cell_angle_alpha                 89.847513
_cell_angle_beta                  82.939068
_cell_angle_gamma                 90.044249
_cell_volume                      2223.5358167

loop_
_atom_site_label
_atom_site_type_symbol
_atom_site_description
_atom_site_fract_x
_atom_site_fract_y
_atom_site_fract_z
_atom_type_partial_charge
O1    O     O_R   0.398960 0.091100 0.433300 -0.546289
O2    O     O_R   0.601040 0.908900 0.566700 -0.534277
O3    O     O_R   0.601040 0.091100 0.566700 -0.569844
O4    O     O_R   0.398960 0.908900 0.433300 -0.597329
O5    O     O_R   0.898960 0.591100 0.433300 -0.547988
O6    O     O_R   0.101040 0.408900 0.566700 -0.547489
O7    O     O_R   0.101040 0.591100 0.566700 -0.565949
O8    O     O_R   0.898960 0.408900 0.433300 -0.605272
O9    O     O_R   0.430710 0.091090 0.646210 -0.616585
O10   O     O_R   0.569290 0.908910 0.353790 -0.637911
O11   O     O_R   0.569290 0.091090 0.353790 -0.536111
O12   O     O_R   0.430710 0.908910 0.646210 -0.618571
O13   O     O_R   0.930710 0.591090 0.646210 -0.624836
O14   O     O_R   0.069290 0.408910 0.353790 -0.623147
O15   O     O_R   0.069290 0.591090 0.353790 -0.542460
O16   O     O_R   0.930710 0.408910 0.646210 -0.616644
C1    C     C_R   0.383847 0.118829 0.554104 0.783541
C2    C     C_R   0.613237 0.878636 0.447994 0.846077
C3    C     C_R   0.611913 0.123100 0.447605 0.823654
C4    C     C_R   0.384964 0.880057 0.553807 0.822855
C5    C     C_R   0.888111 0.623425 0.551623 0.782995
C6    C     C_R   0.113392 0.378827 0.447437 0.858674
C7    C     C_R   0.111939 0.623105 0.447591 0.823078
C8    C     C_R   0.884854 0.380225 0.553867 0.816017
C9    C     C_2   0.483582 0.989897 0.928927 0.183946
C10   C     C_2   0.501538 0.967511 0.065742 0.176804
C11   C     C_2   0.983411 0.487729 0.928836 0.157469
C12   C     C_2   0.999359 0.463220 0.066578 0.176500
Zn1   Zn    Zn3+2 0.478810 0.000000 0.357840 1.075560
Zn2   Zn    Zn3+2 0.521190 0.000000 0.642160 1.072797
Zn3   Zn    Zn3+2 0.978810 0.500000 0.357840 1.080302
Zn4   Zn    Zn3+2 0.021190 0.500000 0.642160 1.063119
N1    N     N_2   0.549450 0.000000 0.831550 -0.018124
N2    N     N_2   0.450550 0.000000 0.168450 -0.017149
N3    N     N_2   0.049450 0.500000 0.831550 -0.022809
N4    N     N_2   0.950550 0.500000 0.168450 -0.011949
H1    H     H_    0.616412 0.256874 0.609368 0.210654
H2    H     H_    0.229294 0.895441 0.469668 0.186324
H3    H     H_    0.234372 0.108179 0.449888 0.192583
H4    H     H_    0.782759 0.900840 0.457025 0.161622
H5    H     H_    0.116191 0.756901 0.609366 0.187070
H6    H     H_    0.729713 0.394968 0.467559 0.222076
H7    H     H_    0.887614 0.755521 0.385362 0.183415
H8    H     H_    0.106940 0.231107 0.580640 0.194468
C13   C     C_2   0.309192 0.817686 0.586205 0.124557
C14   C     C_2   0.668540 0.204222 0.423881 0.155305
C15   C     C_2   0.679774 0.806390 0.425943 0.135544
C16   C     C_2   0.305228 0.177885 0.586699 0.154275
C17   C     C_2   0.808794 0.318325 0.586530 0.092307
C18   C     C_2   0.168531 0.704288 0.423938 0.164692
C19   C     C_2   0.177874 0.304978 0.422942 0.102549
C20   C     C_2   0.830852 0.704836 0.570573 0.191930
C21   C     C_2   0.234198 0.834230 0.528544 -0.229038
C22   C     C_2   0.664756 0.265384 0.522007 -0.154086
C23   C     C_2   0.764505 0.829236 0.448475 -0.167284
C24   C     C_2   0.234930 0.165067 0.517407 -0.200322
C25   C     C_2   0.734170 0.334392 0.527856 -0.191605
C26   C     C_2   0.164668 0.765403 0.522148 -0.204033
C27   C     C_2   0.166531 0.234390 0.507943 -0.197125
C28   C     C_2   0.834676 0.762784 0.467426 -0.177111
N5    N     N_R   0.401840 0.078826 0.148877 0.287446
O17   O     O_R   0.316630 0.082983 0.195965 -0.374412
O18   O     O_R   0.444000 0.153109 0.106093 -0.279412
N6    N     N_R   0.636746 0.021820 0.858154 0.287231
O19   O     O_R   0.705053 0.005033 0.770128 -0.268529
O20   O     O_R   0.649346 0.074294 0.956230 -0.308190
N7    N     N_R   0.915136 0.585779 0.145588 0.270616
O21   O     O_R   0.830780 0.602987 0.187120 -0.337543
O22   O     O_R   0.969327 0.653411 0.108183 -0.349757
N8    N     N_R   0.138581 0.509954 0.858823 0.292302
O23   O     O_R   0.204562 0.491011 0.768110 -0.224332
O24   O     O_R   0.156667 0.556284 0.960224 -0.293683
N9    N     N_R   0.728302 0.213665 0.303086 0.222836
O25   O     O_R   0.747552 0.142636 0.229148 -0.345313
O26   O     O_R   0.757378 0.293513 0.260641 -0.402568
N10   N     N_R   0.318808 0.739486 0.669083 0.229269
O27   O     O_R   0.399288 0.711762 0.688571 -0.301873
O28   O     O_R   0.248351 0.700886 0.734493 -0.315942
N11   N     N_R   0.306397 0.248453 0.684046 0.239943
O29   O     O_R   0.383080 0.274926 0.720419 -0.309860
O30   O     O_R   0.231216 0.280332 0.745427 -0.344626
N12   N     N_R   0.648209 0.713351 0.417670 0.211707
O31   O     O_R   0.561593 0.696063 0.435789 -0.347011
O32   O     O_R   0.703834 0.646204 0.386688 -0.322122
N13   N     N_R   0.228341 0.713825 0.303188 0.232487
O33   O     O_R   0.246993 0.643016 0.228586 -0.282239
O34   O     O_R   0.258244 0.793595 0.261581 -0.406125
N14   N     N_R   0.817493 0.241187 0.671550 0.215556
O35   O     O_R   0.897639 0.212261 0.690701 -0.388702
O36   O     O_R   0.746678 0.205639 0.740160 -0.310830
N15   N     N_R   0.768201 0.715951 0.687884 0.232276
O37   O     O_R   0.749686 0.647056 0.766754 -0.404611
O38   O     O_R   0.734728 0.795799 0.721692 -0.334055
N16   N     N_R   0.255134 0.316716 0.324249 0.222106
O39   O     O_R   0.318791 0.255661 0.304547 -0.272030
O40   O     O_R   0.264102 0.392154 0.256612 -0.317573
C29   C     C_3   0.568108 0.889951 0.076751 -0.410360
C30   C     C_3   0.520206 0.800396 0.123064 -0.383211
C31   C     C_3   0.587055 0.720704 0.113223 -0.600866
H9    H     H_    0.610277 0.705254 0.009051 0.278035
H10   H     H_    0.647177 0.737647 0.162527 0.270752
H11   H     H_    0.553506 0.658885 0.159569 0.285893
H12   H     H_    0.486623 0.806430 0.224736 0.288247
H13   H     H_    0.466889 0.784147 0.060231 0.237869
H14   H     H_    0.605350 0.874720 0.979208 0.229683
H15   H     H_    0.621900 0.910611 0.135743 0.249851
C32   C     C_3   0.383538 0.986249 0.905535 -0.426562
C33   C     C_3   0.337361 0.895243 0.948255 -0.385115
C34   C     C_3   0.237714 0.894990 0.925450 -0.672257
H16   H     H_    0.200018 0.948908 0.985250 0.260803
H17   H     H_    0.231139 0.907393 0.820811 0.226851
H18   H     H_    0.206971 0.827611 0.954398 0.305125
H19   H     H_    0.373089 0.838219 0.892840 0.273691
H20   H     H_    0.340059 0.883693 0.053985 0.265834
H21   H     H_    0.344608 0.043110 0.954681 0.242086
H22   H     H_    0.372354 0.999297 0.806048 0.249473
C35   C     C_3   0.058304 0.379763 0.079098 -0.376625
C36   C     C_3   0.003054 0.296924 0.136017 -0.378873
C37   C     C_3   0.063233 0.213075 0.144098 -0.715104
H23   H     H_    0.094510 0.192905 0.044907 0.278364
H24   H     H_    0.117711 0.227386 0.205520 0.269401
H25   H     H_    0.021715 0.155105 0.188032 0.258067
H26   H     H_    0.967716 0.312321 0.234428 0.273957
H27   H     H_    0.950749 0.279463 0.072075 0.244937
H28   H     H_    0.090802 0.358831 0.980827 0.224943
H29   H     H_    0.115580 0.396837 0.133374 0.282878
C38   C     C_3   0.883276 0.487990 0.906204 -0.401512
C39   C     C_3   0.833635 0.398790 0.949104 -0.428598
C40   C     C_3   0.734640 0.401689 0.923162 -0.581072
H30   H     H_    0.698168 0.457647 0.980207 0.270049
H31   H     H_    0.730056 0.412957 0.817698 0.240942
H32   H     H_    0.701129 0.335786 0.953295 0.297343
H33   H     H_    0.868137 0.340252 0.895695 0.274898
H34   H     H_    0.834279 0.388046 0.055414 0.267006
H35   H     H_    0.846994 0.545870 0.957046 0.254092
H36   H     H_    0.872453 0.501029 0.806586 0.275227

loop_
_geom_bond_atom_site_label_1
_geom_bond_atom_site_label_2
_geom_bond_distance
_ccdc_geom_bond_type
O6    Zn4   1.889131 S    
O2    C2    1.294564 A    
N9    O25   1.301327 A    
O13   Zn4   1.890056 S    
C1    C16   1.459269 S    
O14   Zn3   1.890056 S    
C39   C40   1.527267 S    
C29   C30   1.536773 S    
C3    C14   1.456510 S    
N13   O33   1.301334 A    
O11   C3    1.307157 A    
C13   N10   1.443644 S    
C16   N11   1.443326 S    
N10   O28   1.301003 A    
H5    C26   1.087701 S    
C12   C35   1.517180 S    
C34   H17   1.109899 S    
O7    C7    1.304654 A    
H8    C27   1.088365 S    
C30   H12   1.108164 S    
O6    C6    1.299009 A    
C17   C25   1.347097 D    
C33   C34   1.527048 S    
C15   N12   1.445079 S    
C33   H20   1.108540 S    
N5    O18   1.302181 A    
C36   C37   1.526239 S    
C20   C28   1.354010 D    
C18   N13   1.444436 S    
C11   C38   1.533743 S    
C10   N2    1.314298 D    
H3    C24   1.087048 S    
N3    N8    1.394541 S    
C32   C33   1.535388 S    
O3    C3    1.304491 A    
N8    O23   1.299590 A    
C35   H29   1.103197 S    
C4    C13   1.454291 S    
C40   H32   1.110424 S    
C29   H14   1.110037 S    
O15   C7    1.307286 A    
C13   C21   1.347465 D    
O16   C8    1.306930 A    
C23   C28   1.456002 S    
C2    C15   1.446618 S    
N9    O26   1.300771 A    
C17   N14   1.442612 S    
O12   C4    1.307229 A    
N5    O17   1.300305 A    
C39   H33   1.110339 S    
H6    C25   1.087781 S    
C37   H24   1.107422 S    
N4    N7    1.391475 S    
N13   O34   1.300874 A    
N7    O21   1.298491 A    
C18   C26   1.348582 D    
Zn4   N3    2.047592 S    
C38   H36   1.075775 S    
C34   H18   1.110420 S    
N15   O37   1.301069 A    
N11   O30   1.301478 A    
C7    C18   1.456890 S    
C19   N16   1.447108 S    
C11   N3    1.325876 D    
C9    C10   1.503114 S    
Zn1   N2    2.047592 S    
N2    N5    1.389027 S    
N7    O22   1.302172 A    
N6    O20   1.302875 A    
C33   H19   1.110174 S    
O3    Zn2   1.884911 S    
C39   H34   1.108364 S    
N15   O38   1.301168 A    
C31   H9    1.111079 S    
C37   H23   1.110978 S    
H4    C23   1.088111 S    
C14   C22   1.348454 D    
O1    Zn1   1.889131 S    
O13   C5    1.313537 A    
C36   H27   1.109189 S    
N10   O27   1.301302 A    
N16   O40   1.301726 A    
C32   H21   1.101737 S    
O9    Zn2   1.890056 S    
H1    C22   1.087706 S    
H7    C28   1.087609 S    
O9    C1    1.308591 A    
C31   H10   1.108831 S    
N14   O36   1.300657 A    
C30   C31   1.527253 S    
N12   O32   1.298960 A    
C19   C27   1.349545 D    
C29   H15   1.104553 S    
C38   C39   1.535160 S    
C9    C32   1.535455 S    
C15   C23   1.349609 D    
C40   H30   1.110985 S    
C37   H25   1.110383 S    
C8    C17   1.453566 S    
C16   C24   1.349124 D    
O7    Zn4   1.884911 S    
Zn2   N1    2.047592 S    
O12   Zn2   1.888436 S    
O8    Zn3   1.884914 S    
O4    Zn1   1.884914 S    
C38   H35   1.102526 S    
C21   C26   1.449111 S    
O15   Zn3   1.888434 S    
O16   Zn4   1.888436 S    
O1    C1    1.304243 A    
C24   C27   1.447509 S    
O2    Zn2   1.889131 S    
N6    O19   1.299631 A    
O14   C6    1.307362 A    
C35   C36   1.536972 S    
O11   Zn1   1.888434 S    
O10   Zn1   1.890056 S    
H2    C21   1.087898 S    
O10   C2    1.311542 A    
N1    N6    1.394967 S    
C30   H13   1.109192 S    
O8    C8    1.303404 A    
C36   H26   1.107568 S    
C14   N9    1.444317 S    
N16   O39   1.299166 A    
C32   H22   1.075920 S    
C10   C29   1.518604 S    
N11   O29   1.301258 A    
O4    C4    1.303543 A    
C31   H11   1.110276 S    
O5    C5    1.301287 A    
N14   O35   1.301326 A    
C12   N4    1.317238 D    
N12   O31   1.301703 A    
C11   C12   1.510840 S    
Zn3   N4    2.047592 S    
C20   N15   1.442450 S    
N8    O24   1.302868 A    
O5    Zn3   1.889131 S    
C34   H16   1.110910 S    
C35   H28   1.111524 S    
C5    C20   1.463316 S    
C9    N1    1.321021 D    
C6    C19   1.446173 S    
C40   H31   1.109970 S    
C22   C25   1.448962 S    
