data_mof_unit_33591.cif
_audit_creation_date              2012-12-11T15:15:36-0500
_audit_creation_method            fapswitch 2.2
_symmetry_space_group_name_H-M    P1
_symmetry_Int_Tables_number       1
_space_group_crystal_system       triclinic
_cell_length_a                    20.649835
_cell_length_b                    22.760732
_cell_length_c                    6.940951
_cell_angle_alpha                 90.001353
_cell_angle_beta                  86.802049
_cell_angle_gamma                 89.999721
_cell_volume                      3257.20401447

loop_
_atom_site_label
_atom_site_type_symbol
_atom_type_description
_atom_site_fract_x
_atom_site_fract_y
_atom_site_fract_z
_atom_type_partial_charge
O1    O     O_R   0.387100 0.552640 0.378490 -0.535539
O2    O     O_R   0.612900 0.052640 0.621510 -0.535543
O3    O     O_R   0.249610 0.559600 0.072250 -0.547144
O4    O     O_R   0.750390 0.059600 0.927750 -0.547145
O5    O     O_R   0.249120 0.447360 0.902040 -0.543915
O6    O     O_R   0.750880 0.947360 0.097960 -0.543915
C1    C     C_R   0.227482 0.573914 0.244593 0.684172
C2    C     C_R   0.772519 0.073912 0.755411 0.684182
O7    O     O_R   0.386610 0.559560 0.048860 -0.536498
O8    O     O_R   0.613390 0.059560 0.951140 -0.536497
O9    O     O_R   0.387100 0.447320 0.878470 -0.535474
O10   O     O_R   0.612900 0.947320 0.121530 -0.535476
C3    C     C_R   0.407798 0.574830 0.214126 0.695156
C4    C     C_R   0.592202 0.074830 0.785879 0.695159
O11   O     O_R   0.249120 0.552680 0.402050 -0.544393
O12   O     O_R   0.750880 0.052680 0.597950 -0.544396
O13   O     O_3   0.318110 0.463180 0.223790 -0.368922
O14   O     O_3   0.681890 0.963180 0.776210 -0.368921
V1    V     V_3+5 0.318110 0.506830 0.948930 1.428553
V2    V     V_3+5 0.681890 0.006830 0.051070 1.428557
O15   O     O_R   0.386610 0.440400 0.548840 -0.537734
O16   O     O_R   0.613390 0.940400 0.451160 -0.537730
C5    C     C_R   0.407846 0.425157 0.714092 0.732901
C6    C     C_R   0.592155 0.925157 0.285903 0.732898
O17   O     O_R   0.249610 0.440440 0.572240 -0.547334
O18   O     O_R   0.750390 0.940440 0.427760 -0.547331
C7    C     C_R   0.227421 0.426213 0.744587 0.721018
C8    C     C_R   0.772579 0.926213 0.255410 0.721018
V3    V     V_3+5 0.318110 0.493170 0.448930 1.427936
V4    V     V_3+5 0.681890 0.993170 0.551070 1.427932
O19   O     O_3   0.318110 0.536820 0.723940 -0.371651
O20   O     O_3   0.681890 0.036820 0.276060 -0.371655
C9    C     C_R   0.175034 0.382016 0.761993 -0.137245
C10   C     C_R   0.824970 0.882018 0.238004 -0.137261
C11   C     C_R   0.157189 0.350583 0.598868 -0.249115
C12   C     C_R   0.842811 0.850585 0.401126 -0.249094
C13   C     C_R   0.108130 0.308431 0.614423 0.639274
C14   C     C_R   0.891877 0.808438 0.385582 0.639264
C15   C     C_R   0.075020 0.297788 0.793952 0.032173
C16   C     C_R   0.925002 0.797803 0.206065 0.032195
C17   C     C_R   0.093634 0.328300 0.957325 -0.189743
C18   C     C_R   0.906388 0.828314 0.042692 -0.189718
C19   C     C_R   0.143039 0.370128 0.941780 -0.159103
C20   C     C_R   0.856974 0.870134 0.058227 -0.159087
C21   C     C_R   0.899935 0.183751 0.889373 -0.114423
C22   C     C_R   0.100172 0.683867 0.110692 -0.114454
C23   C     C_R   0.850349 0.142176 0.904607 -0.163387
C24   C     C_R   0.149757 0.642290 0.095426 -0.163420
C25   C     C_R   0.849889 0.137025 0.556077 -0.165435
C26   C     C_R   0.150016 0.636929 0.443971 -0.165406
C27   C     C_R   0.899481 0.178729 0.540960 -0.119105
C28   C     C_R   0.100428 0.678635 0.459118 -0.119117
C29   C     C_R   0.925594 0.201841 0.707057 0.137965
C30   C     C_R   0.074416 0.701852 0.293022 0.137946
C31   C     C_2   0.022365 0.254003 0.817985 -0.138748
C32   C     C_2   0.977672 0.754031 0.182041 -0.138773
C33   C     C_2   0.978536 0.245521 0.684512 -0.135859
C34   C     C_2   0.021473 0.745527 0.315582 -0.135908
C35   C     C_R   0.824997 0.118072 0.738239 -0.051030
C36   C     C_R   0.175008 0.618078 0.261785 -0.051033
H1    H     H_    0.181897 0.357835 0.459114 0.152626
H2    H     H_    0.818094 0.857832 0.540872 0.152636
H3    H     H_    0.831776 0.129140 0.047198 0.122771
H4    H     H_    0.168413 0.629340 0.952823 0.122790
H5    H     H_    0.831155 0.119673 0.425028 0.123247
H6    H     H_    0.168666 0.619488 0.575021 0.123249
H7    H     H_    0.981899 0.270793 0.551678 0.178068
H8    H     H_    0.018082 0.770769 0.448479 0.178126
H9    H     H_    0.069268 0.320217 0.097083 0.189474
H10   H     H_    0.930762 0.820236 0.902941 0.189433
H11   H     H_    0.917049 0.202195 0.020770 0.102658
H12   H     H_    0.083133 0.702398 0.979323 0.102685
H13   H     H_    0.155854 0.393329 0.070473 0.145735
H14   H     H_    0.844161 0.893335 0.929535 0.145734
H15   H     H_    0.018899 0.229672 0.952558 0.138303
H16   H     H_    0.981176 0.729722 0.047420 0.138290
H17   H     H_    0.918057 0.192488 0.399020 0.109614
H18   H     H_    0.081772 0.692310 0.601076 0.109657
C37   C     C_R   0.576254 0.361380 0.660203 0.636936
C38   C     C_R   0.423735 0.861394 0.339510 0.636941
H19   H     H_    0.534442 0.447260 0.640892 0.142510
H20   H     H_    0.465548 0.947274 0.358821 0.142509
H21   H     H_    0.666653 0.277656 0.650378 0.187892
H22   H     H_    0.333333 0.777678 0.349185 0.187902
C39   C     C_R   0.461530 0.381999 0.712394 -0.131047
C40   C     C_R   0.538470 0.881999 0.287578 -0.131040
C41   C     C_R   0.475328 0.095570 0.830332 -0.157174
C42   C     C_R   0.524679 0.595559 0.169887 -0.157187
C43   C     C_R   0.422039 0.132995 0.840336 -0.103924
C44   C     C_R   0.577972 0.632978 0.159985 -0.103918
C45   C     C_R   0.429761 0.193178 0.809736 -0.154105
C46   C     C_R   0.570248 0.693166 0.190504 -0.154105
C47   C     C_R   0.491771 0.217903 0.767428 0.110963
C48   C     C_R   0.508231 0.717901 0.232623 0.110961
C49   C     C_R   0.546486 0.178917 0.755720 0.074021
C50   C     C_R   0.453510 0.678920 0.244225 0.074020
C51   C     C_R   0.501230 0.279892 0.736689 0.007648
C52   C     C_R   0.498769 0.779893 0.263285 0.007651
C53   C     C_R   0.565220 0.301061 0.693394 0.002192
C54   C     C_R   0.434772 0.801072 0.306402 0.002182
C55   C     C_R   0.617729 0.261952 0.682908 -0.127790
C56   C     C_R   0.382259 0.761967 0.316791 -0.127805
C57   C     C_R   0.608637 0.202100 0.713776 -0.216893
C58   C     C_R   0.391353 0.702112 0.285994 -0.216884
C59   C     C_R   0.449700 0.321822 0.746606 -0.221607
C60   C     C_R   0.550304 0.821818 0.253457 -0.221605
C61   C     C_R   0.524828 0.401139 0.668733 -0.237843
C62   C     C_R   0.475165 0.901150 0.331062 -0.237855
C63   C     C_R   0.537729 0.117453 0.787874 -0.092650
C64   C     C_R   0.462271 0.617452 0.212156 -0.092641
H23   H     H_    0.399947 0.309257 0.778466 0.114469
H24   H     H_    0.600061 0.809247 0.221716 0.114464
H25   H     H_    0.467845 0.049042 0.856278 0.122267
H26   H     H_    0.532165 0.549027 0.144022 0.122267
H27   H     H_    0.386116 0.219137 0.820429 0.116469
H28   H     H_    0.613896 0.719119 0.179908 0.116471
H29   H     H_    0.374070 0.115171 0.873016 0.141528
H30   H     H_    0.625947 0.615147 0.127458 0.141529
H31   H     H_    0.650993 0.173972 0.704125 0.111893
H32   H     H_    0.348993 0.673988 0.295564 0.111875
F1    F     F_    0.637109 0.382040 0.617960 -0.679255
F2    F     F_    0.362873 0.882064 0.381580 -0.679250
F3    F     F_    0.095330 0.276569 0.455730 -0.716346
F4    F     F_    0.904667 0.776575 0.544274 -0.716358

loop_
_geom_bond_atom_site_label_1
_geom_bond_atom_site_label_2
_ccdc_geom_bond_type
C19   H13   S    
C4    C63   S    
C40   C62   A    
H19   C61   S    
C32   H16   S    
C21   H11   S    
H22   C56   S    
O4    C2    A    
V1    O19   S    
C15   C17   A    
C60   H24   S    
C7    C9    S    
C37   F1    S    
O9    V1    S    
C25   H5    S    
C44   H30   S    
C37   C53   A    
C11   C13   A    
O3    C1    A    
C2    C35   S    
C23   H3    S    
C12   H2    S    
C24   H4    S    
C48   C52   A    
O12   V4    S    
C45   H27   S    
C18   H10   S    
O13   V3    S    
C28   H18   S    
O7    C3    A    
C9    C11   A    
C13   F3    S    
O7    V1    S    
O6    C8    A    
O8    V2    S    
C25   C27   A    
C26   C28   A    
O3    V1    S    
O14   V4    S    
H20   C62   S    
C43   C45   A    
H21   C55   S    
C22   H12   S    
C42   C64   A    
C24   C36   A    
C31   H15   S    
C28   C30   A    
C16   C18   A    
C59   H23   S    
C21   C29   A    
C2    O12   A    
O5    C7    A    
C38   C54   A    
C17   C19   A    
O10   V2    S    
C40   C60   A    
C18   C20   A    
C33   H7    S    
V2    O20   S    
C39   C59   A    
C54   C56   A    
C51   C53   A    
C49   C57   A    
O11   V3    S    
C21   C23   A    
O17   V3    S    
C22   C24   A    
C23   C35   A    
C9    C19   A    
C20   H14   S    
C10   C20   A    
C49   C63   A    
C29   C33   S    
C38   F2    S    
C1    O11   A    
C16   C32   S    
C50   C64   A    
C27   C29   A    
C48   C50   A    
C27   H17   S    
C3    C64   S    
V4    O20   S    
C45   C47   A    
C46   H28   S    
C44   C46   A    
V3    O19   S    
C22   C30   A    
O1    V3    S    
C37   C61   A    
C11   H1    S    
C56   C58   A    
C26   H6    S    
C41   C63   A    
C34   H8    S    
C53   C55   A    
C42   C44   A    
O18   V4    S    
C52   C54   A    
C31   C33   D    
O8    C4    A    
O17   C7    A    
O16   C6    A    
O1    C3    A    
C12   C14   A    
C47   C51   A    
C1    C36   S    
C17   H9    S    
C30   C34   S    
C50   C58   A    
O10   C6    A    
O16   V4    S    
C57   H31   S    
C43   H29   S    
C52   C60   A    
O5    V1    S    
C15   C31   S    
O6    V2    S    
C38   C62   A    
O18   C8    A    
C25   C35   A    
O2    V4    S    
C26   C36   A    
O15   C5    A    
C51   C59   A    
C13   C15   A    
C14   C16   A    
C46   C48   A    
C47   C49   A    
O15   V3    S    
O9    C5    A    
O13   V1    S    
C10   C12   A    
C32   C34   D    
O14   V2    S    
C42   H26   S    
O2    C4    A    
C41   H25   S    
C8    C10   S    
O4    V2    S    
C55   C57   A    
C5    C39   S    
C41   C43   A    
C39   C61   A    
C6    C40   S    
C14   F4    S    
C58   H32   S    
