data_mof_unit_27688.cif
_audit_creation_date              2012-12-11T17:05:36-0500
_audit_creation_method            fapswitch 2.2
_symmetry_space_group_name_H-M    P1
_symmetry_Int_Tables_number       1
_space_group_crystal_system       triclinic
_cell_length_a                    6.971602
_cell_length_b                    14.524296
_cell_length_c                    16.013651
_cell_angle_alpha                 90.301638
_cell_angle_beta                  89.990487
_cell_angle_gamma                 89.967153
_cell_volume                      1621.48128414

loop_
_atom_site_label
_atom_site_type_symbol
_atom_type_description
_atom_site_fract_x
_atom_site_fract_y
_atom_site_fract_z
_atom_type_partial_charge
O1    O     O_R   0.494380 0.415640 0.412830 -0.536566
O2    O     O_R   0.823960 0.405540 0.586560 -0.542237
O3    O     O_R   0.994270 0.584360 0.587170 -0.540250
C1    C     C_R   0.655217 0.383472 0.615154 0.692890
O4    O     O_R   0.824090 0.404620 0.413450 -0.542411
O5    O     O_R   0.994400 0.583430 0.412820 -0.540426
C2    C     C_R   0.655404 0.382478 0.384541 0.693802
O6    O     O_R   0.494250 0.416570 0.587180 -0.536565
O7    O     O_3   0.660800 0.558670 0.500000 -0.369493
V1    V     V_3+5 0.935650 0.489120 0.500000 1.379060
O8    O     O_R   0.324110 0.594460 0.413440 -0.538427
C3    C     C_R   0.155120 0.616307 0.384546 0.694784
O9    O     O_R   0.323980 0.595380 0.586550 -0.543884
C4    C     C_R   0.155226 0.617432 0.615614 0.650669
V2    V     V_3+5 0.435660 0.510880 0.500000 1.383558
O10   O     O_3   0.160640 0.441330 0.500000 -0.367820
C5    C     C_3   0.046277 0.644820 0.764494 -0.318837
H1    H     H_    0.899163 0.621113 0.748114 0.135747
H2    H     H_    0.128198 0.583364 0.785478 0.117836
C6    C     C_3   0.033792 0.716058 0.837140 -0.326939
H3    H     H_    0.110022 0.688801 0.892853 0.120332
H4    H     H_    0.880876 0.726036 0.855050 0.137380
H5    H     H_    0.879978 0.752509 0.641352 0.141369
H6    H     H_    0.861392 0.857153 0.748352 0.137511
C7    C     C_3   0.027471 0.773341 0.660137 -0.321163
C8    C     C_3   0.347981 0.720357 0.713267 -0.316343
C9    C     C_3   0.144775 0.687329 0.686582 0.119404
H7    H     H_    0.422696 0.752304 0.659241 0.136273
H8    H     H_    0.436010 0.660542 0.733586 0.133189
C10   C     C_3   0.123299 0.809439 0.811115 0.120152
C11   C     C_3   0.014801 0.844484 0.732777 -0.320468
C12   C     C_3   0.335607 0.791090 0.785409 -0.308147
H9    H     H_    0.417999 0.764769 0.839868 0.134255
H10   H     H_    0.404694 0.856491 0.765488 0.134704
H11   H     H_    0.095743 0.805985 0.604901 0.121370
H12   H     H_    0.076873 0.911233 0.712285 0.121243
C13   C     C_R   0.288113 0.799565 0.225843 0.050220
C14   C     C_R   0.122984 0.807885 0.177282 -0.102971
C15   C     C_R   0.969503 0.749429 0.196598 -0.200035
H13   H     H_    0.848024 0.746605 0.155709 0.159596
C16   C     C_R   0.978639 0.688803 0.264847 -0.178981
H14   H     H_    0.861573 0.641379 0.274740 0.138563
C17   C     C_R   0.142431 0.684908 0.316329 -0.096673
C18   C     C_R   0.295028 0.744087 0.297154 0.040391
C19   C     C_3   0.497413 0.716892 0.280771 -0.438108
C20   C     C_3   0.482072 0.767247 0.198263 0.140648
H15   H     H_    0.516464 0.641044 0.274884 0.178800
H16   H     H_    0.597062 0.750630 0.325643 0.149736
H17   H     H_    0.585539 0.824682 0.190229 0.114811
C21   C     C_R   0.491132 0.252147 0.688026 0.102505
C22   C     C_R   0.647111 0.312356 0.681026 -0.110849
C23   C     C_R   0.799691 0.300832 0.737630 -0.182014
H18   H     H_    0.922768 0.345823 0.734732 0.129156
C24   C     C_R   0.788466 0.235766 0.802427 -0.180867
H19   H     H_    0.904169 0.231873 0.847206 0.130121
C25   C     C_R   0.623748 0.180804 0.812816 -0.110193
C26   C     C_R   0.479598 0.188072 0.752350 0.095033
C27   C     C_3   0.270106 0.204048 0.763457 -0.414955
C28   C     C_3   0.282595 0.273566 0.693113 -0.395581
H20   H     H_    0.236848 0.235896 0.825039 0.170537
H21   H     H_    0.183807 0.142198 0.747085 0.169626
H22   H     H_    0.255912 0.345654 0.713755 0.163815
H23   H     H_    0.204030 0.251787 0.635936 0.173815
C29   C     C_R   0.490967 0.251792 0.309169 0.102306
C30   C     C_R   0.647440 0.311595 0.317574 -0.111105
C31   C     C_R   0.799899 0.300508 0.260659 -0.178459
H24   H     H_    0.923208 0.345296 0.264415 0.131072
C32   C     C_R   0.788304 0.236266 0.194495 -0.179516
H25   H     H_    0.904155 0.232668 0.149720 0.130058
C33   C     C_R   0.623244 0.181683 0.182893 -0.110675
C34   C     C_R   0.479082 0.188537 0.243513 0.099630
C35   C     C_3   0.269797 0.205128 0.232675 -0.415062
C36   C     C_3   0.282664 0.273663 0.304455 -0.397375
H26   H     H_    0.182883 0.143260 0.247735 0.173283
H27   H     H_    0.237011 0.237865 0.171744 0.170245
H28   H     H_    0.203789 0.251262 0.361150 0.173881
H29   H     H_    0.256590 0.346061 0.285289 0.166476
O11   O     O_R   0.771490 0.080820 0.910070 -0.538140
O12   O     O_R   0.441590 0.092730 0.083780 -0.537820
O13   O     O_R   0.271350 0.913900 0.084390 -0.535488
C37   C     C_R   0.610554 0.115119 0.112497 0.698266
O14   O     O_R   0.441780 0.091820 0.910670 -0.538267
O15   O     O_R   0.271540 0.912980 0.910040 -0.543630
C38   C     C_R   0.610816 0.114088 0.882251 0.696219
O16   O     O_R   0.771300 0.081740 0.084420 -0.537292
O17   O     O_3   0.604960 0.938700 0.997240 -0.379054
V3    V     V_3+5 0.330090 0.008230 0.997220 1.378305
O18   O     O_R   0.941820 0.901930 0.910640 -0.543984
C39   C     C_R   0.111099 0.879543 0.881877 0.644892
O19   O     O_R   0.941630 0.902840 0.083750 -0.548047
C40   C     C_R   0.111156 0.877883 0.110054 0.690819
V4    V     V_3+5 0.830090 0.986410 0.997190 1.364444
O20   O     O_3   0.105080 0.055990 0.997200 -0.365592
N1    N     N_2   0.474455 0.700627 0.129610 -0.520941
H30   H     H_    0.366754 0.651976 0.132670 0.268976
C41   C     C_3   0.515845 0.731949 0.046101 -0.521053
H31   H     H_    0.547460 0.671520 0.005658 0.168123
H32   H     H_    0.643680 0.777059 0.045707 0.213800
H33   H     H_    0.390050 0.767935 0.019528 0.199010

loop_
_geom_bond_atom_site_label_1
_geom_bond_atom_site_label_2
_ccdc_geom_bond_type
C7    C11   S    
O15   V3    S    
C8    C12   S    
C16   H14   S    
C31   C32   A    
C1    O6    A    
O12   V3    S    
O19   C40   A    
C15   C16   A    
C6    C10   S    
C19   C20   S    
C18   C19   S    
C20   H17   S    
C8    C9    S    
C21   C28   S    
C3    C17   S    
C35   H27   S    
O5    C3    A    
C14   C15   A    
C27   H20   S    
O14   V3    S    
C41   H33   S    
C5    C6    S    
C25   C26   A    
C29   C34   A    
C33   C37   S    
O8    V2    S    
O18   V4    S    
C32   H25   S    
C41   H32   S    
C29   C36   S    
C33   C34   A    
O1    V2    S    
C4    C9    S    
O7    V1    S    
C27   H21   S    
C31   H24   S    
O9    C4    A    
C16   C17   A    
C10   C39   S    
O16   V4    S    
C23   C24   A    
C25   C38   S    
C19   H15   S    
O15   C39   A    
C24   C25   A    
C1    C22   S    
C22   C23   A    
C5    C9    S    
C35   H26   S    
C15   H13   S    
O4    C2    A    
O17   V3    S    
O11   V4    S    
C27   C28   S    
C14   C40   S    
C12   H10   S    
O2    C1    A    
C17   C18   A    
C13   C14   A    
C2    C30   S    
O19   V4    S    
C20   N1    S    
C41   H31   S    
C5    H1    S    
C21   C22   A    
C6    H3    S    
N1    C41   S    
O3    C4    A    
O13   V3    S    
C7    H11   S    
C6    H4    S    
O6    V2    S    
O14   C38   A    
O9    V2    S    
C36   H28   S    
O2    V1    S    
C23   H18   S    
O12   C37   A    
C19   H16   S    
C24   H19   S    
C28   H22   S    
O1    C2    A    
C21   C26   A    
C8    H7    S    
C35   C36   S    
O5    V1    S    
O8    C3    A    
C7    C9    S    
C28   H23   S    
C29   C30   A    
C13   C18   A    
O7    V2    S    
H6    C11   S    
O4    V1    S    
O3    V1    S    
V1    O10   S    
C12   H9    S    
C10   C12   S    
C26   C27   S    
C10   C11   S    
O13   C40   A    
V3    O20   S    
V4    O20   S    
C5    H2    S    
H5    C7    S    
N1    H30   S    
O11   C38   A    
C34   C35   S    
O18   C39   A    
C8    H8    S    
C32   C33   A    
C30   C31   A    
C36   H29   S    
C11   H12   S    
O17   V4    S    
C13   C20   S    
C37   O16   A    
V2    O10   S    
