data_mof_unit_17259.cif
_audit_creation_date              2012-12-11T18:13:11-0500
_audit_creation_method            fapswitch 2.2
_symmetry_space_group_name_H-M    P1
_symmetry_Int_Tables_number       1
_space_group_crystal_system       triclinic
_cell_length_a                    8.17924
_cell_length_b                    12.650998
_cell_length_c                    18.706195
_cell_angle_alpha                 99.437128
_cell_angle_beta                  91.18433
_cell_angle_gamma                 98.575916
_cell_volume                      1886.06708375

loop_
_atom_site_label
_atom_site_type_symbol
_atom_type_description
_atom_site_fract_x
_atom_site_fract_y
_atom_site_fract_z
_atom_type_partial_charge
Ba1   Ba    Ba6+2 0.852780 0.548340 0.465070 1.634100
Ba2   Ba    Ba6+2 0.337060 0.451750 0.534940 1.632061
C1    C     C_3   0.580468 0.900179 0.251626 -0.418083
C2    C     C_3   0.632110 0.820820 0.297376 0.343832
C3    C     C_3   0.460162 0.275863 0.313848 0.311309
C4    C     C_3   0.434103 0.238699 0.232362 -0.403095
C5    C     C_3   0.058983 0.237487 0.735047 0.366465
C6    C     C_3   0.077413 0.213111 0.811513 -0.371748
C7    C     C_3   0.553871 0.178864 0.699687 0.355816
C8    C     C_3   0.605419 0.096514 0.742783 -0.431436
C9    C     C_R   0.992586 0.448214 0.048128 0.007089
C10   C     C_R   0.891612 0.394272 0.095322 0.033561
C11   C     C_R   0.728873 0.347047 0.072126 -0.085184
C12   C     C_3   0.128542 0.761855 0.264799 0.368217
C13   C     C_R   0.667151 0.352622 0.002789 -0.090018
C14   C     C_R   0.767848 0.403919 0.954716 0.032210
C15   C     C_R   0.931122 0.452133 0.977297 0.013419
C16   C     C_R   0.708115 0.405951 0.884223 -0.109225
C17   C     C_R   0.810729 0.452435 0.834139 -0.043777
C18   C     C_R   0.973654 0.503929 0.857176 -0.003385
C19   C     C_R   0.032718 0.503932 0.929158 -0.008389
C20   C     C_R   0.756954 0.446798 0.761156 -0.005794
C21   C     C_R   0.866041 0.487780 0.712046 -0.301310
C22   C     C_R   0.023333 0.544727 0.734230 0.038263
C23   C     C_3   0.108650 0.786944 0.188592 -0.367318
C24   C     C_R   0.077888 0.554842 0.808438 -0.045558
C25   C     C_R   0.155029 0.497225 0.071419 -0.008208
C26   C     C_R   0.214674 0.496582 0.143220 -0.005430
C27   C     C_R   0.110467 0.445771 0.191993 -0.044349
C28   C     C_R   0.953057 0.389703 0.165318 -0.041835
C29   C     C_R   0.234174 0.611901 0.835396 -0.050775
C30   C     C_R   0.295373 0.607933 0.905544 0.036255
C31   C     C_R   0.194833 0.553386 0.952573 0.007587
C32   C     C_R   0.256385 0.549349 0.023359 0.013483
C33   C     C_R   0.457362 0.656312 0.929101 -0.086652
C34   C     C_3   0.236650 0.786523 0.618068 0.269320
C35   C     C_R   0.519479 0.650266 0.998234 -0.089968
C36   C     C_R   0.419544 0.597793 0.045964 0.032779
C37   C     C_R   0.378137 0.547450 0.166061 -0.044488
C38   C     C_R   0.480012 0.594815 0.116143 -0.110662
C39   C     C_R   0.433349 0.551507 0.238682 -0.002281
C40   C     C_R   0.325533 0.509040 0.287638 -0.298092
C41   C     C_R   0.166406 0.454842 0.265919 0.044090
C42   C     C_R   0.765055 0.182404 0.528189 -0.279438
C43   C     C_R   0.429072 0.806762 0.468720 -0.286199
C44   C     C_R   0.402598 0.984101 0.443582 -0.106171
C45   C     C_3   0.250140 0.909168 0.633011 -0.361488
C46   C     C_R   0.338149 0.875482 0.439540 -0.012520
C47   C     C_R   0.578240 0.847694 0.508340 0.070795
C48   C     C_R   0.642856 0.959936 0.515995 -0.059765
C49   C     C_R   0.554373 0.028095 0.481738 -0.063476
C50   C     C_R   0.617907 0.139254 0.488164 0.044225
C51   C     C_R   0.856765 0.116106 0.559032 -0.011463
C52   C     C_R   0.793673 0.006258 0.555486 -0.092592
C53   C     C_3   0.960206 0.211820 0.380430 0.277396
C54   C     C_3   0.947399 0.089298 0.363956 -0.348274
C55   C     C_3   0.738278 0.712554 0.684121 0.328688
C56   C     C_3   0.705789 0.734314 0.765172 -0.192140
H1    H     H_    0.722479 0.865308 0.341132 0.076166
H2    H     H_    0.329875 0.942387 0.682442 0.119406
H3    H     H_    0.304589 0.944446 0.586986 0.085138
H4    H     H_    0.125623 0.932545 0.641264 0.131973
H5    H     H_    0.839478 0.233884 0.396340 0.003118
H6    H     H_    0.053636 0.242737 0.425636 0.081306
H7    H     H_    0.855523 0.056260 0.318530 0.115091
H8    H     H_    0.907735 0.053452 0.412043 0.086803
H9    H     H_    0.069590 0.066745 0.348609 0.141571
H10   H     H_    0.871488 0.712510 0.676506 0.009428
H11   H     H_    0.668685 0.631122 0.661732 0.030809
H12   H     H_    0.526127 0.964757 0.286356 0.105118
H13   H     H_    0.749693 0.671395 0.792297 0.043359
H14   H     H_    0.570033 0.726838 0.770364 0.093685
H15   H     H_    0.520320 0.786223 0.323309 -0.050961
H16   H     H_    0.487017 0.856737 0.208855 0.113209
H17   H     H_    0.343496 0.299748 0.335554 0.018554
H18   H     H_    0.560458 0.346848 0.323939 0.060099
H19   H     H_    0.329049 0.170854 0.220590 0.128535
H20   H     H_    0.406221 0.306573 0.205763 0.056948
H21   H     H_    0.547790 0.210775 0.209764 0.117664
H22   H     H_    0.689083 0.937654 0.225007 0.129783
H23   H     H_    0.148295 0.722005 0.148487 0.070851
H24   H     H_    0.139103 0.315461 0.732088 0.093481
H25   H     H_    0.927999 0.245699 0.724425 -0.073176
H26   H     H_    0.208995 0.209423 0.825083 0.148938
H27   H     H_    0.035227 0.277646 0.851099 0.072957
H28   H     H_    0.001580 0.134135 0.815759 0.106723
H29   H     H_    0.665239 0.213169 0.673226 -0.052452
H30   H     H_    0.460618 0.136955 0.656382 0.083260
H31   H     H_    0.704607 0.136601 0.783903 0.113265
H32   H     H_    0.652167 0.031161 0.705503 0.086764
H33   H     H_    0.047140 0.684489 0.267997 0.093802
H34   H     H_    0.498744 0.060913 0.771392 0.128867
H35   H     H_    0.648593 0.306448 0.107851 0.061194
H36   H     H_    0.540874 0.315692 0.986477 0.070076
H37   H     H_    0.825001 0.479242 0.655771 0.071846
H38   H     H_    0.581959 0.368877 0.868788 0.108583
H39   H     H_    0.874295 0.344352 0.198988 0.096786
H40   H     H_    0.311606 0.657593 0.801703 0.089504
H41   H     H_    0.536917 0.698206 0.893921 0.057944
H42   H     H_    0.645440 0.687803 0.014665 0.069845
H43   H     H_    0.606369 0.631565 0.131402 0.108613
H44   H     H_    0.259162 0.752064 0.274397 -0.076010
H45   H     H_    0.368374 0.515126 0.343485 0.072420
H46   H     H_    0.329254 0.033322 0.418524 0.101561
H47   H     H_    0.865680 0.958653 0.582556 0.100892
H48   H     H_    0.813660 0.267585 0.531717 0.064893
H49   H     H_    0.377966 0.721915 0.464631 0.071172
H50   H     H_    0.977208 0.792076 0.175859 0.149926
H51   H     H_    0.185839 0.865409 0.184183 0.110136
H52   H     H_    0.358279 0.764067 0.604029 0.018677
H53   H     H_    0.145431 0.754999 0.571990 0.079908
O1    O     O_2   0.873090 0.425890 0.325140 -0.466872
O2    O     O_3   0.685777 0.793495 0.650590 -0.651852
O3    O     O_3   0.084062 0.846959 0.315049 -0.598688
O4    O     O_2   0.316610 0.574140 0.674900 -0.461511
O5    O     O_3   0.067290 0.565720 0.585630 -0.495737
O6    O     O_3   0.530210 0.372990 0.631200 -0.466003
O7    O     O_3   0.188889 0.746980 0.681151 -0.649710
O8    O     O_3   0.611340 0.366290 0.463630 -0.477158
O9    O     O_3   0.108550 0.314140 0.595200 -0.483630
O10   O     O_2   0.197215 0.121143 0.552266 -0.483027
O11   O     O_3   0.106959 0.152865 0.685526 -0.600117
O12   O     O_3   0.122420 0.434370 0.414380 -0.494373
O13   O     O_3   0.578370 0.633800 0.536380 -0.484190
O14   O     O_2   0.341510 0.231850 0.465510 -0.467667
O15   O     O_3   0.503507 0.190189 0.345391 -0.650781
O16   O     O_2   0.415152 0.453123 0.756840 -0.495655
O17   O     O_3   0.482285 0.256352 0.746506 -0.598247
O18   O     O_3   0.659500 0.627100 0.368810 -0.471763
O19   O     O_2   0.774877 0.546617 0.243551 -0.495725
O20   O     O_3   0.003792 0.253032 0.317536 -0.640543
O21   O     O_3   0.708202 0.743045 0.252959 -0.597767
O22   O     O_2   0.848200 0.768190 0.534530 -0.476966
O23   O     O_3   0.081160 0.685950 0.404810 -0.486727
O24   O     O_2   0.000850 0.879558 0.449904 -0.484269
P1    P     P_3+3 0.041040 0.394770 0.336330 0.971775
P2    P     P_3+3 0.672880 0.754030 0.556100 0.967720
P3    P     P_3+3 0.126681 0.823799 0.402772 0.950075
P4    P     P_3+3 0.148670 0.605320 0.663680 0.966441
P5    P     P_3+3 0.066338 0.174923 0.597365 0.949805
P6    P     P_3+3 0.643399 0.614599 0.274901 0.950540
P7    P     P_3+3 0.522004 0.230248 0.439626 0.933660
P8    P     P_3+3 0.546372 0.385091 0.725062 0.951564
C57   C     C_3   0.783984 0.847053 0.805157 -0.206505
C58   C     C_3   0.972678 0.864808 0.806542 -0.386216
H54   H     H_    0.021861 0.939144 0.845729 0.113295
H55   H     H_    0.021874 0.794895 0.823252 0.126945
H56   H     H_    0.015601 0.876707 0.752293 0.165267
H57   H     H_    0.737345 0.911162 0.780286 0.144804
H58   H     H_    0.744686 0.855724 0.862071 0.101376

loop_
_geom_bond_atom_site_label_1
_geom_bond_atom_site_label_2
_ccdc_geom_bond_type
O24   P3    D    
C5    H25   S    
C53   C54   S    
O22   P2    D    
C47   P2    S    
C51   P5    S    
C16   H38   S    
C39   C40   A    
C17   C18   A    
C40   H45   S    
C45   H4    S    
C58   H54   S    
C4    H21   S    
C5    C6    S    
C37   C39   A    
C51   C52   A    
C28   H39   S    
C35   C36   A    
Ba2   P4    S    
O10   P5    D    
C26   C27   A    
C33   C35   A    
C22   C24   A    
C16   C17   A    
Ba1   O18   S    
C7    H30   S    
C3    C4    S    
C33   H41   S    
C56   H13   S    
C12   H44   S    
O18   P6    S    
C13   C14   A    
C34   C45   S    
C6    H27   S    
Ba1   O8    S    
C29   H40   S    
O19   P6    D    
C1    H16   S    
C57   H58   S    
C45   H2    S    
Ba2   O5    S    
C42   C51   A    
C8    H31   S    
C14   C15   A    
C53   H5    S    
C20   P8    S    
C21   C22   A    
C42   H48   S    
O9    P5    S    
Ba1   O5    S    
C9    C25   A    
C3    H17   S    
Ba1   P1    S    
C34   O7    S    
C7    C8    S    
C23   H51   S    
O5    P4    S    
C10   C28   A    
C42   C50   A    
C38   H43   S    
C8    H34   S    
C24   C29   A    
C25   C32   A    
C6    H26   S    
C27   C41   A    
C23   H23   S    
O1    P1    D    
Ba1   O22   S    
C1    H22   S    
C58   H55   S    
Ba2   O6    S    
C48   C49   A    
C22   P4    S    
C5    H24   S    
C44   C46   A    
C7    O17   S    
C49   C50   A    
C30   C33   A    
O13   P2    S    
C1    H12   S    
C2    O21   S    
O20   P1    S    
C37   C38   A    
Ba2   O9    S    
C4    H19   S    
C55   O2    S    
C26   C37   A    
Ba2   O12   S    
C44   H46   S    
C44   C49   A    
O15   P7    S    
C50   P7    S    
C1    C2    S    
C11   H35   S    
C3    O15   S    
Ba1   O12   S    
C39   P6    S    
C57   H57   S    
Ba2   O4    S    
C29   C30   A    
C43   C47   A    
O14   P7    D    
Ba2   O8    S    
C53   H6    S    
C17   C20   A    
C34   H53   S    
C31   C32   A    
O16   P8    D    
C10   C11   A    
C2    H15   S    
O4    P4    D    
C53   O20   S    
C11   C13   A    
C34   H52   S    
O2    P2    S    
C40   C41   A    
C5    O11   S    
O7    P4    S    
Ba1   O23   S    
C58   H56   S    
Ba1   P2    S    
C45   H3    S    
C43   C46   A    
O21   P6    S    
C9    C15   A    
C52   H47   S    
O6    P8    S    
C32   C36   A    
C57   C58   S    
Ba1   O1    S    
O23   P3    S    
C9    C10   A    
Ba2   O13   S    
C54   H9    S    
C43   H49   S    
C46   P3    S    
O12   P1    S    
C30   C31   A    
C3    H18   S    
Ba1   O13   S    
O11   P5    S    
C48   C52   A    
C12   O3    S    
C7    H29   S    
C36   C38   A    
C56   H14   S    
C55   C56   S    
C18   C24   A    
C54   H8    S    
Ba1   Ba2   S    
C2    H1    S    
C21   H37   S    
C6    H28   S    
O3    P3    S    
C12   C23   S    
C41   P1    S    
O17   P8    S    
C15   C19   A    
C12   H33   S    
C4    H20   S    
C27   C28   A    
Ba2   O14   S    
C56   C57   S    
C13   H36   S    
C19   C31   A    
C18   C19   A    
C8    H32   S    
C14   C16   A    
C47   C48   A    
C25   C26   A    
O8    P7    S    
C20   C21   A    
C55   H10   S    
C55   H11   S    
C35   H42   S    
C54   H7    S    
C23   H50   S    
