data_mof_unit_46485.cif
_audit_creation_date              2012-12-10T19:03:05-0500
_audit_creation_method            fapswitch 2.2
_symmetry_space_group_name_H-M    P1
_symmetry_Int_Tables_number       1
_space_group_crystal_system       triclinic
_cell_length_a                    10.738
_cell_length_b                    10.793614
_cell_length_c                    9.551377
_cell_angle_alpha                 89.89645
_cell_angle_beta                  90.345314
_cell_angle_gamma                 90.471177
_cell_volume                      1106.96279889

loop_
_atom_site_label
_atom_site_type_symbol
_atom_type_description
_atom_site_fract_x
_atom_site_fract_y
_atom_site_fract_z
_atom_type_partial_charge
C1    C     C_R   0.501195 0.262501 0.500232 0.806536
C2    C     C_3   0.878142 0.494099 0.498455 0.027444
C3    C     C_3   0.929196 0.619273 0.555191 -0.552193
C4    C     C_3   0.928386 0.478744 0.345550 0.295330
C5    C     C_R   0.461944 0.063642 0.616330 0.083019
C6    C     C_R   0.508875 0.129418 0.502260 -0.111494
C7    C     C_R   0.567388 0.065430 0.393471 -0.174957
C8    C     C_R   0.566909 0.936221 0.393468 -0.205751
C9    C     C_R   0.507123 0.871011 0.501586 -0.145418
C10   C     C_R   0.460623 0.935827 0.615929 0.228552
C11   C     C_3   0.332612 0.930425 0.676836 0.174576
C12   C     C_R   0.259938 0.498075 0.499425 0.781057
C13   C     C_3   0.335209 0.071105 0.679193 -0.520130
C14   C     C_R   0.586184 0.568081 0.074350 0.298875
C15   C     C_R   0.421939 0.424750 0.074008 -0.062900
C16   C     C_R   0.421779 0.424876 0.925156 -0.052627
C17   C     C_R   0.587373 0.567245 0.926747 0.201617
C18   C     C_3   0.606136 0.704793 0.922269 -0.244592
C19   C     C_3   0.603548 0.704953 0.081348 -0.566825
C20   C     C_R   0.500468 0.737611 0.500015 0.813823
C21   C     C_R   0.740067 0.497485 0.499893 0.802710
C22   C     C_3   0.072540 0.385014 0.585763 -0.364286
C23   C     C_3   0.928836 0.389192 0.595741 0.245021
C24   C     C_3   0.072752 0.618548 0.559708 -0.399738
C25   C     C_3   0.071870 0.482231 0.345694 -0.436186
C26   C     C_3   0.122120 0.495944 0.497809 0.041518
Cu1   Cu    Cu3+1 0.499990 0.499980 0.640670 0.960555
Cu2   Cu    Cu3+1 0.500010 0.500020 0.359330 0.962863
H1    H     H_    0.112922 0.387510 0.693352 0.147910
H2    H     H_    0.896235 0.559298 0.282203 0.145281
H3    H     H_    0.109672 0.699014 0.499335 0.166141
H4    H     H_    0.896507 0.697173 0.488204 0.179993
H5    H     H_    0.610331 0.114917 0.307339 0.181146
H6    H     H_    0.610511 0.887803 0.307997 0.159920
H7    H     H_    0.261665 0.888335 0.605331 0.086163
H8    H     H_    0.265782 0.113492 0.607143 0.154118
H9    H     H_    0.338145 0.111599 0.786163 0.220941
H10   H     H_    0.357003 0.365646 0.129518 0.135014
H11   H     H_    0.102665 0.296573 0.537157 0.176504
H12   H     H_    0.356706 0.365900 0.869018 0.132342
H13   H     H_    0.526048 0.754002 0.874869 0.228701
H14   H     H_    0.692909 0.730970 0.133374 0.205258
H15   H     H_    0.520297 0.752693 0.122943 0.218406
H16   H     H_    0.904907 0.411306 0.706607 0.127534
H17   H     H_    0.105265 0.629291 0.669960 0.204510
H18   H     H_    0.893832 0.635673 0.662222 0.233773
H19   H     H_    0.103999 0.562109 0.280891 0.170667
H20   H     H_    0.110171 0.397260 0.296667 0.173610
N1    N     N_R   0.500800 0.500930 0.147930 -0.186314
N2    N     N_R   0.500800 0.500890 0.852020 -0.199385
O1    O     O_R   0.500000 0.319640 0.618810 -0.582251
O2    O     O_R   0.500010 0.319680 0.381230 -0.577997
O3    O     O_R   0.317690 0.499960 0.618790 -0.586827
O4    O     O_R   0.317700 0.500000 0.381210 -0.591327
O5    O     O_R   0.499990 0.680320 0.618770 -0.557669
O6    O     O_R   0.500000 0.680360 0.381190 -0.594745
O7    O     O_R   0.682300 0.500000 0.618790 -0.602009
O8    O     O_R   0.682310 0.500040 0.381210 -0.544210
O9    O     O_3   0.333829 0.879243 0.811584 -0.720954
H21   H     H_    0.245897 0.878688 0.842857 0.334022
C27   C     C_2   0.729734 0.743509 0.862035 0.881740
O10   O     O_2   0.826609 0.699161 0.907042 -0.628982
O11   O     O_R   0.732821 0.832087 0.755229 -0.762452
H22   H     H_    0.820649 0.852444 0.723802 0.324719
O12   O     O_3   0.877678 0.272751 0.561067 -0.737349
H23   H     H_    0.795427 0.266331 0.607529 0.329349
O13   O     O_3   0.880802 0.371543 0.279246 -0.698073
H24   H     H_    0.926515 0.298467 0.314827 0.366380

loop_
_geom_bond_atom_site_label_1
_geom_bond_atom_site_label_2
_ccdc_geom_bond_type
C17   N2    A    
C4    O13   S    
C2    C4    S    
Cu1   O3    S    
C15   H10   S    
C21   O7    A    
C6    C7    A    
C22   H1    S    
Cu2   O8    S    
C19   H15   S    
C1    O1    A    
Cu2   N1    S    
C25   H19   S    
C9    C20   S    
C5    C13   S    
C12   O3    A    
C14   C17   A    
Cu1   N2    S    
C12   O4    A    
C20   O6    A    
C21   O8    A    
C23   O12   S    
C2    C21   S    
C11   H7    S    
C17   C18   S    
Cu2   O6    S    
C24   H3    S    
O9    H21   S    
C18   C27   S    
C8    H6    S    
Cu2   O2    S    
C25   H20   S    
C3    C24   S    
C3    H4    S    
C16   H12   S    
C20   O5    A    
C5    C6    A    
C24   H17   S    
C5    C10   A    
Cu1   O1    S    
C2    C3    S    
C15   N1    A    
Cu1   O7    S    
C27   O10   D    
C24   C26   S    
C1    O2    A    
Cu1   O5    S    
C14   N1    A    
C7    C8    A    
C10   C11   S    
C7    H5    S    
C22   C26   S    
O13   H24   S    
C4    C25   S    
C11   C13   S    
C13   H8    S    
O12   H23   S    
C9    C10   A    
C18   H13   S    
C12   C26   S    
C2    C23   S    
C27   O11   S    
Cu2   O4    S    
C22   C23   S    
C18   C19   S    
C11   O9    S    
C3    H18   S    
C22   H11   S    
C25   C26   S    
O11   H22   S    
C13   H9    S    
C14   C19   S    
C15   C16   A    
C4    H2    S    
C23   H16   S    
C19   H14   S    
C16   N2    A    
C8    C9    A    
Cu1   Cu2   S    
C1    C6    S    
