data_mof_unit_53176.cif
_audit_creation_date              2012-10-26T21:33:14-0400
_audit_creation_method            fapswitch 2.2
_symmetry_space_group_name_H-M    P1
_symmetry_Int_Tables_number       1
_space_group_crystal_system       triclinic
_cell_length_a                    28.0713
_cell_length_b                    18.627038
_cell_length_c                    17.079766
_cell_angle_alpha                 90.0
_cell_angle_beta                  60.879599
_cell_angle_gamma                 90.000011
_cell_volume                      7801.89984965

loop_
_atom_site_label
_atom_site_type_symbol
_atom_type_description
_atom_site_fract_x
_atom_site_fract_y
_atom_site_fract_z
_atom_type_partial_charge
C1    C     C_R   0.701662 0.268435 0.676079 0.994816
C2    C     C_R   0.083462 0.500000 0.546391 0.015369
C3    C     C_R   0.189723 0.217487 0.905935 -0.187881
C4    C     C_R   0.073508 0.100281 0.934590 0.982583
C5    C     C_R   0.926492 0.899719 0.065410 0.982584
C6    C     C_R   0.926491 0.100280 0.065411 0.982585
C7    C     C_R   0.073509 0.899720 0.934589 0.982585
C8    C     C_R   0.573508 0.600281 0.934590 0.982583
C9    C     C_R   0.426492 0.399719 0.065410 0.982584
C10   C     C_R   0.426491 0.600280 0.065411 0.982585
C11   C     C_R   0.573509 0.399720 0.934589 0.982585
C12   C     C_R   0.537330 0.130384 0.533512 0.041821
C13   C     C_R   0.416538 0.000000 0.453609 0.015369
C14   C     C_R   0.462670 0.869616 0.466487 0.041820
C15   C     C_R   0.462667 0.130385 0.466495 0.041820
C16   C     C_R   0.537333 0.869615 0.533505 0.041820
C17   C     C_R   0.037330 0.630384 0.533512 0.041821
C18   C     C_R   0.962670 0.369616 0.466487 0.041820
C19   C     C_R   0.962667 0.630385 0.466495 0.041820
C20   C     C_R   0.037333 0.369615 0.533505 0.041820
C21   C     C_R   0.517672 0.195326 0.518119 -0.142644
C22   C     C_R   0.482328 0.804674 0.481881 -0.142643
C23   C     C_R   0.482323 0.195327 0.481894 -0.142641
C24   C     C_R   0.583462 1.000000 0.546391 0.015369
C25   C     C_R   0.517677 0.804673 0.518105 -0.142641
C26   C     C_R   0.017672 0.695326 0.518119 -0.142644
C27   C     C_R   0.982328 0.304674 0.481881 -0.142643
C28   C     C_R   0.982323 0.695327 0.481894 -0.142641
C29   C     C_R   0.017677 0.304673 0.518105 -0.142641
C30   C     C_R   0.480389 0.065290 0.485447 0.024375
C31   C     C_R   0.519611 0.934710 0.514553 0.024375
C32   C     C_R   0.519609 0.065290 0.514557 0.024376
C33   C     C_R   0.480390 0.934710 0.485443 0.024376
C34   C     C_R   0.980389 0.565290 0.485447 0.024375
C35   C     C_R   0.074810 0.371264 0.566206 0.139161
C36   C     C_R   0.019611 0.434710 0.514553 0.024375
C37   C     C_R   0.019610 0.565290 0.514557 0.024376
C38   C     C_R   0.980390 0.434710 0.485443 0.024376
C39   C     C_R   0.960279 0.500000 0.472189 -0.032587
C40   C     C_R   0.039721 0.500000 0.527811 -0.032588
C41   C     C_R   0.460279 0.000000 0.472189 -0.032587
C42   C     C_R   0.539721 1.000000 0.527811 -0.032588
C43   C     C_R   0.894138 0.434658 0.445279 -0.020940
C44   C     C_R   0.105862 0.565342 0.554721 -0.020940
C45   C     C_R   0.105863 0.434657 0.554719 -0.020940
C46   C     C_R   0.925190 0.628736 0.433794 0.139161
C47   C     C_R   0.894137 0.565343 0.445281 -0.020940
C48   C     C_R   0.394138 0.934658 0.445279 -0.020940
C49   C     C_R   0.605862 0.065342 0.554721 -0.020940
C50   C     C_R   0.605863 0.934657 0.554719 -0.020940
C51   C     C_R   0.394137 0.065343 0.445281 -0.020940
C52   C     C_R   0.839243 0.435834 0.459999 -0.147116
C53   C     C_R   0.160757 0.564165 0.540001 -0.147116
C54   C     C_R   0.160758 0.435834 0.540000 -0.147116
C55   C     C_R   0.839242 0.564166 0.460000 -0.147116
C56   C     C_R   0.339243 0.935834 0.459999 -0.147116
C57   C     C_R   0.925192 0.371265 0.433788 0.139158
C58   C     C_R   0.660757 0.064166 0.540001 -0.147116
C59   C     C_R   0.660758 0.935834 0.540000 -0.147116
C60   C     C_R   0.339242 0.064166 0.460000 -0.147116
C61   C     C_R   0.810367 0.500000 0.484519 0.072292
C62   C     C_R   0.189633 0.500000 0.515481 0.072292
C63   C     C_R   0.310367 1.000000 0.484519 0.072292
C64   C     C_R   0.689632 1.000000 0.515481 0.072292
C65   C     C_R   0.074808 0.628735 0.566212 0.139157
C66   C     C_R   0.574810 0.871264 0.566206 0.139161
C67   C     C_R   0.425190 0.128736 0.433794 0.139161
C68   C     C_R   0.425192 0.871265 0.433788 0.139157
C69   C     C_R   0.298338 0.731565 0.323921 0.994816
C70   C     C_R   0.574808 0.128735 0.566212 0.139157
C71   C     C_R   0.721047 0.265713 0.953448 0.226469
C72   C     C_R   0.278953 0.734287 0.046552 0.226470
C73   C     C_R   0.278953 0.265713 0.046550 0.226451
C74   C     C_R   0.721047 0.734287 0.953450 0.226451
C75   C     C_R   0.221047 0.765713 0.953448 0.226469
C76   C     C_R   0.778953 0.234287 0.046552 0.226469
C77   C     C_R   0.778953 0.765713 0.046550 0.226451
C78   C     C_R   0.221046 0.234287 0.953450 0.226451
C79   C     C_R   0.734439 0.194555 0.961822 -0.109442
C80   C     C_R   0.298337 0.268436 0.323921 0.994819
C81   C     C_R   0.265561 0.805445 0.038178 -0.109442
C82   C     C_R   0.265548 0.194557 0.038198 -0.109444
C83   C     C_R   0.734452 0.805443 0.961802 -0.109444
C84   C     C_R   0.234439 0.694555 0.961822 -0.109442
C85   C     C_R   0.765561 0.305445 0.038178 -0.109442
C86   C     C_R   0.765548 0.694557 0.038198 -0.109444
C87   C     C_R   0.234452 0.305443 0.961802 -0.109443
C88   C     C_R   0.762956 0.178999 0.008044 -0.113725
C89   C     C_R   0.237044 0.821001 0.991955 -0.113725
C90   C     C_R   0.237031 0.179000 0.991977 -0.113729
C91   C     C_R   0.701663 0.731564 0.676079 0.994819
C92   C     C_R   0.762969 0.821000 0.008023 -0.113729
C93   C     C_R   0.262956 0.678999 0.008044 -0.113725
C94   C     C_R   0.737044 0.321001 0.991955 -0.113725
C95   C     C_R   0.737031 0.679000 0.991977 -0.113729
C96   C     C_R   0.262969 0.321000 0.008023 -0.113729
C97   C     C_R   0.643205 0.325622 0.946901 0.482520
C98   C     C_R   0.356795 0.674378 0.053099 0.482520
C99   C     C_R   0.356798 0.325618 0.053096 0.482517
C100  C     C_R   0.643202 0.674382 0.946904 0.482517
C101  C     C_R   0.143205 0.825622 0.946901 0.482520
C102  C     C_R   0.201662 0.768435 0.676079 0.994816
C103  C     C_R   0.856795 0.174378 0.053099 0.482520
C104  C     C_R   0.856798 0.825618 0.053096 0.482517
C105  C     C_R   0.143202 0.174382 0.946904 0.482517
C106  C     C_R   0.615538 0.345596 0.899665 -0.334501
C107  C     C_R   0.384462 0.654403 0.100335 -0.334501
C108  C     C_R   0.384464 0.345594 0.100334 -0.334494
C109  C     C_R   0.615536 0.654406 0.899666 -0.334494
C110  C     C_R   0.115538 0.845596 0.899665 -0.334501
C111  C     C_R   0.884462 0.154403 0.100335 -0.334501
C112  C     C_R   0.884464 0.845594 0.100334 -0.334494
C113  C     C_R   0.798338 0.231565 0.323921 0.994816
C114  C     C_R   0.115536 0.154406 0.899666 -0.334494
C115  C     C_R   0.631247 0.318661 0.815417 0.470480
C116  C     C_R   0.368753 0.681339 0.184583 0.470480
C117  C     C_R   0.368753 0.318661 0.184583 0.470478
C118  C     C_R   0.631247 0.681339 0.815417 0.470478
C119  C     C_R   0.131247 0.818661 0.815417 0.470480
C120  C     C_R   0.868753 0.181339 0.184583 0.470480
C121  C     C_R   0.868753 0.818661 0.184583 0.470478
C122  C     C_R   0.131247 0.181339 0.815417 0.470478
C123  C     C_R   0.679018 0.280211 0.771743 -0.329738
C124  C     C_R   0.798337 0.768436 0.323921 0.994819
C125  C     C_R   0.320981 0.719789 0.228257 -0.329738
C126  C     C_R   0.320981 0.280213 0.228258 -0.329737
C127  C     C_R   0.679019 0.719787 0.771742 -0.329737
C128  C     C_R   0.179018 0.780211 0.771743 -0.329738
C129  C     C_R   0.820982 0.219789 0.228257 -0.329738
C130  C     C_R   0.820981 0.780213 0.228258 -0.329737
C131  C     C_R   0.179019 0.219787 0.771742 -0.329737
C132  C     C_R   0.707896 0.259898 0.817581 0.482393
C133  C     C_R   0.292104 0.740101 0.182419 0.482393
C134  C     C_R   0.292103 0.259903 0.182420 0.482384
C135  C     C_R   0.201663 0.231564 0.676079 0.994819
C136  C     C_R   0.707897 0.740097 0.817580 0.482384
C137  C     C_R   0.207896 0.759899 0.817581 0.482393
C138  C     C_R   0.792104 0.240101 0.182419 0.482393
C139  C     C_R   0.792103 0.759903 0.182420 0.482384
C140  C     C_R   0.207897 0.240097 0.817580 0.482384
C141  C     C_R   0.692550 0.128772 0.529326 0.904640
C142  C     C_R   0.307450 0.871228 0.470674 0.904640
C143  C     C_R   0.307450 0.128772 0.470674 0.904641
C144  C     C_R   0.692550 0.871228 0.529326 0.904641
C145  C     C_R   0.192550 0.628772 0.529326 0.904640
C146  C     C_R   0.916538 0.500000 0.453609 0.015369
C147  C     C_R   0.807450 0.371228 0.470674 0.904640
C148  C     C_R   0.807450 0.628772 0.470674 0.904641
C149  C     C_R   0.192550 0.371228 0.529326 0.904641
C150  C     C_R   0.689724 0.282513 0.905934 -0.187892
C151  C     C_R   0.310276 0.717487 0.094066 -0.187892
C152  C     C_R   0.310277 0.282513 0.094065 -0.187881
C153  C     C_R   0.689723 0.717487 0.905935 -0.187881
C154  C     C_R   0.189724 0.782513 0.905934 -0.187892
C155  C     C_R   0.810276 0.217487 0.094066 -0.187892
C156  C     C_R   0.810277 0.782513 0.094065 -0.187881
F1    F     F_    0.625257 0.348102 0.032504 -0.613367
F2    F     F_    0.398379 0.666335 0.226274 -0.586677
F3    F     F_    0.398379 0.333666 0.226275 -0.586678
F4    F     F_    0.601621 0.666334 0.773725 -0.586678
F5    F     F_    0.101621 0.833665 0.773726 -0.586677
F6    F     F_    0.898379 0.166335 0.226274 -0.586677
F7    F     F_    0.898379 0.833666 0.226275 -0.586678
F8    F     F_    0.101621 0.166334 0.773725 -0.586678
F9    F     F_    0.754940 0.221495 0.775671 -0.620901
F10   F     F_    0.245060 0.778504 0.224328 -0.620901
F11   F     F_    0.245055 0.221506 0.224332 -0.620909
F12   F     F_    0.374743 0.651898 0.967496 -0.613367
F13   F     F_    0.754945 0.778494 0.775668 -0.620909
F14   F     F_    0.254940 0.721495 0.775671 -0.620901
F15   F     F_    0.745060 0.278504 0.224328 -0.620901
F16   F     F_    0.745055 0.721506 0.224332 -0.620909
F17   F     F_    0.254945 0.278494 0.775668 -0.620909
F18   F     F_    0.374750 0.348091 0.967490 -0.613371
F19   F     F_    0.625249 0.651908 0.032510 -0.613371
F20   F     F_    0.125257 0.848102 0.032504 -0.613367
F21   F     F_    0.874743 0.151898 0.967496 -0.613367
F22   F     F_    0.874750 0.848091 0.967490 -0.613371
F23   F     F_    0.125249 0.151908 0.032510 -0.613371
F24   F     F_    0.601621 0.333665 0.773726 -0.586677
H1    H     H_    0.031345 0.253662 0.530343 0.179952
H2    H     H_    0.272181 0.623551 0.014410 0.173629
H3    H     H_    0.272203 0.376447 0.014373 0.173650
H4    H     H_    0.727797 0.623553 0.985627 0.173650
H5    H     H_    0.227819 0.876449 0.985590 0.173629
H6    H     H_    0.772181 0.123551 0.014410 0.173629
H7    H     H_    0.772203 0.876447 0.014373 0.173650
H8    H     H_    0.227797 0.123553 0.985627 0.173650
H9    H     H_    0.722163 0.150922 0.933619 0.174718
H10   H     H_    0.277837 0.849078 0.066381 0.174718
H11   H     H_    0.277815 0.150925 0.066417 0.174737
H12   H     H_    0.968655 0.746338 0.469657 0.179952
H13   H     H_    0.722185 0.849075 0.933583 0.174737
H14   H     H_    0.222163 0.650922 0.933619 0.174718
H15   H     H_    0.777837 0.349078 0.066381 0.174718
H16   H     H_    0.777815 0.650925 0.066417 0.174737
H17   H     H_    0.222185 0.349075 0.933583 0.174737
H18   H     H_    0.968662 0.253663 0.469640 0.179954
H19   H     H_    0.031338 0.746337 0.530360 0.179954
H20   H     H_    0.531345 0.753662 0.530343 0.179952
H21   H     H_    0.468655 0.246338 0.469657 0.179952
H22   H     H_    0.468662 0.753663 0.469640 0.179954
H23   H     H_    0.531338 0.246337 0.530360 0.179954
H24   H     H_    0.727819 0.376449 0.985590 0.173629
I1    I     I_    0.726941 0.500000 0.594781 -0.235163
I2    I     I_    0.437882 0.204271 0.330819 -0.203749
I3    I     I_    0.437881 0.795731 0.330814 -0.203746
I4    I     I_    0.562119 0.204269 0.669186 -0.203746
I5    I     I_    0.273059 0.500000 0.405219 -0.235163
I6    I     I_    0.226941 1.000000 0.594781 -0.235163
I7    I     I_    0.773059 0.000000 0.405219 -0.235163
I8    I     I_    0.062118 0.295729 0.669181 -0.203749
I9    I     I_    0.937882 0.704271 0.330819 -0.203749
I10   I     I_    0.937881 0.295731 0.330814 -0.203746
I11   I     I_    0.062119 0.704269 0.669186 -0.203746
I12   I     I_    0.562118 0.795729 0.669181 -0.203749
O1    O     O_R   0.746490 0.236330 0.638080 -0.575351
O2    O     O_R   0.325830 0.813840 0.483730 -0.626683
O3    O     O_R   0.325830 0.186160 0.483730 -0.626683
O4    O     O_R   0.674170 0.813840 0.516270 -0.626683
O5    O     O_R   0.174170 0.686160 0.516270 -0.626683
O6    O     O_R   0.825830 0.313840 0.483730 -0.626683
O7    O     O_R   0.825830 0.686160 0.483730 -0.626683
O8    O     O_R   0.174170 0.313840 0.516270 -0.626683
O9    O     O_R   0.739960 0.127620 0.525000 -0.601138
O10   O     O_R   0.260040 0.872380 0.475000 -0.601138
O11   O     O_R   0.260040 0.127620 0.475000 -0.601140
O12   O     O_R   0.253510 0.763670 0.361920 -0.575351
O13   O     O_R   0.739960 0.872380 0.525000 -0.601140
O14   O     O_R   0.239960 0.627620 0.525000 -0.601138
O15   O     O_R   0.760040 0.372380 0.475000 -0.601138
O16   O     O_R   0.760040 0.627620 0.475000 -0.601140
O17   O     O_R   0.239960 0.372380 0.525000 -0.601140
O18   O     O_R   0.680700 0.294870 0.629350 -0.546515
O19   O     O_R   0.319300 0.705130 0.370650 -0.546515
O20   O     O_R   0.319300 0.294870 0.370650 -0.546515
O21   O     O_R   0.680700 0.705130 0.629350 -0.546515
O22   O     O_R   0.180700 0.794870 0.629350 -0.546515
O23   O     O_R   0.253510 0.236330 0.361920 -0.575351
O24   O     O_R   0.819300 0.205130 0.370650 -0.546515
O25   O     O_R   0.819300 0.794870 0.370650 -0.546515
O26   O     O_R   0.180700 0.205130 0.629350 -0.546516
O27   O     O_R   0.062020 0.072840 0.007170 -0.569111
O28   O     O_R   0.937980 0.927160 0.992830 -0.569111
O29   O     O_R   0.937980 0.072840 0.992830 -0.569111
O30   O     O_R   0.062020 0.927160 0.007170 -0.569110
O31   O     O_R   0.562020 0.572840 0.007170 -0.569111
O32   O     O_R   0.437980 0.427160 0.992830 -0.569111
O33   O     O_R   0.437980 0.572840 0.992830 -0.569111
O34   O     O_R   0.746490 0.763670 0.638080 -0.575350
O35   O     O_R   0.562020 0.427160 0.007170 -0.569110
O36   O     O_R   0.947860 0.073950 0.109290 -0.563195
O37   O     O_R   0.052140 0.926050 0.890710 -0.563195
O38   O     O_R   0.052140 0.073950 0.890710 -0.563198
O39   O     O_R   0.947860 0.926050 0.109290 -0.563198
O40   O     O_R   0.447860 0.573950 0.109290 -0.563195
O41   O     O_R   0.552140 0.426050 0.890710 -0.563195
O42   O     O_R   0.552140 0.573950 0.890710 -0.563198
O43   O     O_R   0.447860 0.426050 0.109290 -0.563198
O44   O     O_R   0.246490 0.736330 0.638080 -0.575351
O45   O     O_R   0.753510 0.263670 0.361920 -0.575351
O46   O     O_R   0.753510 0.736330 0.361920 -0.575350
O47   O     O_R   0.246490 0.263670 0.638080 -0.575350
O48   O     O_R   0.674170 0.186160 0.516270 -0.626683
Zn1   Zn    Zn3+2 0.792340 0.208750 0.507670 1.113103
Zn2   Zn    Zn3+2 0.494040 0.500000 0.919480 1.184128
Zn3   Zn    Zn3+2 0.005960 1.000000 0.080520 1.184128
Zn4   Zn    Zn3+2 0.994040 1.000000 0.919480 1.184128
Zn5   Zn    Zn3+2 0.207660 0.791250 0.492330 1.113103
Zn6   Zn    Zn3+2 0.207660 0.208750 0.492330 1.113102
Zn7   Zn    Zn3+2 0.792340 0.791250 0.507670 1.113102
Zn8   Zn    Zn3+2 0.292340 0.708750 0.507670 1.113103
Zn9   Zn    Zn3+2 0.707660 0.291250 0.492330 1.113103
Zn10  Zn    Zn3+2 0.707660 0.708750 0.492330 1.113102
Zn11  Zn    Zn3+2 0.292340 0.291250 0.507670 1.113102
Zn12  Zn    Zn3+2 0.505960 0.500000 0.080520 1.184128

loop_
_geom_bond_atom_site_label_1
_geom_bond_atom_site_label_2
_ccdc_geom_bond_type
C100  C153  A    
C138  C155  A    
C145  O14   A    
C69   O12   A    
C77   C92   A    
C135  O47   A    
C43   C52   A    
C31   C42   A    
C82   H11   S    
C27   C29   A    
C34   C37   A    
C24   C42   A    
C6    C111  S    
C21   H23   S    
C6    O29   A    
C118  F4    S    
O21   Zn10  S    
C133  C151  A    
O42   Zn2   S    
C4    O38   A    
C74   C83   A    
C35   I8    S    
C53   C145  S    
C119  F5    S    
C14   C33   A    
C71   C79   A    
C44   C65   A    
C92   H7    S    
O28   Zn4   S    
C71   C94   A    
C26   C28   A    
C3    C105  A    
C16   C31   A    
O7    Zn7   S    
C83   C92   A    
C7    O30   A    
O38   Zn4   S    
C59   C64   A    
O18   Zn9   S    
C113  C129  S    
C23   H21   S    
C60   C63   A    
C10   O40   A    
C17   C26   A    
C11   O41   A    
C135  O26   A    
C4    C114  S    
C148  O7    A    
O27   Zn3   S    
C77   C86   A    
C144  O4    A    
C37   C40   A    
C131  C135  S    
C52   C61   A    
C77   C156  S    
C38   C39   A    
C123  C132  A    
C95   H4    S    
O39   Zn3   S    
C71   C150  S    
C145  O5    A    
C75   C154  S    
C70   I4    S    
O17   Zn11  S    
O43   Zn12  S    
C134  C152  A    
C16   C25   A    
C122  F8    S    
O15   Zn9   S    
C103  C111  A    
C93   H2    S    
O9    Zn1   S    
C9    O32   A    
C80   O20   A    
C142  O2    A    
C131  C140  A    
C18   C57   A    
C86   H16   S    
O12   Zn5   S    
C13   C51   A    
C20   C35   A    
C147  O15   A    
C44   C53   A    
C113  O24   A    
C104  F22   S    
C129  C138  A    
C7    O37   A    
C8    O31   A    
C84   H14   S    
C140  F17   S    
C22   C25   A    
C69   O19   A    
C97   C150  A    
C31   C33   A    
C64   I7    S    
C132  C150  A    
C148  O16   A    
C149  O8    A    
C117  F3    S    
C117  C126  A    
C76   C88   A    
C4    O27   A    
C115  F24   S    
C120  F6    S    
C20   C29   A    
C56   C142  S    
C119  C128  A    
C46   I9    S    
C15   C23   A    
C29   H1    S    
C47   C146  A    
C69   C125  S    
C100  C109  A    
C2    C45   A    
C12   C32   A    
C8    O42   A    
C118  C127  A    
C10   C107  S    
C27   H18   S    
C89   H5    S    
O34   Zn7   S    
C105  F23   S    
C130  C139  A    
C28   H12   S    
C13   C41   A    
C79   C88   A    
C109  C118  A    
C142  O10   A    
C54   C149  S    
C98   C151  A    
O37   Zn4   S    
C141  O9    A    
O46   Zn10  S    
C81   H10   S    
C102  O22   A    
C115  C123  A    
C22   H22   S    
O4    Zn10  S    
C120  C129  A    
O16   Zn10  S    
C105  C114  A    
C36   C40   A    
C127  C136  A    
C101  F20   S    
C2    C44   A    
C104  C112  A    
O6    Zn1   S    
C75   C89   A    
C85   H15   S    
C17   C37   A    
C54   C62   A    
C58   C64   A    
O19   Zn8   S    
C18   C38   A    
O8    Zn6   S    
C12   C21   A    
C11   O35   A    
C98   C107  A    
C34   C39   A    
C74   C153  S    
C111  C120  A    
C9    C108  S    
C97   F1    S    
O33   Zn2   S    
O44   Zn8   S    
O22   Zn5   S    
C128  C137  A    
C1    C123  S    
C96   H3    S    
C116  F2    S    
C99   C108  A    
C2    C40   A    
C57   I10   S    
C85   C94   A    
C144  O13   A    
O36   Zn3   S    
C18   C27   A    
C124  O46   A    
C1    O18   A    
C72   C151  S    
C15   C67   A    
C87   C96   A    
C91   O21   A    
C100  F19   S    
O3    Zn11  S    
C56   C63   A    
C124  C130  S    
C139  F16   S    
C30   C41   A    
C121  C130  A    
C113  O45   A    
C132  F9    S    
C26   H19   S    
C50   C66   A    
C24   C50   A    
C137  F14   S    
C67   I2    S    
C91   C127  S    
C72   C93   A    
C103  C155  A    
C90   H8    S    
C39   C146  A    
C59   C144  S    
C52   C147  S    
O47   Zn11  S    
C116  C125  A    
C21   C23   A    
C73   C152  S    
C19   C28   A    
C101  C154  A    
O1    Zn1   S    
C104  C156  A    
O29   Zn4   S    
C94   H24   S    
C49   C58   A    
C50   C59   A    
C97   C106  A    
O30   Zn3   S    
C35   C45   A    
C78   C87   A    
O26   Zn6   S    
C122  C131  A    
C74   C95   A    
O5    Zn5   S    
C80   O23   A    
C15   C30   A    
C47   C55   A    
C125  C133  A    
C24   C49   A    
C48   C56   A    
C12   C70   A    
C46   C47   A    
C14   C68   A    
O10   Zn5   S    
O23   Zn6   S    
C138  F15   S    
O45   Zn9   S    
C17   C65   A    
C108  C117  A    
O41   Zn2   S    
C72   C81   A    
C143  O11   A    
C48   C68   A    
C19   C34   A    
C110  C119  A    
C45   C54   A    
C13   C48   A    
C19   C46   A    
C124  O25   A    
C65   I11   S    
C51   C60   A    
C5    C112  S    
O24   Zn1   S    
C11   C106  S    
C99   C152  A    
C76   C155  S    
C102  C128  S    
O48   Zn9   S    
C82   C90   A    
C7    C110  S    
C6    O36   A    
C106  C115  A    
C49   C70   A    
O20   Zn11  S    
C33   C41   A    
C88   H6    S    
C14   C22   A    
C9    O43   A    
C101  C110  A    
C76   C85   A    
C81   C89   A    
C112  C121  A    
C60   C143  S    
C25   H20   S    
C8    C109  S    
C36   C38   A    
C30   C32   A    
C136  C153  A    
O13   Zn7   S    
C58   C141  S    
C5    O39   A    
C55   C148  S    
C51   C67   A    
C99   F18   S    
C80   C126  S    
C139  C156  A    
C78   C90   A    
C32   C42   A    
C55   C61   A    
C114  C122  A    
C147  O6    A    
C141  O48   A    
C62   I5    S    
C102  O44   A    
C73   C82   A    
O14   Zn8   S    
C84   C93   A    
C5    O28   A    
C66   I12   S    
C75   C84   A    
O11   Zn6   S    
C149  O17   A    
C107  C116  A    
O2    Zn8   S    
C86   C95   A    
C43   C57   A    
C143  O3    A    
C10   O33   A    
C20   C36   A    
O25   Zn7   S    
O32   Zn2   S    
C136  F13   S    
C126  C134  A    
C53   C62   A    
C79   H9    S    
C68   I3    S    
O35   Zn12  S    
C43   C146  A    
C87   H17   S    
C134  F11   S    
O40   Zn12  S    
C16   C66   A    
C1    O1    A    
C3    C140  A    
C63   I6    S    
C73   C96   A    
C103  F21   S    
O31   Zn12  S    
C133  F10   S    
C3    C78   S    
C137  C154  A    
C98   F12   S    
C61   I1    S    
C83   H13   S    
C91   O34   A    
C121  F7    S    
