data_mof_unit_7272.cif
_audit_creation_date              2012-12-10T17:17:53-0500
_audit_creation_method            fapswitch 2.2
_symmetry_space_group_name_H-M    P1
_symmetry_Int_Tables_number       1
_space_group_crystal_system       triclinic
_cell_length_a                    14.954276
_cell_length_b                    15.647974
_cell_length_c                    9.592773
_cell_angle_alpha                 89.735354
_cell_angle_beta                  90.070919
_cell_angle_gamma                 89.556298
_cell_volume                      2244.65534963

loop_
_atom_site_label
_atom_site_type_symbol
_atom_type_description
_atom_site_fract_x
_atom_site_fract_y
_atom_site_fract_z
_atom_type_partial_charge
C1    C     C_R   0.385144 0.877484 0.501465 0.789755
C2    C     C_R   0.378862 0.116274 0.499832 0.799868
C3    C     C_R   0.885177 0.377462 0.501453 0.789737
C4    C     C_R   0.878866 0.616279 0.499831 0.799778
C5    C     C_R   0.318704 0.251611 0.416871 -0.182997
C6    C     C_R   0.287627 0.776302 0.380652 -0.172475
C7    C     C_R   0.818768 0.751675 0.417010 -0.183018
C8    C     C_R   0.787511 0.276419 0.380616 -0.172458
C9    C     C_R   0.755096 0.815896 0.417653 -0.184734
C10   C     C_R   0.718680 0.218081 0.379626 -0.200853
C11   C     C_R   0.255032 0.315831 0.417511 -0.184726
C12   C     C_R   0.218806 0.717953 0.379617 -0.200808
C13   C     C_R   0.679002 0.808380 0.500679 -0.094058
C14   C     C_R   0.676918 0.194251 0.504215 -0.112943
C15   C     C_R   0.178992 0.308366 0.500668 -0.094092
C16   C     C_R   0.176856 0.694291 0.504140 -0.112964
C17   C     C_R   0.664516 0.001866 0.144135 -0.218685
C18   C     C_R   0.164516 0.501866 0.144135 -0.218719
C19   C     C_R   0.745479 0.003903 0.072557 -0.074414
C20   C     C_R   0.245478 0.503907 0.072557 -0.074400
C21   C     C_R   0.745358 0.002793 0.927624 -0.053393
C22   C     C_R   0.245356 0.502801 0.927622 -0.053409
C23   C     C_R   0.664340 0.000783 0.856226 -0.193853
C24   C     C_R   0.164338 0.500791 0.856226 -0.193734
C25   C     C_R   0.580865 0.000679 0.925462 0.185529
C26   C     C_R   0.080864 0.500682 0.925462 0.185584
C27   C     C_R   0.580889 0.000866 0.074843 0.182330
C28   C     C_R   0.080888 0.500866 0.074843 0.182368
C29   C     C_R   0.422810 0.999231 0.072842 0.041158
C30   C     C_R   0.922810 0.499234 0.072842 0.041102
C31   C     C_R   0.614186 0.122896 0.500619 0.787551
C32   C     C_R   0.616676 0.879505 0.500277 0.774616
C33   C     C_R   0.114168 0.622906 0.500604 0.787496
C34   C     C_R   0.116673 0.379500 0.500275 0.774593
C35   C     C_R   0.423199 0.999157 0.925024 -0.103045
C36   C     C_R   0.923199 0.499159 0.925023 -0.102896
C37   C     C_R   0.212262 0.091282 0.654822 -0.181383
C38   C     C_R   0.326842 0.787988 0.767645 -0.169709
C39   C     C_R   0.712188 0.591220 0.654579 -0.181378
C40   C     C_R   0.827380 0.287561 0.767467 -0.169492
C41   C     C_R   0.134042 0.081802 0.732089 -0.110372
C42   C     C_R   0.280346 0.772569 0.890890 -0.152145
C43   C     C_R   0.633932 0.581704 0.731746 -0.110357
C44   C     C_R   0.781126 0.271933 0.890853 -0.152050
C45   C     C_R   0.570039 0.646733 0.732967 -0.109408
C46   C     C_R   0.693200 0.244613 0.885665 -0.137206
C47   C     C_R   0.070139 0.146822 0.733265 -0.109438
C48   C     C_R   0.192433 0.745227 0.885420 -0.137086
C49   C     C_R   0.583795 0.721380 0.656535 -0.182175
C50   C     C_R   0.654692 0.224837 0.757704 -0.149709
C51   C     C_R   0.083859 0.221426 0.656704 -0.182141
C52   C     C_R   0.154174 0.725233 0.757372 -0.149594
C53   C     C_R   0.663597 0.733491 0.580262 0.102357
C54   C     C_R   0.704516 0.231243 0.632284 0.098320
C55   C     C_R   0.163629 0.233510 0.580356 0.102382
C56   C     C_R   0.204225 0.731480 0.632158 0.098298
C57   C     C_R   0.228843 0.167555 0.579561 0.101780
C58   C     C_R   0.285684 0.776027 0.635597 0.098859
C59   C     C_R   0.728809 0.667532 0.579448 0.101786
C60   C     C_R   0.785986 0.275779 0.635558 0.098855
C61   C     C_R   0.307327 0.178868 0.499399 -0.096733
C62   C     C_R   0.321543 0.806650 0.507035 -0.120052
C63   C     C_R   0.807336 0.678881 0.499400 -0.096707
C64   C     C_R   0.821622 0.306592 0.506983 -0.120078
Cu1   Cu    Cu3+1 0.499990 0.000000 0.640660 0.918675
Cu2   Cu    Cu3+1 0.999990 0.500000 0.640660 0.918692
Cu3   Cu    Cu3+1 0.500010 0.000000 0.359340 0.949447
Cu4   Cu    Cu3+1 0.000010 0.500000 0.359340 0.949431
H1    H     H_    0.378383 0.259660 0.354249 0.158620
H2    H     H_    0.314991 0.796924 0.281642 0.162925
H3    H     H_    0.878489 0.759760 0.354497 0.158571
H4    H     H_    0.814707 0.297190 0.281579 0.162984
H5    H     H_    0.670668 0.999117 0.746289 0.213144
H6    H     H_    0.170666 0.499119 0.746290 0.213136
H7    H     H_    0.360574 0.998383 0.868254 0.142316
H8    H     H_    0.860574 0.498389 0.868253 0.142361
H9    H     H_    0.258231 0.037678 0.652876 0.147518
H10   H     H_    0.395815 0.806042 0.779161 0.161281
H11   H     H_    0.758160 0.537617 0.652608 0.147482
H12   H     H_    0.896347 0.305674 0.778739 0.161062
H13   H     H_    0.122428 0.023275 0.789689 0.154753
H14   H     H_    0.312023 0.783733 0.990658 0.134732
H15   H     H_    0.622287 0.523147 0.789250 0.154752
H16   H     H_    0.812990 0.282944 0.990521 0.134765
H17   H     H_    0.508926 0.638987 0.791793 0.160891
H18   H     H_    0.655448 0.236681 0.981034 0.140079
H19   H     H_    0.009043 0.139099 0.792142 0.160834
H20   H     H_    0.154508 0.737425 0.980650 0.140197
H21   H     H_    0.530597 0.768292 0.656096 0.142447
H22   H     H_    0.585213 0.206574 0.758892 0.169086
H23   H     H_    0.030658 0.268325 0.656200 0.142314
H24   H     H_    0.084712 0.706906 0.758299 0.168960
H25   H     H_    0.766274 0.872785 0.355488 0.153579
H26   H     H_    0.697908 0.191966 0.280410 0.163575
H27   H     H_    0.266171 0.372681 0.355234 0.153609
H28   H     H_    0.198206 0.691682 0.280423 0.163647
H29   H     H_    0.671014 0.000657 0.254124 0.208220
H30   H     H_    0.171013 0.500655 0.254125 0.208206
N1    N     N_R   0.501200 0.000000 0.147910 -0.214615
N2    N     N_R   0.001200 0.500000 0.147910 -0.214633
N3    N     N_R   0.501270 0.000000 0.852040 -0.200852
N4    N     N_R   0.001270 0.500000 0.852040 -0.200874
O1    O     O_R   0.409820 0.909830 0.618810 -0.606718
O2    O     O_R   0.409820 0.090170 0.618810 -0.585772
O3    O     O_R   0.909820 0.409830 0.618810 -0.606622
O4    O     O_R   0.909820 0.590170 0.618810 -0.585801
O5    O     O_R   0.409840 0.909830 0.381240 -0.570526
O6    O     O_R   0.409840 0.090170 0.381240 -0.566622
O7    O     O_R   0.909840 0.409830 0.381240 -0.570563
O8    O     O_R   0.909840 0.590170 0.381240 -0.566594
O9    O     O_R   0.590170 0.090170 0.618760 -0.608330
O10   O     O_R   0.590170 0.909830 0.618760 -0.604159
O11   O     O_R   0.090170 0.590170 0.618760 -0.608253
O12   O     O_R   0.090170 0.409830 0.618760 -0.604196
O13   O     O_R   0.590190 0.090180 0.381190 -0.601966
O14   O     O_R   0.590190 0.909820 0.381190 -0.590615
O15   O     O_R   0.090190 0.590180 0.381190 -0.601969
O16   O     O_R   0.090190 0.409820 0.381190 -0.590640
C65   C     C_1   0.827844 0.002265 0.849095 0.253484
N5    N     N_1   0.893681 0.001524 0.785876 -0.300378
C66   C     C_1   0.327842 0.502262 0.849091 0.253391
N6    N     N_1   0.393677 0.501509 0.785868 -0.300471
C67   C     C_1   0.337794 0.998753 0.142776 0.292272
N7    N     N_1   0.269102 0.998372 0.198261 -0.286909
C68   C     C_1   0.837794 0.498767 0.142777 0.292362
N8    N     N_1   0.769102 0.498396 0.198262 -0.286904
C69   C     C_1   0.828207 0.006630 0.150656 0.220891
N9    N     N_1   0.894332 0.008858 0.213285 -0.272417
C70   C     C_1   0.328207 0.506633 0.150657 0.220855
N10   N     N_1   0.394332 0.508859 0.213285 -0.272364

loop_
_geom_bond_atom_site_label_1
_geom_bond_atom_site_label_2
_ccdc_geom_bond_type
C34   O16   A    
Cu2   Cu4   S    
C58   C62   A    
C40   C60   A    
Cu2   O11   S    
C43   H15   S    
Cu2   N4    S    
C13   C32   S    
C42   H14   S    
Cu1   N3    S    
C14   C31   S    
Cu3   O5    S    
C1    C62   S    
C16   C56   A    
C53   C59   A    
C67   N7    T    
C54   C60   A    
C3    C64   S    
C3    O3    A    
C33   O15   A    
C4    C63   S    
C27   N1    A    
C50   C54   A    
C19   C21   A    
C24   C26   A    
C38   C42   A    
C20   C22   A    
C6    C12   A    
C16   C33   S    
Cu3   O6    S    
C39   H11   S    
C10   H26   S    
C30   N2    A    
C36   N4    A    
C19   C69   S    
C9    C13   A    
Cu1   O9    S    
C5    H1    S    
C36   H8    S    
Cu4   O16   S    
C38   C58   A    
C11   C15   A    
C50   H22   S    
C20   C70   S    
C12   C16   A    
Cu1   Cu3   S    
C48   H20   S    
C45   C49   A    
Cu2   O12   S    
C1    O1    A    
C15   C34   S    
C18   C20   A    
C2    C61   S    
Cu3   N1    S    
C51   H23   S    
C28   N2    A    
C30   C68   S    
C39   C59   A    
C6    H2    S    
C23   H5    S    
C31   O13   A    
C44   C46   A    
C46   C50   A    
C13   C53   A    
C8    H4    S    
C29   N1    A    
C17   C27   A    
C18   C28   A    
C10   C14   A    
C39   C43   A    
C38   H10   S    
C35   N3    A    
C4    O4    A    
C47   H19   S    
C42   C48   A    
C45   H17   S    
Cu3   O14   S    
Cu4   N2    S    
Cu1   O10   S    
Cu4   O15   S    
C2    O2    A    
C41   H13   S    
C40   H12   S    
C41   C47   A    
C5    C61   A    
Cu4   O8    S    
C32   O14   A    
C57   C61   A    
C43   C45   A    
C7    C63   A    
C66   N6    T    
C8    C64   A    
C14   C54   A    
C1    O5    A    
C21   C23   A    
C68   N8    T    
C22   C24   A    
C59   C63   A    
C52   H24   S    
C34   O12   A    
Cu1   O1    S    
Cu2   O3    S    
C40   C44   A    
C69   N9    T    
C9    H25   S    
C22   C66   S    
C70   N10   T    
C11   H27   S    
C7    C9    A    
C4    O8    A    
C32   O10   A    
C26   C28   A    
C35   H7    S    
C49   H21   S    
C44   H16   S    
C47   C51   A    
C65   N5    T    
C24   H6    S    
C5    C11   A    
C25   C27   A    
C29   C35   A    
C33   O11   A    
C30   C36   A    
C60   C64   A    
C6    C62   A    
C55   C57   A    
C21   C65   S    
C26   N4    A    
C7    H3    S    
C25   N3    A    
Cu2   O4    S    
C37   H9    S    
C3    O7    A    
C49   C53   A    
C29   C67   S    
C2    O6    A    
C17   C19   A    
C56   C58   A    
C51   C55   A    
Cu4   O7    S    
C23   C25   A    
C37   C41   A    
Cu3   O13   S    
C48   C52   A    
C8    C10   A    
C31   O9    A    
C12   H28   S    
C18   H30   S    
Cu1   O2    S    
C17   H29   S    
C37   C57   A    
C52   C56   A    
C15   C55   A    
C46   H18   S    
