data_mof_unit_62637.cif
_audit_creation_date              2012-12-10T18:22:05-0500
_audit_creation_method            fapswitch 2.2
_symmetry_space_group_name_H-M    P1
_symmetry_Int_Tables_number       1
_space_group_crystal_system       triclinic
_cell_length_a                    41.744672
_cell_length_b                    35.679264
_cell_length_c                    21.602625
_cell_angle_alpha                 90.000155
_cell_angle_beta                  58.582352
_cell_angle_gamma                 90.000064
_cell_volume                      27458.1426971

loop_
_atom_site_label
_atom_site_type_symbol
_atom_type_description
_atom_site_fract_x
_atom_site_fract_y
_atom_site_fract_z
_atom_type_partial_charge
C1    C     C_R   0.927613 0.499975 0.572738 0.879235
C2    C     C_R   0.072387 0.499975 0.427262 0.879228
C3    C     C_R   0.427613 0.999975 0.572738 0.879230
C4    C     C_R   0.572387 0.999975 0.427262 0.879238
C5    C     C_3   0.993792 0.460825 0.219317 -0.623019
C6    C     C_3   0.006211 0.460825 0.780680 -0.623014
C7    C     C_3   0.493790 0.960825 0.219319 -0.623027
C8    C     C_3   0.506207 0.960825 0.780684 -0.623021
C9    C     C_R   0.671891 0.482515 0.876139 -0.235313
C10   C     C_R   0.328109 0.482517 0.123859 -0.235314
C11   C     C_R   0.171893 0.982535 0.876149 -0.235312
C12   C     C_R   0.828108 0.982535 0.123846 -0.235334
C13   C     C_R   0.632826 0.483952 0.914302 -0.137253
C14   C     C_R   0.367174 0.483954 0.085696 -0.137253
C15   C     C_R   0.132828 0.983973 0.914314 -0.137333
C16   C     C_R   0.867173 0.983973 0.085682 -0.137343
C17   C     C_R   0.613736 0.502864 0.885857 -0.198715
C18   C     C_R   0.386264 0.502864 0.114143 -0.198710
C19   C     C_R   0.113736 0.002868 0.885855 -0.198670
C20   C     C_R   0.886264 0.002867 0.114145 -0.198677
C21   C     C_R   0.634916 0.522055 0.818456 0.280400
C22   C     C_R   0.365084 0.522054 0.181546 0.280401
C23   C     C_R   0.134915 0.022045 0.818436 0.280414
C24   C     C_R   0.865084 0.022042 0.181565 0.280420
C25   C     C_R   0.674391 0.519628 0.779899 0.619873
C26   C     C_R   0.325608 0.519627 0.220103 0.619873
C27   C     C_R   0.174391 0.019617 0.779878 0.619885
C28   C     C_R   0.825608 0.019614 0.220122 0.619883
C29   C     C_R   0.692661 0.500011 0.808795 -0.071090
C30   C     C_R   0.307339 0.500011 0.191205 -0.071081
C31   C     C_R   0.192661 0.000014 0.808788 -0.071070
C32   C     C_R   0.807338 0.000013 0.191209 -0.071073
C33   C     C_1   0.732973 0.498919 0.769879 0.149656
C34   C     C_1   0.267027 0.498919 0.230121 0.149652
C35   C     C_1   0.232974 0.998923 0.769870 0.149658
C36   C     C_1   0.767026 0.998921 0.230125 0.149655
C37   C     C_1   0.766761 0.498958 0.736397 0.074510
C38   C     C_1   0.233239 0.498959 0.263603 0.074487
C39   C     C_1   0.266761 0.998962 0.736388 0.074515
C40   C     C_1   0.733239 0.998960 0.263607 0.074493
C41   C     C_R   0.826961 0.466111 0.675932 -0.179908
C42   C     C_R   0.173039 0.466111 0.324059 -0.179898
C43   C     C_R   0.326961 0.966114 0.675951 -0.179904
C44   C     C_R   0.673039 0.966112 0.324057 -0.179894
C45   C     C_R   0.998058 0.500118 0.381743 0.949001
C46   C     C_R   0.001942 0.500118 0.618257 0.948997
C47   C     C_R   0.498058 0.000118 0.381743 0.949001
C48   C     C_R   0.501941 0.000118 0.618257 0.949000
C49   C     C_R   0.866120 0.466076 0.635872 -0.135364
C50   C     C_R   0.133880 0.466076 0.364120 -0.135370
C51   C     C_R   0.366120 0.966078 0.635893 -0.135373
C52   C     C_R   0.633880 0.966076 0.364117 -0.135368
C53   C     C_R   0.886118 0.499998 0.614949 -0.064756
C54   C     C_R   0.113882 0.499998 0.385052 -0.064763
C55   C     C_R   0.386118 0.999998 0.614946 -0.064773
C56   C     C_R   0.613882 0.999998 0.385053 -0.064769
C57   C     C_R   0.866152 0.533979 0.634912 -0.178702
C58   C     C_R   0.133847 0.533979 0.365097 -0.178672
C59   C     C_R   0.366154 0.033980 0.634883 -0.178670
C60   C     C_R   0.633847 0.033980 0.365104 -0.178661
C61   C     C_R   0.826792 0.534270 0.674918 0.352066
C62   C     C_R   0.173208 0.534270 0.325093 0.352036
C63   C     C_R   0.326793 0.034272 0.674885 0.352072
C64   C     C_R   0.673207 0.034271 0.325102 0.352058
C65   C     C_R   0.807151 0.499963 0.695622 -0.001809
C66   C     C_R   0.192849 0.499964 0.304379 -0.001822
C67   C     C_R   0.307151 0.999966 0.695613 -0.001820
C68   C     C_R   0.692849 0.999964 0.304383 -0.001828
C69   C     C_R   0.000000 0.572583 1.000000 0.932218
C70   C     C_R   0.500000 0.072583 1.000000 0.932213
C71   C     C_R   0.999921 0.500780 0.120261 0.906213
C72   C     C_R   0.000079 0.500780 0.879739 0.906210
C73   C     C_R   0.499921 0.000780 0.120261 0.906213
C74   C     C_R   0.500079 0.000780 0.879739 0.906210
C75   C     C_R   0.000000 0.427588 0.000000 0.748258
C76   C     C_R   0.500000 0.927587 0.000000 0.748254
C77   C     C_R   0.500000 0.428065 1.000000 0.929615
C78   C     C_R   0.000000 0.928065 1.000000 0.929735
C79   C     C_R   0.572139 0.501603 0.927655 0.915312
C80   C     C_R   0.427861 0.501603 0.072345 0.915316
C81   C     C_R   0.072139 0.001605 0.927654 0.915320
C82   C     C_R   0.927861 0.001604 0.072345 0.915330
C83   C     C_3   0.961819 0.522128 0.322309 0.693770
C84   C     C_3   0.038180 0.522131 0.677693 0.693766
C85   C     C_3   0.461820 0.022130 0.322307 0.693773
C86   C     C_3   0.538181 0.022128 0.677691 0.693756
C87   C     C_R   0.500000 0.572279 0.000000 0.967688
C88   C     C_R   1.000000 0.072280 0.000000 0.967508
C89   C     C_R   0.532657 0.327583 0.982327 -0.164348
C90   C     C_R   0.467340 0.327584 0.017668 -0.164347
C91   C     C_R   0.032686 0.827585 0.982145 -0.164342
C92   C     C_R   0.967314 0.827586 0.017849 -0.164340
C93   C     C_R   0.533087 0.366804 0.981954 0.385905
C94   C     C_R   0.466912 0.366805 0.018046 0.385898
C95   C     C_R   0.033114 0.866806 0.981777 0.385855
C96   C     C_R   0.966886 0.866807 0.018222 0.385857
C97   C     C_R   0.500000 0.386796 0.000000 -0.278098
C98   C     C_R   0.000000 0.886798 1.000000 -0.278062
C99   C     C_R   0.499999 0.308125 0.999996 -0.043044
C100  C     C_R   1.000000 0.808127 0.999995 -0.043012
C101  C     C_1   0.499998 0.267936 0.999995 0.059329
C102  C     C_1   1.000000 0.767937 0.999995 0.059328
C103  C     C_1   1.000000 0.734243 0.999995 0.059179
C104  C     C_1   0.499998 0.234242 0.999995 0.059179
C105  C     C_R   0.031772 0.674666 0.949318 -0.153320
C106  C     C_R   0.968227 0.674666 0.050674 -0.153322
C107  C     C_R   0.531771 0.174666 0.949319 -0.153325
C108  C     C_R   0.468226 0.174665 0.050673 -0.153322
C109  C     C_R   0.032452 0.635435 0.947572 0.386887
C110  C     C_R   0.967547 0.635435 0.052423 0.386885
C111  C     C_R   0.532452 0.135434 0.947573 0.386889
C112  C     C_R   0.467547 0.135434 0.052422 0.386887
C113  C     C_R   1.000000 0.614653 0.999998 -0.289139
C114  C     C_R   0.500000 0.114653 0.999999 -0.289138
C115  C     C_3   0.966738 0.526268 0.246097 0.403595
C116  C     C_3   0.033260 0.526270 0.753905 0.403593
C117  C     C_3   0.466739 0.026269 0.246096 0.403596
C118  C     C_3   0.533263 0.026267 0.753902 0.403603
C119  C     C_R   1.000000 0.694036 0.999995 -0.040440
C120  C     C_R   0.499998 0.194035 0.999995 -0.040438
C121  C     C_R   0.514374 0.673129 0.037039 0.312873
C122  C     C_R   0.485624 0.673129 0.962964 0.312875
C123  C     C_R   0.014323 0.173131 0.037128 0.312892
C124  C     C_R   0.985677 0.173131 0.962873 0.312892
C125  C     C_R   0.514320 0.633756 0.036615 0.503406
C126  C     C_R   0.485679 0.633756 0.963387 0.503398
C127  C     C_R   0.014270 0.133759 0.036702 0.503360
C128  C     C_R   0.985729 0.133759 0.963299 0.503353
C129  C     C_R   0.500000 0.613854 0.000001 -0.406247
C130  C     C_R   1.000000 0.113856 0.000000 -0.406132
C131  C     C_R   0.499999 0.692831 0.000002 -0.323996
C132  C     C_R   0.000000 0.192833 0.000000 -0.323978
C133  C     C_1   0.499999 0.733336 0.000002 0.274196
C134  C     C_1   0.000000 0.233338 0.000000 0.274203
C135  C     C_1   0.000000 0.267092 0.000000 0.051630
C136  C     C_1   0.499999 0.767091 0.000001 0.051616
C137  C     C_R   0.033973 0.326963 0.967653 -0.106158
C138  C     C_R   0.966027 0.326963 0.032347 -0.106158
C139  C     C_R   0.533973 0.826962 0.967661 -0.106157
C140  C     C_R   0.466026 0.826963 0.032341 -0.106158
C141  C     C_R   0.034017 0.366130 0.967573 -0.170588
C142  C     C_R   0.965983 0.366130 0.032427 -0.170587
C143  C     C_R   0.534016 0.866129 0.967581 -0.170593
C144  C     C_R   0.465983 0.866129 0.032420 -0.170592
C145  C     C_R   0.000000 0.386142 0.000000 -0.041280
C146  C     C_R   0.500000 0.886142 0.000000 -0.041279
C147  C     C_3   0.034309 0.519773 0.252428 0.300205
C148  C     C_3   0.965690 0.519771 0.747572 0.300204
C149  C     C_3   0.534309 0.019771 0.252428 0.300200
C150  C     C_3   0.465691 0.019774 0.747572 0.300202
C151  C     C_R   0.000000 0.307344 0.000000 0.101591
C152  C     C_R   0.500000 0.807343 0.000001 0.101563
C153  C     C_3   0.996744 0.460193 0.287549 -0.350326
C154  C     C_3   0.003258 0.460193 0.712449 -0.350327
C155  C     C_3   0.496742 0.960193 0.287551 -0.350327
C156  C     C_3   0.503255 0.960193 0.712452 -0.350324
C157  C     C_3   0.997471 0.501035 0.313254 -0.280305
C158  C     C_3   0.002529 0.501036 0.686746 -0.280306
C159  C     C_3   0.497471 0.001035 0.313254 -0.280303
C160  C     C_3   0.502529 0.001036 0.686747 -0.280303
C161  C     C_3   0.999493 0.501243 0.189468 -0.254103
C162  C     C_3   0.000507 0.501244 0.810532 -0.254105
C163  C     C_3   0.499493 0.001243 0.189468 -0.254101
C164  C     C_3   0.500507 0.001244 0.810532 -0.254101
C165  C     C_3   0.037125 0.516444 0.178488 0.478631
C166  C     C_3   0.962874 0.516443 0.821513 0.478636
C167  C     C_3   0.537126 0.016443 0.178488 0.478632
C168  C     C_3   0.462875 0.016446 0.821512 0.478624
Cu1   Cu    Cu3+1 0.000000 0.537250 0.500000 1.141406
Cu2   Cu    Cu3+1 0.500000 0.037250 0.500000 1.141400
Cu3   Cu    Cu3+1 0.000000 0.462700 0.500000 1.029213
Cu4   Cu    Cu3+1 0.500000 0.962700 0.500000 1.029218
Cu5   Cu    Cu3+1 0.962700 0.499940 0.037300 1.117147
Cu6   Cu    Cu3+1 0.037300 0.499940 0.962700 1.117142
Cu7   Cu    Cu3+1 0.462700 0.999940 0.037300 1.117142
Cu8   Cu    Cu3+1 0.537300 0.999940 0.962700 1.117148
Cu9   Cu    Cu3+1 0.499970 0.500070 0.937560 1.185986
Cu10  Cu    Cu3+1 0.500030 0.500070 0.062440 1.185995
Cu11  Cu    Cu3+1 0.999970 0.000070 0.937560 1.185954
Cu12  Cu    Cu3+1 0.000030 0.000070 0.062440 1.185956
H1    H     H_    0.015292 0.441723 0.177568 0.211254
H2    H     H_    0.984711 0.441722 0.822428 0.211252
H3    H     H_    0.515290 0.941723 0.177570 0.211253
H4    H     H_    0.484705 0.941724 0.822434 0.211256
H5    H     H_    0.060211 0.496711 0.143183 0.157329
H6    H     H_    0.939789 0.496708 0.856816 0.157327
H7    H     H_    0.560210 0.996709 0.143183 0.157328
H8    H     H_    0.439789 0.996715 0.856819 0.157332
H9    H     H_    0.685904 0.467600 0.899107 0.189847
H10   H     H_    0.314096 0.467603 0.100889 0.189842
H11   H     H_    0.185907 0.967634 0.899129 0.189842
H12   H     H_    0.814094 0.967635 0.100864 0.189859
H13   H     H_    0.617447 0.469769 0.966078 0.228924
H14   H     H_    0.382553 0.469772 0.033919 0.228918
H15   H     H_    0.117451 0.969805 0.966105 0.228881
H16   H     H_    0.882550 0.969807 0.033890 0.228899
H17   H     H_    0.812077 0.439623 0.691500 0.167479
H18   H     H_    0.187923 0.439624 0.308484 0.167479
H19   H     H_    0.312076 0.939627 0.691538 0.167486
H20   H     H_    0.687923 0.939624 0.308478 0.167483
H21   H     H_    0.880709 0.439451 0.621364 0.174227
H22   H     H_    0.119291 0.439451 0.378620 0.174227
H23   H     H_    0.380708 0.939453 0.621407 0.174231
H24   H     H_    0.619291 0.939452 0.378613 0.174230
H25   H     H_    0.881247 0.560299 0.619276 0.199732
H26   H     H_    0.118752 0.560299 0.380741 0.199733
H27   H     H_    0.381249 0.060299 0.619230 0.199734
H28   H     H_    0.618752 0.060299 0.380750 0.199733
H29   H     H_    0.557799 0.312025 0.968593 0.212917
H30   H     H_    0.442199 0.312027 0.031400 0.212913
H31   H     H_    0.057848 0.812028 0.968275 0.212895
H32   H     H_    0.942152 0.812029 0.031718 0.212897
H33   H     H_    0.056190 0.690583 0.910583 0.213200
H34   H     H_    0.943810 0.690584 0.089408 0.213202
H35   H     H_    0.556189 0.190583 0.910585 0.213190
H36   H     H_    0.443808 0.190583 0.089406 0.213200
H37   H     H_    0.060421 0.311990 0.942498 0.168566
H38   H     H_    0.939579 0.311990 0.057502 0.168565
H39   H     H_    0.560420 0.811989 0.942513 0.168597
H40   H     H_    0.439579 0.811990 0.057489 0.168597
H41   H     H_    0.060666 0.380699 0.942205 0.170773
H42   H     H_    0.939334 0.380699 0.057795 0.170773
H43   H     H_    0.560665 0.880698 0.942218 0.170774
H44   H     H_    0.439334 0.880698 0.057782 0.170774
H45   H     H_    0.939863 0.518023 0.250719 0.166325
H46   H     H_    0.060136 0.518027 0.749282 0.166329
H47   H     H_    0.439864 0.018024 0.250718 0.166327
H48   H     H_    0.560138 0.018019 0.749279 0.166326
H49   H     H_    0.034977 0.549738 0.265111 0.210812
H50   H     H_    0.965021 0.549737 0.734892 0.210812
H51   H     H_    0.534979 0.049736 0.265110 0.210811
H52   H     H_    0.465023 0.049739 0.734888 0.210812
H53   H     H_    0.022734 0.444956 0.274999 0.241635
H54   H     H_    0.977269 0.444955 0.724998 0.241636
H55   H     H_    0.522731 0.944955 0.275002 0.241638
H56   H     H_    0.477265 0.944957 0.725001 0.241636
H57   H     H_    0.972695 0.444062 0.331040 0.246844
H58   H     H_    0.027308 0.444064 0.668956 0.246844
H59   H     H_    0.472692 0.944064 0.331043 0.246846
H60   H     H_    0.527304 0.944062 0.668961 0.246845
H61   H     H_    0.965753 0.450198 0.233069 0.241386
H62   H     H_    0.034250 0.450200 0.766927 0.241388
H63   H     H_    0.465752 0.950199 0.233071 0.241387
H64   H     H_    0.534244 0.950197 0.766933 0.241381
O1    O     O_R   0.945620 0.531450 0.554380 -0.560150
O2    O     O_R   0.054380 0.531450 0.445620 -0.560153
O3    O     O_R   0.445620 0.031450 0.554380 -0.560154
O4    O     O_R   0.554380 0.031450 0.445620 -0.560156
O5    O     O_R   0.554340 0.500070 0.892900 -0.527223
O6    O     O_R   0.445660 0.500070 0.107100 -0.527218
O7    O     O_R   0.054340 0.000070 0.892900 -0.527111
O8    O     O_R   0.945660 0.000070 0.107100 -0.527104
O9    O     O_R   0.554350 0.500090 0.998410 -0.575487
O10   O     O_R   0.445650 0.500090 0.001590 -0.575488
O11   O     O_R   0.054350 0.000090 0.998410 -0.575593
O12   O     O_R   0.945650 0.000090 0.001590 -0.575597
O13   O     O_R   0.500010 0.554450 0.947200 -0.528958
O14   O     O_R   0.499990 0.554450 0.052800 -0.528953
O15   O     O_R   0.000010 0.054450 0.947200 -0.528917
O16   O     O_R   0.999990 0.054450 0.052800 -0.528919
O17   O     O_R   0.945570 0.468490 0.554430 -0.599121
O18   O     O_R   0.054430 0.468490 0.445570 -0.599123
O19   O     O_R   0.445570 0.968490 0.554430 -0.599120
O20   O     O_R   0.554430 0.968490 0.445570 -0.599120
O21   O     O_R   0.999990 0.531450 0.408860 -0.541783
O22   O     O_R   0.000010 0.531450 0.591140 -0.541784
O23   O     O_R   0.499990 0.031450 0.408860 -0.541785
O24   O     O_R   0.500010 0.031450 0.591140 -0.541787
O25   O     O_R   0.999940 0.468490 0.408900 -0.592725
O26   O     O_R   0.000060 0.468490 0.591100 -0.592722
O27   O     O_R   0.499940 0.968490 0.408900 -0.592722
O28   O     O_R   0.500060 0.968490 0.591100 -0.592724
O29   O     O_R   0.968510 0.554330 0.031500 -0.509475
O30   O     O_R   0.031490 0.554330 0.968500 -0.509477
O31   O     O_R   0.468510 0.054330 0.031500 -0.509477
O32   O     O_R   0.531490 0.054330 0.968500 -0.509473
O33   O     O_R   0.968510 0.499950 0.122650 -0.586253
O34   O     O_R   0.031490 0.499950 0.877350 -0.586256
O35   O     O_R   0.468510 0.999950 0.122650 -0.586253
O36   O     O_R   0.531490 0.999950 0.877350 -0.586254
O37   O     O_R   0.031450 0.499990 0.059700 -0.567791
O38   O     O_R   0.968550 0.499990 0.940300 -0.567786
O39   O     O_R   0.531450 0.999990 0.059700 -0.567788
O40   O     O_R   0.468550 0.999990 0.940300 -0.567796
O41   O     O_R   0.968500 0.445560 0.031500 -0.598166
O42   O     O_R   0.031500 0.445560 0.968500 -0.598166
O43   O     O_R   0.468500 0.945560 0.031500 -0.598164
O44   O     O_R   0.531500 0.945560 0.968500 -0.598164
O45   O     O_R   0.499920 0.445680 0.947340 -0.548002
O46   O     O_R   0.500080 0.445680 0.052660 -0.547998
O47   O     O_R   0.999920 0.945680 0.947340 -0.548042
O48   O     O_R   0.000080 0.945680 0.052660 -0.548024
S1    S     S_3+6 0.949644 0.567141 0.368428 0.126109
O49   O     O_2   0.983521 0.591781 0.342051 -0.255732
O50   O     O_2   0.921863 0.586656 0.355058 -0.164999
O51   O     O_3   0.928942 0.560502 0.458181 -0.513891
H65   H     H_    0.921922 0.585920 0.479612 0.376628
S2    S     S_3+6 0.050353 0.567144 0.631576 0.126118
O52   O     O_2   0.016475 0.591782 0.657954 -0.255735
O53   O     O_2   0.078132 0.586660 0.644948 -0.164977
O54   O     O_3   0.071055 0.560506 0.541822 -0.513889
H66   H     H_    0.078071 0.585924 0.520393 0.376632
S3    S     S_3+6 0.449647 0.067143 0.368423 0.126118
O55   O     O_2   0.483525 0.091781 0.342045 -0.255737
O56   O     O_2   0.421868 0.086660 0.355052 -0.164974
O57   O     O_3   0.428945 0.060505 0.458177 -0.513896
H67   H     H_    0.421930 0.085923 0.479606 0.376631
S4    S     S_3+6 0.550356 0.067141 0.631574 0.126131
O58   O     O_2   0.516479 0.091781 0.657954 -0.255737
O59   O     O_2   0.578138 0.086655 0.644942 -0.164927
O60   O     O_3   0.571057 0.060503 0.541820 -0.513895
H68   H     H_    0.578072 0.085921 0.520391 0.376634
F1    F     F_    0.065455 0.502988 0.247944 -0.659137
F2    F     F_    0.934545 0.502984 0.752056 -0.659134
F3    F     F_    0.565454 0.002984 0.247944 -0.659140
F4    F     F_    0.434545 0.002988 0.752058 -0.659139
S5    S     S_3+6 0.613269 0.551187 0.783811 0.104988
O61   O     O_2   0.641205 0.577497 0.726830 -0.149754
O62   O     O_2   0.596472 0.527026 0.750919 -0.230763
O63   O     O_3   0.579280 0.576742 0.851675 -0.555722
H69   H     H_    0.567739 0.591216 0.829108 0.388673
S6    S     S_3+6 0.386731 0.551185 0.216193 0.104989
O64   O     O_2   0.358794 0.577494 0.273176 -0.149754
O65   O     O_2   0.403528 0.527023 0.249084 -0.230758
O66   O     O_3   0.420720 0.576740 0.148332 -0.555721
H70   H     H_    0.432258 0.591216 0.170902 0.388676
S7    S     S_3+6 0.113269 0.051162 0.783770 0.105004
O67   O     O_2   0.141205 0.077464 0.726772 -0.149758
O68   O     O_2   0.096473 0.026988 0.750893 -0.230700
O69   O     O_3   0.079279 0.076725 0.851615 -0.555748
H71   H     H_    0.067735 0.091186 0.829039 0.388752
S8    S     S_3+6 0.886730 0.051158 0.216235 0.105000
O70   O     O_2   0.858793 0.077459 0.273235 -0.149761
O71   O     O_2   0.903526 0.026982 0.249109 -0.230705
O72   O     O_3   0.920720 0.076722 0.148393 -0.555745
H72   H     H_    0.932263 0.091182 0.170971 0.388755
F5    F     F_    0.695382 0.536503 0.714253 -0.566431
F6    F     F_    0.304618 0.536500 0.285750 -0.566436
F7    F     F_    0.195381 0.036477 0.714216 -0.566435
F8    F     F_    0.804618 0.036472 0.285785 -0.566454
F9    F     F_    0.930705 0.499528 0.364035 -0.662161
F10   F     F_    0.069295 0.499532 0.635965 -0.662160
F11   F     F_    0.430706 0.999532 0.364036 -0.662159
F12   F     F_    0.569294 0.999528 0.635963 -0.662157
S9    S     S_3+6 0.802705 0.577674 0.698290 0.081324
O73   O     O_2   0.780401 0.581406 0.779468 -0.201094
O74   O     O_2   0.829682 0.609951 0.666399 -0.238416
O75   O     O_3   0.772990 0.578843 0.667785 -0.421836
H73   H     H_    0.788837 0.573603 0.615153 0.364826
S10   S     S_3+6 0.197295 0.577674 0.301734 0.081335
O76   O     O_2   0.219592 0.581416 0.220558 -0.201091
O77   O     O_2   0.170318 0.609950 0.333648 -0.238399
O78   O     O_3   0.227016 0.578833 0.332225 -0.421815
H74   H     H_    0.211175 0.573573 0.384850 0.364817
S11   S     S_3+6 0.302707 0.077675 0.698226 0.081311
O79   O     O_2   0.280407 0.081424 0.779400 -0.201110
O80   O     O_2   0.329684 0.109949 0.666304 -0.238418
O81   O     O_3   0.272989 0.078827 0.667729 -0.421850
H75   H     H_    0.288833 0.073575 0.615102 0.364835
S12   S     S_3+6 0.697294 0.077674 0.301752 0.081311
O82   O     O_2   0.719584 0.081424 0.220578 -0.201103
O83   O     O_2   0.670318 0.109949 0.333685 -0.238404
O84   O     O_3   0.727022 0.078826 0.332225 -0.421857
H76   H     H_    0.711184 0.073567 0.384851 0.364839
S13   S     S_3+6 0.575614 0.389969 0.956953 0.004360
O85   O     O_2   0.585799 0.415579 0.894106 -0.317688
O86   O     O_2   0.570409 0.412580 0.020235 -0.291420
O87   O     O_3   0.610505 0.358906 0.932720 -0.505073
H77   H     H_    0.633009 0.374368 0.918644 0.384379
S14   S     S_3+6 0.424386 0.389972 0.043050 0.004372
O88   O     O_2   0.414204 0.415584 0.105894 -0.317644
O89   O     O_2   0.429589 0.412581 0.979768 -0.291459
O90   O     O_3   0.389490 0.358913 0.067289 -0.505058
H78   H     H_    0.366992 0.374373 0.081312 0.384367
S15   S     S_3+6 0.075661 0.889975 0.956612 0.004389
O91   O     O_2   0.085770 0.915610 0.893835 -0.317173
O92   O     O_2   0.070523 0.912560 0.019870 -0.291958
O93   O     O_3   0.110579 0.858919 0.932190 -0.505037
H79   H     H_    0.133045 0.874378 0.918427 0.384380
S16   S     S_3+6 0.924339 0.889976 0.043396 0.004393
O94   O     O_2   0.914235 0.915611 0.106171 -0.317281
O95   O     O_2   0.929472 0.912562 0.980143 -0.291850
O96   O     O_3   0.889419 0.858921 0.067825 -0.505038
H80   H     H_    0.866934 0.874382 0.081743 0.384381
S17   S     S_3+6 0.074888 0.614962 0.877465 0.083618
O97   O     O_2   0.095078 0.596828 0.910396 -0.234194
O98   O     O_2   0.066547 0.586049 0.837263 -0.201025
O99   O     O_3   0.103084 0.647782 0.817954 -0.502938
H81   H     H_    0.125846 0.634004 0.781759 0.398865
S18   S     S_3+6 0.925112 0.614963 0.122532 0.083617
O100  O     O_2   0.904921 0.596827 0.089604 -0.234159
O101  O     O_2   0.933454 0.586052 0.162735 -0.201045
O102  O     O_3   0.896916 0.647784 0.182041 -0.502950
H82   H     H_    0.874164 0.634004 0.218260 0.398871
S19   S     S_3+6 0.574890 0.114963 0.877471 0.083622
O103  O     O_2   0.595077 0.096830 0.910409 -0.234310
O104  O     O_2   0.566553 0.086048 0.837264 -0.200899
O105  O     O_3   0.603088 0.147782 0.817962 -0.502927
H83   H     H_    0.625883 0.134018 0.781854 0.398838
S20   S     S_3+6 0.425111 0.114963 0.122531 0.083616
O106  O     O_2   0.404921 0.096826 0.089603 -0.234196
O107  O     O_2   0.433453 0.086051 0.162735 -0.201016
O108  O     O_3   0.396915 0.147783 0.182039 -0.502947
H84   H     H_    0.374153 0.134006 0.218236 0.398864
S21   S     S_3+6 0.532615 0.697811 0.083552 0.092966
O109  O     O_2   0.564932 0.721710 0.029934 -0.269387
O110  O     O_2   0.502397 0.722741 0.139748 -0.271749
O111  O     O_3   0.547549 0.668724 0.124617 -0.396841
H85   H     H_    0.557055 0.685392 0.148193 0.383035
S22   S     S_3+6 0.467382 0.697810 0.916453 0.092963
O112  O     O_2   0.435064 0.721708 0.970073 -0.269369
O113  O     O_2   0.497599 0.722743 0.860259 -0.271769
O114  O     O_3   0.452449 0.668723 0.875386 -0.396841
H86   H     H_    0.442952 0.685393 0.851796 0.383035
S23   S     S_3+6 0.032495 0.197814 0.083759 0.092938
O115  O     O_2   0.064839 0.221706 0.030208 -0.269368
O116  O     O_2   0.002254 0.222751 0.139883 -0.271766
O117  O     O_3   0.047361 0.168727 0.124939 -0.396864
H87   H     H_    0.056831 0.185397 0.148579 0.383033
S24   S     S_3+6 0.967505 0.197813 0.916242 0.092939
O118  O     O_2   0.935160 0.221705 0.969793 -0.269371
O119  O     O_2   0.997746 0.222751 0.860118 -0.271762
O120  O     O_3   0.952639 0.168727 0.875060 -0.396864
H88   H     H_    0.943167 0.185396 0.851426 0.383034
F13   F     F_    0.528986 0.614651 0.070487 -0.555007
F14   F     F_    0.471012 0.614651 0.929515 -0.555008
F15   F     F_    0.028890 0.114656 0.070660 -0.555033
F16   F     F_    0.971109 0.114655 0.929341 -0.555032
F17   F     F_    0.973916 0.563071 0.221761 -0.544141
F18   F     F_    0.026080 0.563073 0.778244 -0.544142
F19   F     F_    0.473919 0.063072 0.221757 -0.544141
F20   F     F_    0.526087 0.063070 0.778239 -0.544133
F21   F     F_    0.046185 0.551020 0.144035 -0.572159
F22   F     F_    0.953812 0.551018 0.855968 -0.572156
F23   F     F_    0.546186 0.051018 0.144035 -0.572158
F24   F     F_    0.453818 0.051023 0.855962 -0.572163

loop_
_geom_bond_atom_site_label_1
_geom_bond_atom_site_label_2
_ccdc_geom_bond_type
S6    O65   D    
C55   C59   A    
C108  C120  A    
S3    O56   D    
Cu10  O9    S    
O54   H66   S    
C117  C163  S    
C118  C164  S    
Cu1   O22   S    
C80   O10   A    
C89   C99   A    
S24   O118  D    
Cu8   O39   S    
C154  C158  S    
S6    O66   S    
C8    H64   S    
C29   C33   S    
C139  C152  A    
C150  H52   S    
C64   S12   S    
C9    C13   A    
Cu10  O14   S    
C11   C15   A    
C140  H40   S    
C12   C16   A    
C76   O43   A    
C91   C100  A    
C140  C152  A    
S4    O60   S    
C141  C145  A    
C86   S4    S    
C14   H14   S    
C76   C146  S    
C115  F17   S    
C4    C56   S    
Cu2   O4    S    
C81   O7    A    
Cu4   O27   S    
C9    H9    S    
C41   C49   A    
O87   H77   S    
C136  C152  S    
C50   H22   S    
C150  F4    S    
C12   H12   S    
Cu9   O45   S    
O69   H71   S    
C27   C31   A    
C42   H18   S    
C62   C66   A    
S18   O101  D    
C94   C97   A    
C118  H48   S    
C7    C163  S    
C17   C21   A    
C5    C161  S    
Cu4   O20   S    
S5    O63   S    
C19   C23   A    
C10   C30   A    
S11   O79   D    
C83   C157  S    
C16   C20   A    
C150  C168  S    
C154  H54   S    
O57   H67   S    
C94   S14   S    
C50   C54   A    
S9    O75   S    
C85   C117  S    
Cu8   O44   S    
C164  C168  S    
C41   H17   S    
O51   H65   S    
C99   C101  S    
C125  C129  A    
C8    C164  S    
S21   O111  S    
S2    O52   D    
O96   H80   S    
C107  C120  A    
C47   O23   A    
Cu6   O37   S    
Cu11  O15   S    
C71   C161  S    
Cu2   O23   S    
C166  H6    S    
C21   S5    S    
S24   O120  S    
S15   O91   D    
C57   C61   A    
C138  C151  A    
C69   O29   A    
O102  H82   S    
C59   C63   A    
C7    H3    S    
C60   C64   A    
C73   C163  S    
Cu7   Cu8   S    
C1    O1    A    
S21   O109  D    
C74   C164  S    
C147  H49   S    
Cu6   O30   S    
C49   C53   A    
C75   O42   A    
O75   H73   S    
C61   S9    S    
C72   O34   A    
C85   F11   S    
S10   O76   D    
Cu7   O31   S    
C148  F2    S    
O72   H72   S    
C23   S7    S    
C107  H35   S    
C132  C134  S    
C93   S13   S    
O93   H79   S    
S13   O85   D    
C161  C165  S    
C141  H41   S    
S16   O94   D    
S17   O98   D    
C20   C82   S    
C123  C132  A    
C87   O13   A    
C112  C114  A    
S14   O88   D    
C17   C79   S    
C47   C159  S    
C73   O35   A    
C48   C160  S    
C74   O36   A    
Cu12  O48   S    
C64   C68   A    
C82   O8    A    
C83   F9    S    
C128  F16   S    
C62   S10   S    
C77   O45   A    
C46   C158  S    
C92   C96   A    
C124  C132  A    
Cu3   O17   S    
C1    C53   S    
C147  C165  S    
C88   O15   A    
C139  C143  A    
O99   H81   S    
C37   C65   S    
S23   O116  D    
C77   C97   S    
Cu1   O2    S    
C51   C55   A    
C116  F18   S    
C44   C52   A    
C84   C116  S    
C80   O6    A    
C147  F1    S    
Cu1   Cu3   S    
C6    H62   S    
C123  S23   S    
S12   O82   D    
Cu12  O11   S    
S4    O59   D    
C106  H34   S    
C49   H21   S    
C70   O32   A    
C30   C34   S    
C155  C159  S    
C83   C115  S    
C156  C160  S    
C45   C157  S    
S8    O70   D    
C91   H31   S    
C10   C14   A    
S13   O87   S    
C77   O46   A    
S7    O68   D    
C84   C158  S    
C89   H29   S    
C27   F7    S    
Cu5   O29   S    
C124  S24   S    
C115  C161  S    
C121  C125  A    
S1    O49   D    
C61   C65   A    
C123  C127  A    
C4    O20   A    
C111  S19   S    
C81   O11   A    
S22   O112  D    
C42   C50   A    
S16   O96   S    
S11   O80   D    
C84   F10   S    
C44   H20   S    
C40   C68   S    
C86   F12   S    
C92   H32   S    
C148  H50   S    
Cu7   O40   S    
C137  H37   S    
C93   C97   A    
C90   C99   A    
S15   O93   S    
C59   H27   S    
C21   C25   A    
C22   S6    S    
C18   C22   A    
C107  C111  A    
C24   C28   A    
S20   O106  D    
C26   C30   A    
C134  C135  T    
C125  F13   S    
C154  H58   S    
Cu1   O21   S    
C13   C17   A    
C87   C129  S    
S24   O119  D    
S2    O53   D    
C25   F5    S    
Cu12  O8    S    
C73   O39   A    
C86   C160  S    
C156  H56   S    
C45   O21   A    
C11   H11   S    
C89   C93   A    
C102  C103  T    
C44   C68   A    
C96   S16   S    
C155  H59   S    
C139  H39   S    
C48   O28   A    
C43   C67   A    
C72   C162  S    
C24   S8    S    
Cu3   O26   S    
C95   S15   S    
C19   C81   S    
S12   O84   S    
C58   C62   A    
C143  C146  A    
O114  H86   S    
C168  H8    S    
C106  C119  A    
Cu10  O46   S    
C148  C166  S    
C122  C131  A    
C149  C167  S    
S8    O72   S    
Cu4   O28   S    
O78   H74   S    
C78   O47   A    
C15   C19   A    
Cu9   O10   S    
C71   O33   A    
C150  C160  S    
Cu7   O35   S    
S1    O51   S    
Cu8   O36   S    
C54   C58   A    
S19   O105  S    
C58   H26   S    
S5    O62   D    
C14   C18   A    
C105  C109  A    
C162  C166  S    
O84   H76   S    
S9    O74   D    
C124  C128  A    
C15   H15   S    
C112  S20   S    
S6    O64   D    
C74   O40   A    
C13   H13   S    
C25   C29   A    
C142  C145  A    
C82   O12   A    
C3    O3    A    
S20   O108  S    
C5    H1    S    
C51   H23   S    
C90   C94   A    
S3    O57   S    
Cu5   O33   S    
S19   O104  D    
Cu2   O24   S    
C71   O37   A    
C144  C146  A    
C2    C54   S    
C53   C57   A    
C60   H28   S    
S10   O78   S    
C75   C145  S    
C56   C60   A    
C52   H24   S    
S2    O54   S    
C149  H51   S    
C35   C39   T    
C16   H16   S    
C165  F21   S    
C28   C32   A    
C46   O22   A    
Cu9   O5    S    
C75   O41   A    
C153  H53   S    
C86   C118  S    
S10   O77   D    
C108  H36   S    
C6    H2    S    
C101  C104  T    
C138  C142  A    
C31   C35   S    
Cu2   O3    S    
C127  F15   S    
C32   C36   S    
S16   O95   D    
S17   O97   D    
C137  C141  A    
C140  C144  A    
C128  C130  A    
S14   O89   D    
S19   O103  D    
C115  H45   S    
S18   O100  D    
C126  C129  A    
C117  F19   S    
Cu4   O19   S    
S21   O110  D    
C2    O2    A    
C118  F20   S    
S7    O67   D    
C109  S17   S    
C43   C51   A    
Cu2   Cu4   S    
C135  C151  S    
C111  C114  A    
C153  C157  S    
O66   H70   S    
C33   C37   T    
S14   O90   S    
C88   O16   A    
Cu11  Cu12  S    
Cu12  O16   S    
C108  C112  A    
C69   C113  S    
C7    C155  S    
O111  H85   S    
C26   F6    S    
Cu9   Cu10  S    
C22   C26   A    
C105  C119  A    
C85   C159  S    
Cu1   O1    S    
C168  F24   S    
Cu9   O13   S    
C104  C120  S    
Cu6   O42   S    
O60   H68   S    
C126  F14   S    
C122  S22   S    
C2    O18   A    
C167  F23   S    
O108  H84   S    
C88   C130  S    
S18   O102  S    
S12   O83   D    
C95   C98   A    
Cu5   Cu6   S    
C70   C114  S    
C45   O25   A    
C69   O30   A    
C10   H10   S    
C116  C162  S    
S8    O71   D    
S13   O86   D    
C143  H43   S    
C110  S18   S    
C48   O24   A    
C57   H25   S    
C156  H60   S    
Cu11  O7    S    
C4    O4    A    
C76   O44   A    
C6    C162  S    
Cu10  O6    S    
C78   C98   S    
C133  C136  T    
Cu11  O47   S    
C23   C27   A    
S22   O113  D    
C109  C113  A    
S17   O99   S    
C8    H4    S    
C11   C31   A    
S3    O55   D    
C12   C32   A    
C79   O5    A    
O81   H75   S    
C3    C55   S    
C121  C131  A    
Cu8   O32   S    
C87   O14   A    
C121  S21   S    
C149  F3    S    
C84   S2    S    
S15   O92   D    
C79   O9    A    
C63   C67   A    
C105  H33   S    
C20   C24   A    
C36   C40   T    
S22   O114  S    
S20   O107  D    
O120  H88   S    
C90   H30   S    
C116  H46   S    
C41   C65   A    
Cu5   O38   S    
C91   C95   A    
C165  H5    S    
C96   C98   A    
C122  C126  A    
Cu3   O18   S    
C163  C167  S    
C47   O27   A    
C28   F8    S    
S23   O115  D    
C155  H55   S    
C167  H7    S    
C100  C102  S    
S23   O117  S    
C6    C154  S    
C149  C159  S    
C110  C113  A    
C1    O17   A    
Cu11  O12   S    
C18   C80   S    
Cu6   O34   S    
C3    O19   A    
Cu3   O25   S    
C72   O38   A    
C147  C157  S    
S4    O58   D    
C92   C100  A    
O117  H87   S    
C106  C110  A    
C38   C66   S    
C117  H47   S    
C63   S11   S    
C70   O31   A    
C85   S3    S    
C34   C38   T    
C39   C67   S    
C103  C119  S    
C131  C133  S    
S7    O69   S    
C78   O48   A    
C166  F22   S    
C9    C29   A    
C148  C158  S    
C153  H57   S    
O63   H69   S    
C127  C130  A    
S1    O50   D    
O90   H78   S    
C83   S1    S    
C5    C153  S    
S5    O61   D    
C8    C156  S    
C144  H44   S    
S11   O81   S    
Cu5   O41   S    
C138  H38   S    
C46   O26   A    
Cu7   O43   S    
C7    H63   S    
C42   C66   A    
O105  H83   S    
C137  C151  A    
C43   H19   S    
C5    H61   S    
S9    O73   D    
C142  H42   S    
C52   C56   A    
