data_mof_unit_60608.cif
_audit_creation_date              2012-12-10T16:46:17-0500
_audit_creation_method            fapswitch 2.2
_symmetry_space_group_name_H-M    P1
_symmetry_Int_Tables_number       1
_space_group_crystal_system       monoclinic
_cell_length_a                    18.527905
_cell_length_b                    18.527898
_cell_length_c                    34.499968
_cell_angle_alpha                 90.0
_cell_angle_beta                  90.0
_cell_angle_gamma                 89.999967
_cell_volume                      11843.2571377

loop_
_atom_site_label
_atom_site_type_symbol
_atom_type_description
_atom_site_fract_x
_atom_site_fract_y
_atom_site_fract_z
_atom_type_partial_charge
C1    C     C_R   0.500000 1.000000 0.605645 0.795501
C2    C     C_R   0.110465 0.426862 0.230098 0.121937
C3    C     C_R   0.556511 0.965600 0.667926 0.033552
C4    C     C_R   0.534400 0.056511 0.167927 0.033552
C5    C     C_R   0.943485 0.534393 0.167926 0.033551
C6    C     C_R   0.465600 0.943489 0.167926 0.033552
C7    C     C_R   0.056515 0.465607 0.167926 0.033552
C8    C     C_R   1.000000 0.500000 0.647961 -0.135066
C9    C     C_R   0.500000 0.000000 0.647961 -0.135071
C10   C     C_R   0.500000 1.000000 0.147961 -0.135071
C11   C     C_R   0.000000 0.500000 0.147961 -0.135067
C12   C     C_R   0.963803 0.443773 0.708849 0.114817
C13   C     C_R   0.573156 0.110453 0.230098 0.121939
C14   C     C_R   0.556222 0.963794 0.708849 0.114816
C15   C     C_R   0.036197 0.556227 0.708849 0.114817
C16   C     C_R   0.443778 0.036206 0.708849 0.114816
C17   C     C_R   0.463793 0.943779 0.208849 0.114816
C18   C     C_R   0.056227 0.463802 0.208849 0.114817
C19   C     C_R   0.536207 0.056221 0.208849 0.114816
C20   C     C_R   0.943773 0.536198 0.208849 0.114817
C21   C     C_R   1.000000 0.500000 0.729303 -0.092248
C22   C     C_R   0.500000 1.000000 0.729303 -0.092247
C23   C     C_R   0.500000 1.000000 0.229303 -0.092247
C24   C     C_R   0.889535 0.573138 0.230098 0.121937
C25   C     C_R   1.000000 0.500000 0.229303 -0.092247
C26   C     C_1   0.110184 0.789004 0.479371 0.240843
C27   C     C_1   0.210993 0.110176 0.479384 0.240830
C28   C     C_1   0.889827 0.210991 0.479390 0.240823
C29   C     C_1   0.789007 0.889822 0.479383 0.240830
C30   C     C_1   0.857851 0.762248 0.445648 0.281631
C31   C     C_1   0.762258 0.142139 0.445654 0.281637
C32   C     C_1   0.142145 0.237748 0.445650 0.281634
C33   C     C_1   0.237769 0.857834 0.445638 0.281630
C34   C     C_1   0.610177 0.289007 0.979383 0.240833
C35   C     C_R   0.426904 0.891089 0.270385 -0.274027
C36   C     C_1   0.710991 0.610173 0.979390 0.240823
C37   C     C_1   0.389822 0.710993 0.979383 0.240832
C38   C     C_1   0.289008 0.389825 0.979386 0.240827
C39   C     C_1   0.357857 0.262254 0.945651 0.281636
C40   C     C_1   0.262247 0.642150 0.945647 0.281633
C41   C     C_1   0.642138 0.737741 0.945654 0.281637
C42   C     C_1   0.737752 0.357851 0.945648 0.281634
C43   C     C_1   0.426244 0.888835 0.353453 0.178107
C44   C     C_1   0.111173 0.426257 0.353453 0.178096
C45   C     C_1   0.573757 0.111164 0.353453 0.178104
C46   C     C_R   0.108922 0.426921 0.270385 -0.274027
C47   C     C_1   0.888827 0.573743 0.353453 0.178097
C48   C     C_1   0.926259 0.388825 0.853453 0.178095
C49   C     C_1   0.611164 0.926243 0.853453 0.178103
C50   C     C_1   0.073741 0.611174 0.853453 0.178095
C51   C     C_1   0.388835 0.073757 0.853453 0.178104
C52   C     C_R   0.573096 0.108911 0.270385 -0.274027
C53   C     C_R   0.891078 0.573079 0.270385 -0.274026
C54   C     C_R   0.926924 0.391076 0.770385 -0.274027
C55   C     C_R   0.608912 0.926905 0.770385 -0.274027
C56   C     C_R   0.073076 0.608924 0.770385 -0.274027
C57   C     C_R   1.000000 0.500000 0.605645 0.795498
C58   C     C_R   0.391088 0.073095 0.770385 -0.274027
C59   C     C_R   0.463019 0.945220 0.291010 0.061833
C60   C     C_R   0.054786 0.463027 0.291010 0.061834
C61   C     C_R   0.536981 0.054780 0.291010 0.061833
C62   C     C_R   0.945214 0.536973 0.291010 0.061834
C63   C     C_R   0.963028 0.445214 0.791010 0.061835
C64   C     C_R   0.554780 0.963019 0.791010 0.061833
C65   C     C_R   0.036972 0.554786 0.791010 0.061834
C66   C     C_R   0.445219 0.036981 0.791010 0.061833
C67   C     C_R   0.500000 1.000000 0.270441 0.050844
C68   C     C_R   0.000000 0.500000 0.105645 0.795499
C69   C     C_R   1.000000 0.500000 0.270441 0.050843
C70   C     C_R   1.000000 0.500000 0.770441 0.050843
C71   C     C_R   0.500000 1.000000 0.770441 0.050844
C72   C     C_R   0.462787 0.945502 0.331848 -0.066653
C73   C     C_R   0.054502 0.462793 0.331848 -0.066651
C74   C     C_R   0.537214 0.054497 0.331848 -0.066652
C75   C     C_R   0.945498 0.537206 0.331849 -0.066651
C76   C     C_R   0.962795 0.445497 0.831849 -0.066651
C77   C     C_R   0.554497 0.962786 0.831849 -0.066653
C78   C     C_R   0.037205 0.554503 0.831849 -0.066651
C79   C     C_R   0.500000 1.000000 0.105646 0.795501
C80   C     C_R   0.445502 0.037213 0.831849 -0.066653
C81   C     C_R   0.500000 1.000000 0.351987 -0.124997
C82   C     C_R   0.000000 0.500000 0.351987 -0.124992
C83   C     C_R   1.000000 0.500000 0.851987 -0.124991
C84   C     C_R   0.500000 1.000000 0.851987 -0.124996
C85   C     C_R   0.500000 1.000000 0.394367 0.823984
C86   C     C_R   0.000000 0.500000 0.394367 0.823990
C87   C     C_R   0.000000 0.500000 0.894367 0.823989
C88   C     C_R   0.500000 0.000000 0.894367 0.823985
C89   C     C_R   0.360847 0.137876 0.500357 0.857480
C90   C     C_R   0.926864 0.389534 0.730098 0.121937
C91   C     C_R   0.862124 0.360847 0.500357 0.857480
C92   C     C_R   0.639153 0.862123 0.500357 0.857480
C93   C     C_R   0.137876 0.639153 0.500357 0.857481
C94   C     C_R   0.638951 0.138333 0.500048 0.865667
C95   C     C_R   0.138334 0.361049 0.500048 0.865667
C96   C     C_R   0.361050 0.861666 0.500048 0.865666
C97   C     C_R   0.861666 0.638950 0.500048 0.865666
C98   C     C_R   0.860847 0.637876 0.000357 0.857480
C99   C     C_R   0.362123 0.860847 0.000357 0.857480
C100  C     C_R   0.139153 0.362123 0.000357 0.857480
C101  C     C_R   0.610454 0.926845 0.730098 0.121939
C102  C     C_R   0.637877 0.139153 0.000357 0.857480
C103  C     C_R   0.138951 0.638334 0.000048 0.865668
C104  C     C_R   0.638333 0.861049 0.000048 0.865667
C105  C     C_R   0.861049 0.361666 0.000048 0.865668
C106  C     C_R   0.361666 0.138951 0.000048 0.865667
C107  C     C_2   0.182531 0.761540 0.486392 -0.037160
C108  C     C_2   0.238456 0.182525 0.486399 -0.037156
C109  C     C_2   0.817476 0.238454 0.486401 -0.037153
C110  C     C_2   0.761543 0.817473 0.486398 -0.037155
C111  C     C_2   0.810627 0.756589 0.479142 -0.040831
C112  C     C_R   0.073136 0.610466 0.730098 0.121938
C113  C     C_2   0.756593 0.189368 0.479145 -0.040831
C114  C     C_2   0.189371 0.243409 0.479143 -0.040829
C115  C     C_2   0.243418 0.810621 0.479136 -0.040827
C116  C     C_2   0.682526 0.261543 0.986398 -0.037156
C117  C     C_2   0.738454 0.682523 0.986402 -0.037154
C118  C     C_2   0.317473 0.738457 0.986398 -0.037156
C119  C     C_2   0.261545 0.317475 0.986400 -0.037155
C120  C     C_2   0.310630 0.256591 0.979144 -0.040831
C121  C     C_2   0.256589 0.689373 0.979141 -0.040829
C122  C     C_2   0.689368 0.743406 0.979145 -0.040831
C123  C     C_R   0.389546 0.073155 0.730098 0.121939
C124  C     C_2   0.743411 0.310627 0.979142 -0.040829
C125  C     C_2   0.194567 0.693409 0.498685 -0.356758
C126  C     C_2   0.306590 0.194565 0.498686 -0.356749
C127  C     C_2   0.805435 0.306589 0.498686 -0.356745
C128  C     C_2   0.693410 0.805434 0.498686 -0.356750
C129  C     C_2   0.810508 0.698657 0.503014 -0.368412
C130  C     C_2   0.698658 0.189491 0.503015 -0.368414
C131  C     C_2   0.189491 0.301342 0.503014 -0.368411
C132  C     C_2   0.301344 0.810508 0.503013 -0.368407
C133  C     C_2   0.694566 0.193410 0.998686 -0.356751
C134  C     C_R   0.426844 0.889547 0.230098 0.121939
C135  C     C_2   0.806589 0.694565 0.998686 -0.356745
C136  C     C_2   0.305434 0.806590 0.998686 -0.356751
C137  C     C_2   0.193410 0.305434 0.998686 -0.356747
C138  C     C_2   0.310509 0.198658 0.003014 -0.368413
C139  C     C_2   0.198657 0.689492 0.003014 -0.368412
C140  C     C_2   0.689491 0.801342 0.003015 -0.368414
C141  C     C_2   0.801343 0.310508 0.003014 -0.368411
C142  C     C_R   0.034392 0.556516 0.667926 0.033552
C143  C     C_R   0.443489 0.034399 0.667926 0.033552
C144  C     C_R   0.965608 0.443484 0.667926 0.033552
H1    H     H_    0.248799 0.674923 0.505266 0.152834
H2    H     H_    0.825076 0.748799 0.005261 0.152827
H3    H     H_    0.251200 0.825077 0.005263 0.152831
H4    H     H_    0.174923 0.251200 0.005262 0.152829
H5    H     H_    0.274115 0.196882 0.027669 0.157197
H6    H     H_    0.196883 0.725883 0.027669 0.157197
H7    H     H_    0.725886 0.803120 0.027668 0.157198
H8    H     H_    0.803117 0.274116 0.027669 0.157197
H9    H     H_    0.397818 0.848724 0.285342 0.160632
H10   H     H_    0.151292 0.397842 0.285342 0.160631
H11   H     H_    0.602182 0.151275 0.285342 0.160631
H12   H     H_    0.325076 0.248799 0.505263 0.152829
H13   H     H_    0.848708 0.602158 0.285342 0.160631
H14   H     H_    0.897845 0.348706 0.785342 0.160631
H15   H     H_    0.651276 0.897819 0.785342 0.160631
H16   H     H_    0.102154 0.651294 0.785342 0.160631
H17   H     H_    0.348724 0.102181 0.785342 0.160631
H18   H     H_    0.108748 0.596421 0.630036 0.219234
H19   H     H_    0.026332 0.637513 0.628154 0.174276
H20   H     H_    0.403590 0.108760 0.630037 0.219241
H21   H     H_    0.362490 0.026348 0.628155 0.174277
H22   H     H_    0.891252 0.403579 0.630036 0.219234
H23   H     H_    0.751200 0.325077 0.505261 0.152828
H24   H     H_    0.973668 0.362486 0.628154 0.174277
H25   H     H_    0.596410 0.891239 0.630037 0.219241
H26   H     H_    0.637510 0.973652 0.628155 0.174276
H27   H     H_    0.608761 0.096409 0.130037 0.219241
H28   H     H_    0.526349 0.137510 0.128155 0.174276
H29   H     H_    0.903580 0.608749 0.130036 0.219235
H30   H     H_    0.862487 0.526333 0.128155 0.174277
H31   H     H_    0.391239 0.903591 0.130037 0.219241
H32   H     H_    0.473651 0.862490 0.128155 0.174276
H33   H     H_    0.096420 0.391251 0.130036 0.219235
H34   H     H_    0.674923 0.751200 0.505263 0.152830
H35   H     H_    0.137513 0.473666 0.128155 0.174277
H36   H     H_    0.909017 0.283239 0.720563 0.188557
H37   H     H_    0.833853 0.335209 0.720267 0.189392
H38   H     H_    0.716745 0.908975 0.720563 0.188558
H39   H     H_    0.664760 0.833823 0.720267 0.189391
H40   H     H_    0.090983 0.716761 0.720563 0.188556
H41   H     H_    0.166147 0.664791 0.720267 0.189392
H42   H     H_    0.283255 0.091025 0.720563 0.188558
H43   H     H_    0.335240 0.166177 0.720267 0.189392
H44   H     H_    0.408972 0.783256 0.220563 0.188558
H45   H     H_    0.774117 0.696883 0.527669 0.157197
H46   H     H_    0.333821 0.835243 0.220267 0.189392
H47   H     H_    0.216759 0.409011 0.220563 0.188557
H48   H     H_    0.164787 0.333849 0.220267 0.189392
H49   H     H_    0.591028 0.216744 0.220563 0.188558
H50   H     H_    0.666179 0.164757 0.220267 0.189391
H51   H     H_    0.783241 0.590988 0.220563 0.188557
H52   H     H_    0.835213 0.666151 0.220267 0.189392
H53   H     H_    0.696881 0.225886 0.527668 0.157198
H54   H     H_    0.225884 0.303117 0.527669 0.157196
H55   H     H_    0.303112 0.774122 0.527671 0.157194
H56   H     H_    0.748799 0.174923 0.005263 0.152830
N1    N     N_1   0.052644 0.811016 0.473798 -0.183012
N2    N     N_1   0.688981 0.552629 0.973825 -0.183024
N3    N     N_1   0.447364 0.688982 0.973815 -0.183018
N4    N     N_1   0.311018 0.447367 0.973820 -0.183022
N5    N     N_1   0.395330 0.266985 0.918924 -0.165770
N6    N     N_1   0.266975 0.604680 0.918919 -0.165774
N7    N     N_1   0.604662 0.733007 0.918928 -0.165769
N8    N     N_1   0.733023 0.395321 0.918919 -0.165775
N9    N     N_3   0.065439 0.615433 0.646515 -0.423570
N10   N     N_3   0.384574 0.065453 0.646515 -0.423570
N11   N     N_3   0.934561 0.384566 0.646515 -0.423569
N12   N     N_1   0.188983 0.052633 0.473816 -0.183021
N13   N     N_3   0.615426 0.934547 0.646515 -0.423569
N14   N     N_3   0.565454 0.115426 0.146515 -0.423569
N15   N     N_3   0.884567 0.565440 0.146515 -0.423570
N16   N     N_3   0.434546 0.884574 0.146515 -0.423569
N17   N     N_3   0.115433 0.434560 0.146515 -0.423570
N18   N     N_3   0.887731 0.332613 0.711334 -0.427986
N19   N     N_3   0.667367 0.887700 0.711334 -0.427988
N20   N     N_3   0.112269 0.667387 0.711334 -0.427986
N21   N     N_3   0.332633 0.112300 0.711334 -0.427988
N22   N     N_3   0.387698 0.832635 0.211334 -0.427988
N23   N     N_1   0.947370 0.188981 0.473825 -0.183024
N24   N     N_3   0.167385 0.387727 0.211334 -0.427986
N25   N     N_3   0.612302 0.167365 0.211334 -0.427988
N26   N     N_3   0.832615 0.612273 0.211334 -0.427986
N27   N     N_1   0.397195 0.843795 0.370693 -0.202445
N28   N     N_1   0.156216 0.397211 0.370693 -0.202451
N29   N     N_1   0.602808 0.156204 0.370693 -0.202446
N30   N     N_1   0.843784 0.602788 0.370693 -0.202450
N31   N     N_1   0.897215 0.343782 0.870693 -0.202452
N32   N     N_1   0.656203 0.897192 0.870693 -0.202446
N33   N     N_1   0.102785 0.656217 0.870693 -0.202451
N34   N     N_1   0.811018 0.947364 0.473816 -0.183020
N35   N     N_1   0.343796 0.102807 0.870693 -0.202446
N36   N     N_1   0.895321 0.766976 0.418919 -0.165771
N37   N     N_1   0.766991 0.104664 0.418927 -0.165769
N38   N     N_1   0.104672 0.233018 0.418922 -0.165774
N39   N     N_1   0.233048 0.895296 0.418905 -0.165777
N40   N     N_1   0.552635 0.311018 0.973815 -0.183019
O1    O     O_3   0.500000 1.000000 0.500000 -0.500219
O2    O     O_R   0.560130 1.000000 0.087440 -0.647638
O3    O     O_R   0.000000 0.560130 0.087440 -0.647637
O4    O     O_R   0.439870 1.000000 0.087440 -0.647638
O5    O     O_R   0.439940 1.000000 0.412560 -0.631047
O6    O     O_R   0.000000 0.439940 0.412560 -0.631048
O7    O     O_R   0.560060 1.000000 0.412560 -0.631048
O8    O     O_R   0.000000 0.560060 0.412560 -0.631047
O9    O     O_R   0.939940 0.500000 0.912560 -0.631048
O10   O     O_R   0.500000 0.939940 0.912560 -0.631047
O11   O     O_R   0.060060 0.500000 0.912560 -0.631048
O12   O     O_3   1.000000 0.500000 0.500000 -0.500220
O13   O     O_R   0.500000 0.060060 0.912560 -0.631047
O14   O     O_R   0.415450 0.144560 0.522930 -0.645175
O15   O     O_R   0.855440 0.415450 0.522930 -0.645174
O16   O     O_R   0.584550 0.855440 0.522930 -0.645175
O17   O     O_R   0.144560 0.584550 0.522930 -0.645174
O18   O     O_R   0.584550 0.144560 0.522930 -0.641779
O19   O     O_R   0.144560 0.415450 0.522930 -0.641778
O20   O     O_R   0.415450 0.855440 0.522930 -0.641778
O21   O     O_R   0.855440 0.584550 0.522930 -0.641778
O22   O     O_R   0.915450 0.644560 0.022930 -0.645174
O23   O     O_3   0.000000 0.500000 0.000000 -0.500220
O24   O     O_R   0.355440 0.915450 0.022930 -0.645175
O25   O     O_R   0.084550 0.355440 0.022930 -0.645175
O26   O     O_R   0.644560 0.084550 0.022930 -0.645175
O27   O     O_R   0.084550 0.644560 0.022930 -0.641779
O28   O     O_R   0.644560 0.915450 0.022930 -0.641779
O29   O     O_R   0.915450 0.355440 0.022930 -0.641779
O30   O     O_R   0.355440 0.084550 0.022930 -0.641778
O31   O     O_R   0.644640 0.915430 0.477080 -0.628428
O32   O     O_R   0.084570 0.644640 0.477080 -0.628429
O33   O     O_R   0.355360 0.084570 0.477080 -0.628427
O34   O     O_3   0.500000 0.000000 0.000000 -0.500219
O35   O     O_R   0.915430 0.355360 0.477080 -0.628426
O36   O     O_R   0.355360 0.915430 0.477080 -0.627567
O37   O     O_R   0.915430 0.644640 0.477080 -0.627568
O38   O     O_R   0.644640 0.084570 0.477080 -0.627567
O39   O     O_R   0.084570 0.355360 0.477080 -0.627567
O40   O     O_R   0.144640 0.415430 0.977080 -0.628427
O41   O     O_R   0.584570 0.144640 0.977080 -0.628428
O42   O     O_R   0.855360 0.584570 0.977080 -0.628426
O43   O     O_R   0.415430 0.855360 0.977080 -0.628428
O44   O     O_R   0.855360 0.415430 0.977080 -0.627567
O45   O     O_R   0.500000 0.939870 0.587440 -0.647638
O46   O     O_R   0.415430 0.144640 0.977080 -0.627567
O47   O     O_R   0.144640 0.584570 0.977080 -0.627567
O48   O     O_R   0.584570 0.855360 0.977080 -0.627567
O49   O     O_R   0.060130 0.500000 0.587440 -0.647637
O50   O     O_R   0.500000 0.060130 0.587440 -0.647638
O51   O     O_R   0.939870 0.500000 0.587440 -0.647636
O52   O     O_R   1.000000 0.439870 0.087440 -0.647636
Zn1   Zn    Zn3+2 0.414160 1.000000 0.467250 0.999465
Zn2   Zn    Zn3+2 0.914220 0.500000 0.532750 0.961918
Zn3   Zn    Zn3+2 0.500000 0.914220 0.532750 0.961916
Zn4   Zn    Zn3+2 0.085780 0.500000 0.532750 0.961918
Zn5   Zn    Zn3+2 0.000000 0.585780 0.032750 0.961918
Zn6   Zn    Zn3+2 0.414220 1.000000 0.032750 0.961916
Zn7   Zn    Zn3+2 0.000000 0.414220 0.032750 0.961918
Zn8   Zn    Zn3+2 0.585780 1.000000 0.032750 0.961916
Zn9   Zn    Zn3+2 1.000000 0.414160 0.467250 0.999466
Zn10  Zn    Zn3+2 0.585840 1.000000 0.467250 0.999464
Zn11  Zn    Zn3+2 0.000000 0.585840 0.467250 0.999464
Zn12  Zn    Zn3+2 0.914160 0.500000 0.967250 0.999466
Zn13  Zn    Zn3+2 0.500000 0.914160 0.967250 0.999465
Zn14  Zn    Zn3+2 0.085840 0.500000 0.967250 0.999466
Zn15  Zn    Zn3+2 0.500000 0.085840 0.967250 0.999465
Zn16  Zn    Zn3+2 0.500000 0.085780 0.532750 0.961917

loop_
_geom_bond_atom_site_label_1
_geom_bond_atom_site_label_2
_ccdc_geom_bond_type
C64   C77   A    
C102  O41   A    
C9    C143  A    
C91   C127  S    
C52   C61   A    
C13   N25   S    
C63   C76   A    
C39   C120  S    
O11   Zn14  S    
C51   N35   T    
H30   N15   S    
C110  C111  S    
C109  C127  D    
H20   N10   S    
O22   Zn5   S    
C86   O8    A    
C103  O27   A    
C34   N40   T    
O42   Zn12  S    
O30   Zn6   S    
C38   N4    T    
C89   O33   A    
C18   C25   A    
H28   N14   S    
C76   C83   A    
C40   N6    T    
H19   N9    S    
C4    N14   S    
C92   O31   A    
C116  C133  D    
C104  C140  S    
C41   N7    T    
C50   N33   T    
C19   C23   A    
O1    Zn3   S    
C8    C57   S    
C15   C142  A    
C101  N19   S    
O20   Zn3   S    
C10   C79   S    
C135  H2    S    
O45   Zn3   S    
C36   C117  S    
C103  O47   A    
C93   O17   A    
C38   C119  S    
H42   N21   S    
O19   Zn4   S    
C62   C75   A    
C120  C138  D    
C74   C81   A    
C117  C135  D    
C118  C136  D    
H39   N19   S    
C46   C60   A    
C84   C88   S    
H33   N17   S    
O16   Zn3   S    
C88   O13   A    
C61   C74   A    
C3    N13   S    
H25   N13   S    
C139  H6    S    
O50   Zn16  S    
H31   N16   S    
H49   N25   S    
C91   O15   A    
C27   C108  S    
C99   C136  S    
C100  C137  S    
H40   N20   S    
C54   C63   A    
O52   Zn7   S    
C108  C126  D    
C144  N11   S    
C110  C128  D    
O10   Zn13  S    
O46   Zn15  S    
C48   C76   S    
C137  H4    S    
O4    Zn6   S    
C5    C20   A    
C87   O11   A    
C123  N21   S    
C17   C23   A    
H50   N25   S    
C12   C90   A    
H29   N15   S    
O24   Zn6   S    
C54   C90   A    
H46   N22   S    
H21   N10   S    
C65   C70   A    
C5    N15   S    
C23   C67   A    
C97   O37   A    
O17   Zn4   S    
C59   C67   A    
C51   C80   S    
H27   N14   S    
O6    Zn9   S    
C134  N22   S    
C129  H45   S    
O13   Zn15  S    
O14   Zn16  S    
H38   N19   S    
H35   N17   S    
C85   O5    A    
H24   N11   S    
O15   Zn2   S    
C115  C132  D    
C138  H5    S    
C29   N34   T    
C113  C130  D    
C26   N1    T    
C107  C125  D    
C77   C84   A    
C98   C135  S    
C45   C74   S    
C41   C122  S    
C117  C122  S    
O41   Zn15  S    
C3    C9    A    
C94   O38   A    
C61   C67   A    
C2    N24   S    
C112  N20   S    
O33   Zn1   S    
C104  O48   A    
C89   O14   A    
C96   O36   A    
C124  C141  D    
O47   Zn14  S    
C11   C68   S    
C87   O9    A    
C6    C17   A    
C15   C112  A    
C35   H9    S    
C75   C82   A    
C97   O21   A    
C66   C80   A    
O23   Zn12  S    
C121  C139  D    
C49   N32   T    
C102  C133  S    
C47   C75   S    
O28   Zn8   S    
C125  H1    S    
C94   O18   A    
C60   C69   A    
C27   N12   T    
C49   C77   S    
O27   Zn5   S    
C90   N18   S    
C6    N16   S    
C98   O22   A    
C85   O7    A    
C142  N9    S    
C30   N36   T    
C31   C113  S    
C81   C85   S    
C141  H8    S    
O1    Zn10  S    
C83   C87   S    
H41   N20   S    
C114  C131  D    
C80   C84   A    
C1    O45   A    
C47   N30   T    
C52   H11   S    
C58   C123  A    
C5    C11   A    
O1    Zn1   S    
C20   C25   A    
C68   O3    A    
C60   C73   A    
C35   C134  A    
C35   C59   A    
C64   C71   A    
C108  C114  S    
C48   N31   T    
C78   C83   A    
C111  C129  D    
C42   N8    T    
O23   Zn7   S    
C130  H53   S    
C72   C81   A    
C59   C72   A    
C55   H15   S    
C95   O19   A    
C95   C131  S    
C50   C78   S    
O34   Zn15  S    
C143  N10   S    
C89   C126  S    
C105  O29   A    
C46   H10   S    
C33   C115  S    
C13   C19   A    
C29   C110  S    
C16   C143  A    
C1    C9    S    
H48   N24   S    
H26   N13   S    
C14   C101  A    
H43   N21   S    
C24   C53   A    
C82   C86   S    
C62   C69   A    
C7    C11   A    
O34   Zn8   S    
H22   N11   S    
C13   C52   A    
C66   C71   A    
C96   O20   A    
C131  H54   S    
C94   C130  S    
C79   O4    A    
C44   N28   T    
C140  H7    S    
C3    C14   A    
O18   Zn16  S    
C92   O16   A    
C99   O24   A    
C68   O52   A    
C73   C82   A    
C57   O49   A    
C16   C22   A    
C65   C78   A    
C116  C124  S    
C106  O46   A    
C45   N29   T    
O23   Zn14  S    
C6    C10   A    
C119  C120  S    
C98   O42   A    
H18   N9    S    
C30   C111  S    
C91   O35   A    
O36   Zn1   S    
C14   C22   A    
C32   N38   T    
C1    O50   A    
O23   Zn5   S    
C44   C73   S    
C93   C125  S    
O48   Zn13  S    
C122  C140  D    
O1    Zn16  S    
C17   C134  A    
C8    C142  A    
O12   Zn9   S    
O31   Zn10  S    
C58   H17   S    
H47   N24   S    
O34   Zn13  S    
O37   Zn11  S    
H44   N22   S    
C43   C72   S    
O39   Zn9   S    
C2    C18   A    
O8    Zn11  S    
H36   N18   S    
O3    Zn5   S    
C42   C124  S    
C2    C46   A    
O2    Zn8   S    
C40   C121  S    
O12   Zn2   S    
C16   C123  A    
O34   Zn6   S    
C105  C141  S    
C106  C138  S    
O9    Zn12  S    
C100  O25   A    
C34   C116  S    
C56   C65   A    
C105  O44   A    
C79   O2    A    
C4    C19   A    
C58   C66   A    
C37   C118  S    
C20   C24   A    
O5    Zn1   S    
H32   N16   S    
C57   O51   A    
C109  C113  S    
C96   C132  S    
C31   N37   T    
C86   O6    A    
O21   Zn2   S    
C100  O40   A    
C36   N2    T    
C24   N26   S    
C92   C128  S    
O32   Zn11  S    
C43   N27   T    
O40   Zn14  S    
H52   N26   S    
O25   Zn7   S    
O49   Zn4   S    
C95   O39   A    
O26   Zn8   S    
C119  C137  D    
O51   Zn2   S    
C12   C21   A    
C132  H55   S    
C12   C144  A    
C118  C121  S    
C33   N39   T    
C103  C139  S    
C54   H14   S    
C53   C62   A    
C63   C70   A    
C7    C18   A    
C55   C64   A    
C37   N3    T    
C8    C144  A    
O12   Zn11  S    
C107  C115  S    
O38   Zn10  S    
C106  O30   A    
C133  H56   S    
O7    Zn10  S    
C128  H34   S    
C4    C10   A    
C22   C71   A    
O29   Zn7   S    
C88   O10   A    
O44   Zn12  S    
H51   N26   S    
O12   Zn4   S    
C104  O28   A    
C26   C107  S    
O35   Zn9   S    
C28   C109  S    
C55   C101  A    
C53   H13   S    
C21   C70   A    
C97   C129  S    
C56   H16   S    
C93   O32   A    
C28   N23   T    
C39   N5    T    
C136  H3    S    
C7    N17   S    
C15   C21   A    
C25   C69   A    
C127  H23   S    
C102  O26   A    
H37   N18   S    
C32   C114  S    
C56   C112  A    
O43   Zn13  S    
C126  H12   S    
C99   O43   A    
