data_mof_unit_33023.cif
_audit_creation_date              2012-12-10T17:24:35-0500
_audit_creation_method            fapswitch 2.2
_symmetry_space_group_name_H-M    P1
_symmetry_Int_Tables_number       1
_space_group_crystal_system       triclinic
_cell_length_a                    31.44807
_cell_length_b                    18.308612
_cell_length_c                    25.621558
_cell_angle_alpha                 90.052464
_cell_angle_beta                  144.469705
_cell_angle_gamma                 89.96257
_cell_volume                      8572.95521433

loop_
_atom_site_label
_atom_site_type_symbol
_atom_type_description
_atom_site_fract_x
_atom_site_fract_y
_atom_site_fract_z
_atom_type_partial_charge
Br1   Br    Br    0.878545 0.747987 0.930699 -0.035293
Br2   Br    Br    0.100911 0.272015 0.040936 -0.101928
Br3   Br    Br    0.380589 0.006582 0.057855 -0.080333
Br4   Br    Br    0.632359 0.005159 0.981716 -0.064223
Br5   Br    Br    0.390417 0.234166 0.947050 -0.069335
Br6   Br    Br    0.642217 0.736220 0.096300 -0.047319
Br7   Br    Br    0.868376 0.495630 0.020653 -0.080693
Br8   Br    Br    0.118922 0.492866 0.940147 -0.089652
C1    C     C_R   0.860273 0.860110 0.110107 0.481228
C2    C     C_R   0.294549 0.160927 0.672962 -0.103294
C3    C     C_R   0.819538 0.264873 0.047216 0.007611
C4    C     C_R   0.258574 0.295903 0.052895 0.011548
C5    C     C_R   0.737155 0.708189 0.941566 0.008997
C6    C     C_R   0.680547 0.235246 0.953227 0.009894
C7    C     C_R   0.322232 0.767394 0.055754 0.007704
C8    C     C_R   0.195795 0.195961 0.945995 0.020632
C9    C     C_R   0.803982 0.804251 0.053880 0.015228
C10   C     C_R   0.804062 0.195957 0.054028 0.019056
C11   C     C_R   0.195981 0.804068 0.945912 0.017416
C12   C     C_R   0.696269 0.695753 0.946803 0.015481
C13   C     C_R   0.326801 0.870035 0.472614 -0.093191
C14   C     C_R   0.303962 0.304035 0.053864 0.018329
C15   C     C_R   0.304011 0.695897 0.053944 0.017602
C16   C     C_R   0.695909 0.304034 0.946063 0.021053
C17   C     C_R   0.867993 0.074207 0.921604 -0.116741
C18   C     C_R   0.131534 0.075393 0.077676 -0.112340
C19   C     C_R   0.465489 0.630143 0.020421 -0.112273
C20   C     C_R   0.537303 0.370650 0.982175 -0.124987
C21   C     C_R   0.804555 0.091383 0.830781 -0.123198
C22   C     C_R   0.194858 0.093356 0.168218 -0.117011
C23   C     C_R   0.452664 0.695192 0.981057 -0.113197
C24   C     C_R   0.640802 0.094504 0.334247 -0.099918
C25   C     C_R   0.559620 0.308150 0.030918 -0.123463
C26   C     C_R   0.804982 0.093621 0.776765 0.065417
C27   C     C_R   0.194900 0.094793 0.222652 0.067529
C28   C     C_R   0.457346 0.697654 0.931298 0.081769
C29   C     C_R   0.564069 0.308052 0.089782 0.070617
C30   C     C_R   0.870060 0.077579 0.815389 -0.066058
C31   C     C_R   0.130217 0.077550 0.184671 -0.068826
C32   C     C_R   0.472654 0.633027 0.919184 -0.051513
C33   C     C_R   0.543389 0.371113 0.096676 -0.099160
C34   C     C_R   0.933861 0.054740 0.906057 -0.001269
C35   C     C_R   0.207825 0.336124 0.327794 -0.102139
C36   C     C_R   0.066210 0.054855 0.093910 -0.001891
C37   C     C_R   0.484554 0.566121 0.957611 -0.007514
C38   C     C_R   0.521209 0.435415 0.048027 -0.011603
C39   C     C_R   0.933246 0.053821 0.960644 0.009959
C40   C     C_R   0.066666 0.054283 0.039151 0.013140
C41   C     C_R   0.482625 0.565048 0.010213 -0.005355
C42   C     C_R   0.519516 0.435537 0.991797 0.012474
C43   C     C_R   0.000300 0.038760 0.945996 -0.004767
C44   C     C_R   0.999735 0.038606 0.053971 -0.007415
C45   C     C_R   0.500486 0.500643 0.946798 0.038934
C46   C     C_R   0.813172 0.642390 0.448167 -0.116234
C47   C     C_R   0.500493 0.499596 0.054100 0.026600
C48   C     C_R   0.999920 0.011443 0.108937 0.506572
C49   C     C_R   0.000097 0.011519 0.891046 0.496544
C50   C     C_R   0.500058 0.499219 0.109104 0.482966
C51   C     C_R   0.500052 0.500734 0.890974 0.484832
C52   C     C_R   0.999768 0.000087 0.391458 0.516300
C53   C     C_R   0.999976 0.999915 0.608284 0.538218
C54   C     C_R   0.500156 0.499962 0.391836 0.534803
C55   C     C_R   0.500008 0.500030 0.608311 0.541145
C56   C     C_3   0.059964 0.965503 0.542383 -0.110556
C57   C     C_R   0.857929 0.403064 0.668990 -0.132946
C58   C     C_3   0.939847 0.034522 0.457409 -0.114134
C59   C     C_3   0.999891 0.930604 0.516809 -0.109918
C60   C     C_3   0.999924 0.069414 0.482986 -0.100011
C61   C     C_3   0.501234 0.430633 0.484098 -0.102413
C62   C     C_3   0.499116 0.569321 0.516186 -0.112741
C63   C     C_3   0.440555 0.464540 0.457885 -0.110655
C64   C     C_3   0.559793 0.535394 0.542375 -0.113493
C65   C     C_3   0.060037 0.034491 0.577397 -0.117571
C66   C     C_3   0.939776 0.965530 0.422397 -0.125631
C67   C     C_3   0.560721 0.466341 0.578085 -0.121548
C68   C     C_R   0.164883 0.624795 0.512634 -0.135250
C69   C     C_3   0.439620 0.533603 0.422200 -0.132617
C70   C     C_3   0.999958 0.999659 0.550944 0.055338
C71   C     C_3   0.999849 0.000359 0.448851 0.064959
C72   C     C_3   0.500034 0.500195 0.551008 0.061738
C73   C     C_3   0.500278 0.499752 0.449258 0.058633
C74   C     C_R   0.155921 0.231980 0.318695 -0.076811
C75   C     C_R   0.880279 0.711743 0.579064 -0.083420
C76   C     C_R   0.893660 0.282475 0.678686 -0.094129
C77   C     C_R   0.109556 0.705861 0.395192 -0.079200
C78   C     C_R   0.620013 0.787935 0.421957 -0.078833
C79   C     C_R   0.753446 0.837148 0.595521 0.088185
C80   C     C_R   0.343491 0.267912 0.680783 -0.105314
C81   C     C_R   0.384527 0.791873 0.593430 -0.069054
C82   C     C_R   0.604910 0.215039 0.324474 -0.049855
C83   C     C_R   0.160639 0.277149 0.280199 -0.134870
C84   C     C_R   0.879446 0.663718 0.536148 -0.151202
C85   C     C_R   0.911645 0.350719 0.716215 -0.129874
C86   C     C_R   0.102841 0.651322 0.425836 -0.120663
C87   C     C_R   0.620800 0.836115 0.464740 -0.139335
C88   C     C_R   0.339980 0.221276 0.719775 -0.146165
C89   C     C_R   0.389693 0.845088 0.560077 -0.130351
C90   C     C_R   0.251187 0.146552 0.585794 0.079846
C91   C     C_R   0.586699 0.146033 0.288162 -0.095319
C92   C     C_2   0.261602 0.117577 0.318132 0.581046
C93   C     C_2   0.738727 0.116156 0.681091 0.581600
C94   C     C_2   0.590026 0.242017 0.143630 0.576575
C95   C     C_2   0.449017 0.768023 0.894840 0.621341
C96   C     C_2   0.821980 0.847335 0.694696 0.601608
C97   C     C_2   0.218390 0.072692 0.551746 0.565019
C98   C     C_2   0.194012 0.861744 0.321752 0.616379
C99   C     C_2   0.767816 0.057021 0.451801 0.575460
C100  C     C_2   0.286685 0.423373 0.450336 0.558076
C101  C     C_R   0.257493 0.846884 0.420292 0.040133
C102  C     C_2   0.678812 0.654560 0.305589 0.599541
C103  C     C_2   0.731436 0.442835 0.548267 0.575871
C104  C     C_2   0.296185 0.636093 0.665016 0.613640
C105  C     C_R   0.139657 0.139950 0.889857 0.474301
C106  C     C_R   0.714033 0.110620 0.418515 0.025063
C107  C     C_R   0.251498 0.350720 0.415110 0.084235
C108  C     C_R   0.746808 0.663408 0.405024 0.087750
C109  C     C_R   0.785197 0.388329 0.582809 0.020177
C110  C     C_R   0.234811 0.647402 0.566503 0.047795
C111  C     C_R   0.751855 0.798235 0.545519 0.004929
C112  C     C_R   0.248224 0.198445 0.540627 -0.007260
C113  C     C_R   0.252196 0.802447 0.460743 -0.030629
C114  C     C_R   0.732926 0.179070 0.461736 -0.025477
C115  C     C_R   0.252842 0.300371 0.459624 -0.003317
C116  C     C_R   0.139881 0.860189 0.889848 0.482442
C117  C     C_R   0.748421 0.701748 0.455286 -0.007871
C118  C     C_R   0.766553 0.320227 0.539188 0.000246
C119  C     C_R   0.242035 0.693408 0.528874 0.014479
C120  C     C_R   0.202442 0.241572 0.409019 0.011764
C121  C     C_R   0.814309 0.736166 0.535984 -0.004897
C122  C     C_R   0.821499 0.265949 0.589773 0.006179
C123  C     C_R   0.179153 0.731394 0.449295 -0.007022
C124  C     C_R   0.685979 0.763598 0.464947 -0.001493
C125  C     C_R   0.297675 0.258018 0.590813 -0.008292
C126  C     C_R   0.315635 0.765527 0.541063 0.005091
C127  C     C_R   0.860216 0.139890 0.110150 0.476163
C128  C     C_R   0.677783 0.232949 0.411647 0.004286
C129  C     C_R   0.812655 0.792898 0.572035 0.020935
C130  C     C_R   0.198452 0.193484 0.448361 0.024626
C131  C     C_R   0.187011 0.793525 0.425151 -0.032137
C132  C     C_R   0.803898 0.195815 0.552026 0.006291
C133  C     C_R   0.301709 0.306220 0.551541 0.017651
C134  C     C_R   0.687577 0.707030 0.428650 0.011358
C135  C     C_R   0.695873 0.303810 0.448398 0.013554
C136  C     C_R   0.308820 0.704242 0.567627 0.012220
C137  C     C_R   0.775763 0.833054 0.117784 -0.109025
C138  C     C_R   0.360232 0.360061 0.110100 0.473272
C139  C     C_R   0.233691 0.157986 0.895338 -0.106573
C140  C     C_R   0.106177 0.714317 0.889525 -0.110167
C141  C     C_R   0.888245 0.280349 0.092716 -0.111549
C142  C     C_R   0.265475 0.342138 0.103922 -0.102726
C143  C     C_R   0.726657 0.665446 0.885473 -0.108964
C144  C     C_R   0.612073 0.220022 0.908394 -0.109957
C145  C     C_R   0.393580 0.785374 0.109449 -0.114732
C146  C     C_R   0.738988 0.817100 0.127148 -0.106667
C147  C     C_R   0.277920 0.167179 0.895810 -0.106127
C148  C     C_R   0.089032 0.643606 0.888252 -0.110295
C149  C     C_R   0.639602 0.640124 0.890031 0.482601
C150  C     C_R   0.902510 0.348453 0.084937 -0.107636
C151  C     C_R   0.219487 0.334281 0.100991 -0.099116
C152  C     C_R   0.767983 0.677721 0.881941 -0.109106
C153  C     C_R   0.598014 0.152132 0.916785 -0.103130
C154  C     C_R   0.410606 0.855956 0.110243 -0.108524
C155  C     C_R   0.165180 0.281114 0.046639 0.020683
C156  C     C_R   0.821395 0.731713 0.934982 0.042663
C157  C     C_R   0.651617 0.098196 0.970049 0.037083
C158  C     C_R   0.357075 0.909867 0.056883 0.030747
C159  C     C_R   0.688110 0.760855 0.077604 0.049441
C160  C     C_R   0.639750 0.360083 0.889857 0.476700
C161  C     C_R   0.331038 0.221446 0.948319 0.035439
C162  C     C_R   0.142619 0.589761 0.941814 0.025294
C163  C     C_R   0.848821 0.402293 0.031437 0.028899
C164  C     C_R   0.157051 0.235244 0.995426 -0.098840
C165  C     C_R   0.833735 0.773475 0.991960 -0.083891
C166  C     C_R   0.719599 0.112156 0.015336 -0.084993
C167  C     C_R   0.286182 0.893185 0.002296 -0.083607
C168  C     C_R   0.672039 0.721864 0.016135 -0.075921
C169  C     C_R   0.340548 0.266426 0.001293 -0.086251
C170  C     C_R   0.213671 0.606622 0.997024 -0.084359
C171  C     C_R   0.360129 0.639811 0.110136 0.477729
C172  C     C_R   0.780579 0.388058 0.985381 -0.084941
C173  C     C_R   0.203808 0.241568 0.998192 -0.001527
C174  C     C_R   0.791552 0.762846 0.995674 -0.008340
C175  C     C_R   0.735067 0.180665 0.007558 -0.002786
C176  C     C_R   0.267766 0.821998 0.001343 -0.002945
C177  C     C_R   0.710387 0.735677 0.007262 -0.008460
C178  C     C_R   0.295337 0.258889 0.000802 -0.005919
C179  C     C_R   0.232170 0.677899 0.998283 -0.002635
C180  C     C_R   0.764982 0.319410 0.992777 -0.002331
C181  C     C_R   0.140496 0.139260 0.390781 0.513491
C182  C     C_R   0.687040 0.857955 0.552452 -0.105898
C183  C     C_R   0.863492 0.856071 0.617123 0.565436
C184  C     C_R   0.860017 0.139767 0.609745 0.510784
C185  C     C_R   0.136203 0.856157 0.381883 0.534148
C186  C     C_R   0.636542 0.643941 0.382979 0.562027
C187  C     C_R   0.359512 0.360681 0.609212 0.520228
C188  C     C_R   0.362699 0.643447 0.616308 0.506268
C189  C     C_R   0.639834 0.360002 0.390043 0.521776
C190  C     C_R   0.763937 0.791181 0.060139 0.007955
C191  C     C_R   0.240976 0.204153 0.946749 0.010439
C192  C     C_R   0.177677 0.732473 0.943772 0.008344
H1    H     H_    0.109329 0.062742 0.641964 0.120574
H2    H     H_    0.383512 0.306976 0.042387 0.125506
H3    H     H_    0.253815 0.563323 0.038888 0.126374
H4    H     H_    0.740196 0.431220 0.943767 0.119802
H5    H     H_    0.865527 0.083071 0.960670 0.159095
H6    H     H_    0.133595 0.084425 0.038225 0.156931
H7    H     H_    0.463411 0.632041 0.060531 0.143390
H8    H     H_    0.534965 0.367580 0.937688 0.114247
H9    H     H_    0.755955 0.106527 0.803893 0.158394
H10   H     H_    0.243042 0.109357 0.194557 0.168906
H11   H     H_    0.441085 0.744113 0.991817 0.158486
H12   H     H_    0.890505 0.937269 0.357821 0.117465
H13   H     H_    0.573967 0.260023 0.022865 0.159041
H14   H     H_    0.871351 0.089004 0.775439 0.179558
H15   H     H_    0.129524 0.088011 0.225334 0.163673
H16   H     H_    0.476581 0.635669 0.881012 0.171679
H17   H     H_    0.545104 0.369488 0.140580 0.145164
H18   H     H_    0.109190 0.937254 0.576146 0.136087
H19   H     H_    0.890632 0.062793 0.423664 0.151829
H20   H     H_    0.999871 0.873600 0.531523 0.138468
H21   H     H_    0.999964 0.126408 0.468276 0.144741
H22   H     H_    0.502113 0.373665 0.470108 0.154040
H23   H     H_    0.610346 0.438768 0.642999 0.128774
H24   H     H_    0.498241 0.626290 0.530177 0.137387
H25   H     H_    0.391642 0.435246 0.423839 0.167458
H26   H     H_    0.608656 0.564419 0.575946 0.139069
H27   H     H_    0.296169 0.122926 0.706994 0.147851
H28   H     H_    0.686295 0.889683 0.587410 0.160723
H29   H     H_    0.625791 0.042638 0.301826 0.138915
H30   H     H_    0.332467 0.905894 0.444904 0.159302
H31   H     H_    0.813985 0.611073 0.413109 0.164366
H32   H     H_    0.207467 0.373013 0.294354 0.132065
H33   H     H_    0.157666 0.589509 0.538907 0.117165
H34   H     H_    0.389987 0.561165 0.357284 0.122402
H35   H     H_    0.872700 0.454462 0.701971 0.128152
H36   H     H_    0.115609 0.188922 0.276389 0.099864
H37   H     H_    0.932993 0.727596 0.647231 0.146757
H38   H     H_    0.937705 0.243201 0.720925 0.122935
H39   H     H_    0.059970 0.727004 0.328203 0.143677
H40   H     H_    0.567276 0.772061 0.353832 0.146557
H41   H     H_    0.382497 0.312100 0.722553 0.121729
H42   H     H_    0.434794 0.772995 0.661379 0.155431
H43   H     H_    0.560452 0.253715 0.282552 0.133108
H44   H     H_    0.125632 0.267694 0.211794 0.116711
H45   H     H_    0.113344 0.195449 0.953031 0.106530
H46   H     H_    0.930407 0.645971 0.569635 0.129341
H47   H     H_    0.967296 0.362207 0.783810 0.132680
H48   H     H_    0.049125 0.633020 0.384268 0.129848
H49   H     H_    0.569828 0.853788 0.431265 0.132805
H50   H     H_    0.374810 0.230571 0.788123 0.131548
H51   H     H_    0.442868 0.864246 0.600581 0.131526
H52   H     H_    0.530548 0.133531 0.221922 0.135872
H53   H     H_    0.813783 0.878268 0.156846 0.127199
H54   H     H_    0.194011 0.114190 0.854373 0.120981
H55   H     H_    0.062758 0.754362 0.847901 0.130793
H56   H     H_    0.877169 0.813472 0.033585 0.142366
H57   H     H_    0.931528 0.240083 0.134414 0.112352
H58   H     H_    0.305747 0.385369 0.145799 0.119928
H59   H     H_    0.687333 0.621385 0.844654 0.126647
H60   H     H_    0.568881 0.260381 0.866912 0.113014
H61   H     H_    0.436925 0.745250 0.150895 0.128904
H62   H     H_    0.750472 0.848450 0.173527 0.123185
H63   H     H_    0.270929 0.131729 0.855346 0.122846
H64   H     H_    0.033948 0.630876 0.845854 0.128947
H65   H     H_    0.955439 0.359198 0.120443 0.123419
H66   H     H_    0.225630 0.370318 0.140367 0.122068
H67   H     H_    0.759949 0.068958 0.056830 0.121063
H68   H     H_    0.758866 0.644539 0.838442 0.123203
H69   H     H_    0.545319 0.141632 0.881946 0.128829
H70   H     H_    0.465548 0.868537 0.152118 0.133372
H71   H     H_    0.364799 0.156580 0.417872 0.352277
H72   H     H_    0.692118 0.135580 0.564384 0.350088
H73   H     H_    0.622784 0.136916 0.172087 0.345714
H74   H     H_    0.460228 0.823774 0.838534 0.350509
H75   H     H_    0.925844 0.815176 0.812221 0.339479
H76   H     H_    0.157659 0.996951 0.528145 0.329409
H77   H     H_    0.144688 0.764137 0.285368 0.287757
H78   H     H_    0.246052 0.936508 0.960544 0.125989
H79   H     H_    0.814889 0.130048 0.450318 0.302796
H80   H     H_    0.291874 0.523625 0.487590 0.334537
H81   H     H_    0.629294 0.605908 0.194859 0.343868
H82   H     H_    0.776023 0.525525 0.551435 0.297661
H83   H     H_    0.268228 0.532062 0.655391 0.300591
H84   H     H_    0.630027 0.680509 0.976806 0.142804
O1    O     O_3   0.999990 0.000000 0.249990 -0.454762
O2    O     O_R   0.585440 0.646160 0.804690 -0.550422
O3    O     O_R   0.585440 0.353840 0.804690 -0.544759
O4    O     O_R   0.414560 0.646160 0.195310 -0.556895
O5    O     O_R   0.085440 0.146150 0.366190 -0.539038
O6    O     O_R   0.914560 0.853850 0.633810 -0.545321
O7    O     O_R   0.914560 0.146150 0.633810 -0.533621
O8    O     O_R   0.085440 0.853850 0.366190 -0.546485
O9    O     O_R   0.585440 0.646150 0.366190 -0.541910
O10   O     O_R   0.414560 0.353850 0.633810 -0.524731
O11   O     O_R   0.414560 0.646150 0.633810 -0.550159
O12   O     O_3   0.000010 0.000000 0.750010 -0.450701
O13   O     O_R   0.585440 0.353850 0.366190 -0.517134
O14   O     O_R   0.853820 0.085430 0.073070 -0.557357
O15   O     O_R   0.146180 0.914570 0.926930 -0.536890
O16   O     O_R   0.146180 0.085430 0.926930 -0.557935
O17   O     O_R   0.853820 0.914570 0.073070 -0.540284
O18   O     O_R   0.353820 0.585430 0.073070 -0.542840
O19   O     O_R   0.646180 0.414570 0.926930 -0.542937
O20   O     O_R   0.646180 0.585430 0.926930 -0.546350
O21   O     O_R   0.353820 0.414570 0.073070 -0.545351
O22   O     O_R   0.146150 0.914540 0.365390 -0.486805
O23   O     O_3   0.499990 0.500000 0.249990 -0.450984
O24   O     O_R   0.853850 0.085460 0.634610 -0.507631
O25   O     O_R   0.853850 0.914540 0.634610 -0.490608
O26   O     O_R   0.146150 0.085460 0.365390 -0.498339
O27   O     O_R   0.646150 0.414540 0.365390 -0.529199
O28   O     O_R   0.353850 0.585460 0.634610 -0.524922
O29   O     O_R   0.353850 0.414540 0.634610 -0.521620
O30   O     O_R   0.646150 0.585460 0.365390 -0.505193
O31   O     O_R   0.939240 0.000000 0.071950 -0.554685
O32   O     O_R   0.060760 0.000000 0.928050 -0.552561
O33   O     O_R   0.439240 0.500000 0.071950 -0.544161
O34   O     O_3   0.500010 0.500000 0.750010 -0.450961
O35   O     O_R   0.560760 0.500000 0.928050 -0.551860
O36   O     O_R   0.000020 0.939290 0.367320 -0.550478
O37   O     O_R   0.999980 0.060710 0.632680 -0.520507
O38   O     O_R   0.999980 0.939290 0.632680 -0.536291
O39   O     O_R   0.000020 0.060710 0.367320 -0.520460
O40   O     O_R   0.500020 0.439290 0.367320 -0.521133
O41   O     O_R   0.499980 0.560710 0.632680 -0.547645
O42   O     O_R   0.499980 0.439290 0.632680 -0.510175
O43   O     O_R   0.500020 0.560710 0.367320 -0.534980
O44   O     O_R   0.060680 0.000000 0.193390 -0.508853
O45   O     O_R   0.914560 0.853840 0.195310 -0.553651
O46   O     O_R   0.939320 0.000000 0.806610 -0.524590
O47   O     O_R   0.560680 0.500000 0.193390 -0.528301
O48   O     O_R   0.439320 0.500000 0.806610 -0.511140
O49   O     O_2   0.263363 0.114379 0.367570 -0.495861
O50   O     O_R   0.322953 0.142539 0.352093 -0.699205
O51   O     O_2   0.682405 0.131931 0.648051 -0.508192
O52   O     O_R   0.740427 0.119286 0.628221 -0.690859
O53   O     O_2   0.598308 0.243360 0.199223 -0.547667
O54   O     O_R   0.605503 0.178015 0.131356 -0.699637
O55   O     O_2   0.426527 0.822146 0.895351 -0.506725
O56   O     O_R   0.085440 0.146160 0.804690 -0.551996
O57   O     O_R   0.467973 0.772974 0.860983 -0.685935
O58   O     O_2   0.824793 0.893448 0.732048 -0.498230
O59   O     O_R   0.882759 0.802848 0.745851 -0.721952
O60   O     O_2   0.233655 0.030637 0.531531 -0.490499
O61   O     O_R   0.174595 0.049327 0.549461 -0.704512
O62   O     O_2   0.193061 0.917534 0.294714 -0.444352
O63   O     O_R   0.135779 0.812594 0.258593 -0.667924
O64   O     O_2   0.764632 0.993422 0.462713 -0.469016
O65   O     O_R   0.819576 0.077093 0.465989 -0.670498
O66   O     O_2   0.329841 0.439569 0.458898 -0.544240
O67   O     O_R   0.085440 0.853840 0.804690 -0.557393
O68   O     O_R   0.266620 0.474968 0.467862 -0.682336
O69   O     O_2   0.625149 0.692529 0.260863 -0.550666
O70   O     O_R   0.677261 0.604812 0.262581 -0.690259
O71   O     O_2   0.684802 0.424451 0.533159 -0.462757
O72   O     O_R   0.736171 0.516182 0.538308 -0.667693
O73   O     O_2   0.341660 0.684192 0.715923 -0.470282
O74   O     O_R   0.302937 0.572208 0.701285 -0.649649
O75   O     O_R   0.914560 0.146160 0.195310 -0.543207
O76   O     O_R   0.414560 0.353840 0.195310 -0.553536
Zn1   Zn    Zn3+2 0.000000 0.086750 0.293940 0.950508
Zn2   Zn    Zn3+2 0.086780 0.000000 0.880710 0.915094
Zn3   Zn    Zn3+2 0.413220 0.500000 0.119290 0.925488
Zn4   Zn    Zn3+2 0.586780 0.500000 0.880710 0.923080
Zn5   Zn    Zn3+2 0.086730 0.000000 0.292800 1.024536
Zn6   Zn    Zn3+2 0.913270 0.000000 0.707200 1.019103
Zn7   Zn    Zn3+2 0.586730 0.500000 0.292800 1.001810
Zn8   Zn    Zn3+2 0.413270 0.500000 0.707200 0.975991
Zn9   Zn    Zn3+2 0.000000 0.913250 0.706060 0.961309
Zn10  Zn    Zn3+2 0.000000 0.086750 0.706060 0.956960
Zn11  Zn    Zn3+2 0.000000 0.913250 0.293940 0.937100
Zn12  Zn    Zn3+2 0.500000 0.586750 0.293940 0.959121
Zn13  Zn    Zn3+2 0.500000 0.413250 0.706060 0.967883
Zn14  Zn    Zn3+2 0.500000 0.586750 0.706060 0.938745
Zn15  Zn    Zn3+2 0.500000 0.413250 0.293940 0.975208
Zn16  Zn    Zn3+2 0.913220 0.000000 0.119290 0.914946

loop_
_geom_bond_atom_site_label_1
_geom_bond_atom_site_label_2
_ccdc_geom_bond_type
C92   O49   D    
C75   H37   S    
C52   C71   S    
O37   Zn10  S    
C95   O57   S    
C122  C132  A    
C8    C105  S    
O21   Zn3   S    
C189  O13   A    
O6    Zn9   S    
C11   C192  A    
C189  O27   A    
C59   H20   S    
C80   C125  A    
C74   H36   S    
C186  O30   A    
C29   C94   S    
O29   Zn8   S    
C118  C135  A    
C112  C125  A    
C94   O54   S    
C68   C86   A    
C129  C183  S    
C9    C174  A    
O12   Zn10  S    
C46   C108  A    
C38   C47   A    
C78   H40   S    
C43   C49   S    
C139  C147  A    
C109  C118  A    
C15   C171  S    
C147  H63   S    
C63   H25   S    
C18   H6    S    
C30   H14   S    
C54   O43   A    
C17   C21   A    
C135  C189  S    
C42   C45   A    
C107  C115  A    
C142  C151  A    
C19   C23   A    
O30   Zn7   S    
C4    C142  A    
O5    Zn1   S    
C5    C143  A    
C127  O14   A    
C80   H41   S    
C84   H46   S    
C35   H32   S    
C140  C192  A    
C48   O44   A    
C65   H1    S    
O22   Zn5   S    
C68   C110  A    
C169  C178  A    
O26   Zn5   S    
Br2   C155  S    
C46   C84   A    
C58   H19   S    
C13   C89   A    
C147  C161  A    
C160  O3    A    
C4    C173  A    
C103  O71   D    
C7    C176  A    
C115  C133  A    
C134  C186  S    
C156  C165  A    
C59   C66   S    
C155  C164  A    
C114  C128  A    
C149  O2    A    
C116  O15   A    
C187  O10   A    
C54   C73   S    
C162  C170  A    
C20   C25   A    
C105  O16   A    
C66   C71   S    
C20   H8    S    
C56   C71   S    
C178  C191  A    
C112  C130  A    
C99   O64   D    
C102  C108  S    
C5    C12   A    
C53   O38   A    
C152  H68   S    
C90   C112  A    
C39   C44   A    
C93   O52   S    
O16   Zn2   S    
O47   Zn7   S    
C31   H15   S    
C179  C192  A    
C138  O76   A    
C77   C123  A    
C101  C113  A    
C1    O45   A    
C10   C175  A    
C13   H30   S    
C76   C122  A    
C50   O47   A    
C76   C85   A    
C119  C123  A    
C78   C87   A    
C188  O11   A    
C117  C121  A    
C121  C129  A    
C23   C28   A    
C49   O32   A    
O28   Zn8   S    
C153  C157  A    
C131  C185  S    
H82   O72   S    
C166  H67   S    
O25   Zn6   S    
C3    C10   A    
C183  O25   A    
O41   Zn14  S    
C167  H78   S    
C78   C124  A    
C143  H59   S    
C89   H51   S    
C182  H28   S    
C164  H45   S    
C100  C107  S    
O1    Zn5   S    
C75   C121  A    
C128  C135  A    
H71   O50   S    
O34   Zn4   S    
C58   C66   S    
C4    C14   A    
O7    Zn10  S    
C6    C16   A    
C120  C130  A    
C85   H47   S    
C186  O9    A    
C148  H64   S    
C164  C173  A    
O3    Zn13  S    
C14   C138  S    
Br1   C156  S    
C56   C65   S    
C145  H61   S    
C141  C150  A    
C117  C134  A    
C144  C153  A    
C116  O67   A    
C36   C44   A    
C60   C71   S    
C57   C85   A    
C37   C45   A    
O36   Zn11  S    
C170  H3    S    
C62   C69   S    
C64   C67   S    
C161  C169  A    
C111  C124  A    
C55   C72   S    
C3    C180  A    
C104  O74   S    
O12   Zn6   S    
C157  C166  A    
C41   C47   A    
C14   C178  A    
C79   C111  A    
O48   Zn8   S    
C141  H57   S    
C32   H16   S    
C97   O60   D    
C127  O75   A    
O4    Zn12  S    
C74   C120  A    
C79   C182  A    
C181  O5    A    
C137  C146  A    
C18   C22   A    
C108  C117  A    
C2    H27   S    
C130  C181  S    
C110  C119  A    
C27   C92   S    
C82   C91   A    
C63   C69   S    
C92   O50   S    
C188  O28   A    
O23   Zn7   S    
O27   Zn7   S    
C99   O65   S    
C11   C176  A    
O46   Zn6   S    
C33   H17   S    
C21   H9    S    
C31   C36   A    
C136  C188  S    
O11   Zn14  S    
C103  C109  S    
C113  C131  A    
C50   O33   A    
C168  H84   S    
C114  C132  A    
C137  C190  A    
C15   C179  A    
O67   Zn9   S    
C184  O7    A    
C69   H34   S    
C98   O62   D    
C29   C33   A    
C100  O68   S    
C7    C145  A    
C123  C131  A    
C126  C136  A    
C36   C40   A    
H81   O70   S    
C83   H44   S    
C6    C144  A    
C57   C109  A    
C81   H42   S    
O8    Zn11  S    
C86   H48   S    
C19   C41   A    
C96   O59   S    
C102  O69   D    
C49   O46   A    
C80   C88   A    
O38   Zn9   S    
Br7   C163  S    
C139  C191  A    
C55   O42   A    
C88   H50   S    
O1    Zn1   S    
C6    C175  A    
O32   Zn2   S    
C168  C177  A    
O9    Zn12  S    
C151  H66   S    
C158  C167  A    
C28   C95   S    
C152  C156  A    
C148  C162  A    
H75   O59   S    
H80   O68   S    
O40   Zn15  S    
H77   O63   S    
C118  C122  A    
O42   Zn13  S    
Br4   C157  S    
C133  C187  S    
C95   O55   D    
O34   Zn13  S    
C172  C180  A    
C87   C182  A    
C154  C158  A    
O10   Zn13  S    
C3    C141  A    
C62   H24   S    
C113  C126  A    
C17   C39   A    
C51   O35   A    
C64   C73   S    
C18   C40   A    
C52   O36   A    
O76   Zn15  S    
O1    Zn11  S    
C150  H65   S    
C64   H26   S    
C137  H53   S    
C17   H5    S    
Br8   C162  S    
C32   C37   A    
C58   C70   S    
C61   H22   S    
H74   O57   S    
C62   C72   S    
C26   C93   S    
C53   O37   A    
C25   H13   S    
O44   Zn5   S    
C8    C173  A    
O39   Zn1   S    
O2    Zn14  S    
C153  H69   S    
C21   C26   A    
C25   C29   A    
H79   O65   S    
C66   H12   S    
H72   O52   S    
C171  O18   A    
C27   C31   A    
C99   C106  S    
C22   H10   S    
C146  H62   S    
C13   C101  A    
O12   Zn9   S    
O24   Zn6   S    
C9    C190  A    
C170  C179  A    
O17   Zn16  S    
C12   C149  S    
C184  O24   A    
C149  O20   A    
O12   Zn2   S    
C24   H29   S    
O56   Zn10  S    
H83   O74   S    
C57   H35   S    
C76   H38   S    
C52   O39   A    
C91   H52   S    
C172  H4    S    
C166  C175  A    
C93   O51   D    
H76   O61   S    
C125  C133  A    
O23   Zn12  S    
C56   H18   S    
C145  C154  A    
C16   C180  A    
C103  O72   S    
O43   Zn12  S    
C61   C67   S    
C119  C136  A    
O33   Zn3   S    
C61   C73   S    
C74   C83   A    
C79   C96   S    
O23   Zn3   S    
O19   Zn4   S    
C47   C50   S    
Br5   C161  S    
C140  C148  A    
O35   Zn4   S    
C167  C176  A    
C183  O6    A    
C58   C60   S    
O31   Zn16  S    
C60   H21   S    
C87   H49   S    
C45   C51   S    
C96   O58   D    
C94   O53   D    
C75   C84   A    
C90   C97   S    
C22   C27   A    
C16   C160  S    
C30   C34   A    
C150  C163  A    
C165  H56   S    
C171  O4    A    
C2    C90   A    
H73   O54   S    
C61   C63   S    
C35   C107  A    
C12   C177  A    
C20   C42   A    
C40   C43   A    
C160  O19   A    
O23   Zn15  S    
C33   C38   A    
C68   H33   S    
C69   C73   S    
C177  C190  A    
C67   C72   S    
C97   O61   S    
C48   O31   A    
C54   O40   A    
C34   C43   A    
C7    C15   A    
C67   H23   S    
C82   H43   S    
O18   Zn3   S    
C59   C70   S    
C185  O8    A    
C63   C72   S    
C124  C134  A    
O1    Zn16  S    
C11   C116  S    
C111  C129  A    
C56   C59   S    
C28   C32   A    
C138  O21   A    
C60   C65   S    
C51   O48   A    
C35   C83   A    
C81   C89   A    
C77   H39   S    
O15   Zn2   S    
C1    O17   A    
C82   C128  A    
C77   C86   A    
C144  H60   S    
C37   C41   A    
C2    C88   A    
C53   C70   S    
C65   C70   S    
C98   O63   S    
C23   H11   S    
C10   C127  S    
O75   Zn1   S    
O13   Zn15  S    
C181  O26   A    
C8    C191  A    
C1    C9    S    
C132  C184  S    
C151  C155  A    
C163  C172  A    
C185  O22   A    
C46   H31   S    
C100  O66   D    
C102  O70   S    
Br6   C159  S    
C154  H70   S    
C81   C126  A    
C26   C30   A    
C104  O73   D    
C55   O41   A    
C165  C174  A    
C38   C42   A    
C139  H54   S    
O45   Zn11  S    
C24   C91   A    
C143  C152  A    
C142  H58   S    
C104  C110  S    
O14   Zn16  S    
C115  C120  A    
O20   Zn4   S    
C19   H7    S    
C34   C39   A    
C146  C159  A    
O34   Zn14  S    
C106  C114  A    
C187  O29   A    
O34   Zn8   S    
Br3   C158  S    
C140  H55   S    
C5    C174  A    
C169  H2    S    
C62   C64   S    
C24   C106  A    
C98   C101  S    
C44   C48   S    
C105  O56   A    
C159  C168  A    
