data_mof_unit_55423.cif
_audit_creation_date              2012-10-26T20:17:32-0400
_audit_creation_method            fapswitch 2.2
_symmetry_space_group_name_H-M    P1
_symmetry_Int_Tables_number       1
_space_group_crystal_system       triclinic
_cell_length_a                    27.766847
_cell_length_b                    8.674103
_cell_length_c                    7.427193
_cell_angle_alpha                 103.002635
_cell_angle_beta                  94.232278
_cell_angle_gamma                 92.19623
_cell_volume                      1735.45882939

loop_
_atom_site_label
_atom_site_type_symbol
_atom_type_description
_atom_site_fract_x
_atom_site_fract_y
_atom_site_fract_z
_atom_type_partial_charge
C1    C     C_R   0.498213 0.199577 0.453209 0.541414
C2    C     C_R   0.868906 0.460828 0.323994 0.025387
C3    C     C_R   0.355018 0.506431 0.508746 0.021263
C4    C     C_R   0.644986 0.493583 0.491250 0.021214
C5    C     C_R   0.970945 0.446535 0.328744 0.013177
C6    C     C_R   0.029062 0.553609 0.671088 0.013180
C7    C     C_R   0.977950 0.562039 0.666683 0.013548
C8    C     C_R   0.022057 0.438127 0.333145 0.013550
C9    C     C_R   0.949218 0.507929 0.495653 0.034272
C10   C     C_R   0.050789 0.492221 0.504179 0.034278
C11   C     C_R   0.940460 0.395614 0.162490 -0.152233
C12   C     C_R   0.501787 0.800423 0.546791 0.541457
C13   C     C_R   0.059545 0.604495 0.837351 -0.152247
C14   C     C_R   0.890590 0.402624 0.160671 -0.115586
C15   C     C_R   0.109414 0.597458 0.839178 -0.115611
C16   C     C_R   0.407688 0.504067 0.502882 0.546692
C17   C     C_R   0.592313 0.495934 0.497120 0.546700
C18   C     C_R   0.045741 0.376665 0.171890 -0.152384
C19   C     C_R   0.954267 0.623538 0.827931 -0.152376
C20   C     C_2   0.497443 0.031670 0.426768 -0.172273
C21   C     C_2   0.502558 0.968330 0.573231 -0.172284
C22   C     C_R   0.174770 0.423842 0.350375 0.398542
C23   C     C_R   0.101964 0.485476 0.508199 -0.028243
C24   C     C_R   0.825237 0.576313 0.649465 0.398533
C25   C     C_R   0.181609 0.535993 0.675811 0.407239
C26   C     C_R   0.818395 0.464053 0.324051 0.407257
C27   C     C_R   0.276179 0.588940 0.416125 -0.038231
C28   C     C_R   0.723843 0.411313 0.584068 -0.038270
C29   C     C_R   0.326556 0.599827 0.412518 -0.010442
C30   C     C_R   0.673468 0.400422 0.587750 -0.010484
C31   C     C_R   0.332556 0.409600 0.609837 -0.164374
C32   C     C_R   0.667430 0.590189 0.389846 -0.164448
C33   C     C_R   0.282430 0.400560 0.611783 -0.062642
C34   C     C_R   0.898042 0.514658 0.491638 -0.028249
C35   C     C_R   0.717555 0.599250 0.387852 -0.062709
C36   C     C_R   0.254087 0.489241 0.513769 0.217803
C37   C     C_R   0.745917 0.510802 0.486117 0.217749
C38   C     C_3   0.651760 0.283037 0.687025 -0.269840
C39   C     C_3   0.629052 0.135978 0.548970 -0.425040
C40   C     C_3   0.348291 0.717469 0.313664 -0.269912
C41   C     C_3   0.370959 0.864366 0.452091 -0.425177
C42   C     C_R   0.124188 0.425821 0.344345 0.020725
C43   C     C_R   0.875820 0.574341 0.655488 0.020739
C44   C     C_R   0.095677 0.370856 0.177846 -0.121619
C45   C     C_R   0.904332 0.629344 0.821978 -0.121598
C46   C     C_R   0.131099 0.539262 0.675856 0.025365
Cu1   Cu    Cu3+1 0.505380 0.517380 0.684380 0.943388
Cu2   Cu    Cu3+1 0.494620 0.482620 0.315620 0.943415
H1    H     H_    0.353866 0.338024 0.684174 0.116478
H2    H     H_    0.253709 0.659853 0.344892 0.143670
H3    H     H_    0.869017 0.361433 0.029643 0.172982
H4    H     H_    0.130985 0.638616 0.970214 0.172995
H5    H     H_    0.953671 0.349247 0.029649 0.117013
H6    H     H_    0.046333 0.650836 0.970195 0.117014
H7    H     H_    0.027010 0.331915 0.037110 0.116220
H8    H     H_    0.973000 0.668331 0.962700 0.116219
H9    H     H_    0.492744 0.959875 0.285656 0.136531
H10   H     H_    0.507256 0.040125 0.714344 0.136513
H11   H     H_    0.600511 0.168305 0.453886 0.163235
H12   H     H_    0.646108 0.661582 0.315297 0.116540
H13   H     H_    0.657144 0.074002 0.465625 0.154575
H14   H     H_    0.612624 0.053582 0.625049 0.143933
H15   H     H_    0.680111 0.243713 0.777855 0.156846
H16   H     H_    0.624824 0.338163 0.780721 0.185508
H17   H     H_    0.342842 0.926152 0.535461 0.154600
H18   H     H_    0.399485 0.831887 0.547117 0.163251
H19   H     H_    0.387398 0.946987 0.376325 0.143894
H20   H     H_    0.375262 0.662529 0.220012 0.185522
H21   H     H_    0.319962 0.756929 0.222868 0.156794
H22   H     H_    0.462227 0.378117 0.948188 0.239011
H23   H     H_    0.537773 0.621882 0.051812 0.238985
H24   H     H_    0.265545 0.323511 0.688029 0.152922
H25   H     H_    0.734423 0.676140 0.311373 0.153029
H26   H     H_    0.111896 0.323744 0.049972 0.170715
H27   H     H_    0.888113 0.676478 0.949847 0.170717
H28   H     H_    0.746326 0.340575 0.655502 0.143791
N1    N     N_R   0.202389 0.480374 0.514090 -0.398942
N2    N     N_R   0.797616 0.519706 0.485769 -0.398908
N3    N     N_2   0.486510 0.456430 0.038510 -0.257835
N4    N     N_2   0.513490 0.543570 0.961490 -0.257857
O1    O     O_R   0.503500 0.286120 0.619780 -0.505824
O2    O     O_2   0.803754 0.633991 0.806089 -0.483951
O3    O     O_2   0.790246 0.409117 0.164535 -0.489438
O4    O     O_2   0.209756 0.590848 0.835345 -0.489280
O5    O     O_R   0.496500 0.713880 0.380220 -0.505822
O6    O     O_R   0.494410 0.256780 0.308360 -0.496260
O7    O     O_R   0.505590 0.743220 0.691640 -0.496280
O8    O     O_R   0.434810 0.514700 0.655690 -0.505083
O9    O     O_R   0.565190 0.485300 0.344310 -0.505108
O10   O     O_R   0.425720 0.485350 0.344280 -0.502833
O11   O     O_R   0.574280 0.514650 0.655720 -0.502850
O12   O     O_2   0.196257 0.366231 0.193741 -0.483848

loop_
_geom_bond_atom_site_label_1
_geom_bond_atom_site_label_2
_ccdc_geom_bond_type
C19   H8    S    
C16   O10   A    
C26   O3    S    
C27   C29   A    
C17   O11   A    
C41   H19   S    
C26   N2    A    
C23   C42   A    
C12   O5    A    
C25   N1    A    
Cu2   N3    S    
C35   C37   A    
C5    C11   A    
C36   N1    S    
C38   C39   S    
C11   C14   A    
C1    O1    A    
C33   C36   A    
C30   C38   S    
C3    C29   A    
C24   O2    S    
C33   H24   S    
C14   H3    S    
C25   O4    S    
C31   C33   A    
C11   H5    S    
C27   H2    S    
C2    C34   A    
C23   C46   A    
Cu2   O10   S    
C42   C44   A    
Cu1   N4    S    
C31   H1    S    
H23   N4    S    
C38   H16   S    
C39   H13   S    
C40   H21   S    
C32   C35   A    
C17   O9    A    
C41   H17   S    
C12   C21   S    
C8    C18   A    
Cu1   O7    S    
C44   H26   S    
C5    C9    A    
C18   C44   A    
Cu1   Cu2   S    
C39   H11   S    
C2    C26   A    
C4    C32   A    
C15   H4    S    
C3    C31   A    
C43   C45   A    
C41   H18   S    
C18   H7    S    
C4    C17   S    
C24   N2    A    
C40   C41   S    
C7    C19   A    
Cu2   O9    S    
C13   C15   A    
C9    C34   A    
C10   C23   A    
Cu2   O6    S    
C32   H12   S    
C28   H28   S    
C38   H15   S    
C1    O6    A    
C7    C9    A    
C39   H14   S    
C35   H25   S    
C1    C20   S    
C12   O7    A    
H22   N3    S    
Cu1   O11   S    
C34   C43   A    
C22   N1    A    
C6    C10   A    
C5    C8    A    
C19   C45   A    
C6    C7    A    
C27   C36   A    
C37   N2    S    
C13   H6    S    
C45   H27   S    
Cu1   O8    S    
C28   C30   A    
C21   H10   S    
C6    C13   A    
C22   C42   A    
C28   C37   A    
C29   C40   S    
Cu1   O1    S    
C2    C14   A    
N3    N4    D    
C20   C21   D    
C8    C10   A    
C40   H20   S    
C16   O8    A    
C24   C43   A    
C22   O12   S    
Cu2   O5    S    
C15   C46   A    
C20   H9    S    
C25   C46   A    
C4    C30   A    
C3    C16   S    
