data_mof_unit_40990.cif
_audit_creation_date              2013-03-05T15:43:16-0500
_audit_creation_method            fapswitch 2.2
_symmetry_space_group_name_H-M    P1
_symmetry_Int_Tables_number       1
_space_group_crystal_system       triclinic
_cell_length_a                    13.065857
_cell_length_b                    13.066053
_cell_length_c                    26.594246
_cell_angle_alpha                 89.993613
_cell_angle_beta                  90.001359
_cell_angle_gamma                 119.994846
_cell_volume                      3932.08755324

loop_
_atom_site_label
_atom_site_type_symbol
_atom_site_description
_atom_site_fract_x
_atom_site_fract_y
_atom_site_fract_z
_atom_type_partial_charge
O1    O     O_R   0.460870 0.120930 0.805240 -0.478425
O2    O     O_R   0.660060 0.539130 0.694760 -0.478465
O3    O     O_R   0.879070 0.339940 0.805240 -0.478235
O4    O     O_R   0.460870 0.120930 0.694760 -0.478480
O5    O     O_R   0.660060 0.539130 0.805240 -0.478232
O6    O     O_R   0.879070 0.339940 0.694760 -0.478479
O7    O     O_R   0.120930 0.460870 0.305240 -0.478561
O8    O     O_R   0.539130 0.660060 0.194760 -0.478739
O9    O     O_R   0.339940 0.879070 0.305240 -0.478497
O10   O     O_R   0.120930 0.460870 0.194760 -0.478764
O11   O     O_R   0.539130 0.660060 0.305240 -0.478523
O12   O     O_R   0.339940 0.879070 0.194760 -0.478821
O13   O     O_R   0.498910 0.350470 0.801870 -0.518165
O14   O     O_R   0.851560 0.501090 0.698130 -0.517572
O15   O     O_R   0.649530 0.148440 0.801870 -0.517978
O16   O     O_R   0.498910 0.350470 0.698130 -0.517567
O17   O     O_R   0.851560 0.501090 0.801870 -0.518026
O18   O     O_R   0.649530 0.148440 0.698130 -0.517586
O19   O     O_R   0.350470 0.498910 0.301870 -0.517633
O20   O     O_R   0.501090 0.851560 0.198130 -0.517259
O21   O     O_R   0.148440 0.649530 0.301870 -0.517601
O22   O     O_R   0.350470 0.498910 0.198130 -0.517296
O23   O     O_R   0.501090 0.851560 0.301870 -0.517624
O24   O     O_R   0.148440 0.649530 0.198130 -0.517337
C1    C     C_R   0.556778 0.456233 0.821347 0.558905
C2    C     C_R   0.899527 0.443261 0.678674 0.558944
C3    C     C_R   0.543756 0.100540 0.821350 0.558885
C4    C     C_R   0.556745 0.456271 0.678673 0.558947
C5    C     C_R   0.899470 0.443214 0.821346 0.558881
C6    C     C_R   0.543739 0.100495 0.678667 0.558949
C7    C     C_R   0.456265 0.556746 0.321329 0.558936
C8    C     C_R   0.443292 0.899592 0.178692 0.558987
C9    C     C_R   0.100485 0.543730 0.321331 0.558957
C10   C     C_R   0.456309 0.556713 0.178695 0.558948
C11   C     C_R   0.443253 0.899523 0.321326 0.558974
C12   C     C_R   0.100406 0.543717 0.178692 0.558962
C13   C     C_R   0.999090 0.506482 0.973330 0.003798
C14   C     C_R   0.507742 0.001628 0.526628 0.004011
C15   C     C_R   0.493419 0.492713 0.973310 0.003812
C16   C     C_R   0.998436 0.506154 0.526646 0.003998
C17   C     C_R   0.507302 0.000803 0.973328 0.003882
C18   C     C_R   0.493852 0.492259 0.526640 0.004003
C19   C     C_R   0.506177 0.998496 0.473347 0.003995
C20   C     C_R   0.002167 0.508079 0.026615 0.004019
C21   C     C_R   0.492283 0.493824 0.473360 0.004004
C22   C     C_R   0.505778 0.997739 0.026612 0.003999
C23   C     C_R   0.001557 0.507702 0.473366 0.004012
C24   C     C_R   0.491876 0.494280 0.026596 0.003982
C25   C     C_R   0.000015 0.691828 0.974060 -0.085044
C26   C     C_R   0.694338 0.005295 0.525707 -0.086380
C27   C     C_R   0.308202 0.308229 0.974113 -0.084990
C28   C     C_R   0.994768 0.689087 0.525704 -0.086388
C29   C     C_R   0.691794 0.000106 0.974103 -0.085163
C30   C     C_R   0.310911 0.305708 0.525731 -0.086429
C31   C     C_R   0.689243 0.995104 0.474258 -0.086318
C32   C     C_R   0.010013 0.696747 0.025510 -0.087559
C33   C     C_R   0.305830 0.310775 0.474281 -0.086370
C34   C     C_R   0.686728 0.990197 0.025556 -0.087624
C35   C     C_R   0.004951 0.694162 0.474254 -0.086363
C36   C     C_R   0.303289 0.313412 0.025555 -0.087677
C37   C     C_R   0.975284 0.588994 0.894013 -0.026751
C38   C     C_R   0.614392 0.026074 0.605863 -0.027307
C39   C     C_R   0.410993 0.386191 0.894035 -0.026738
C40   C     C_R   0.973945 0.588359 0.605867 -0.027294
C41   C     C_R   0.613698 0.024697 0.894032 -0.026784
C42   C     C_R   0.411652 0.385606 0.605877 -0.027284
C43   C     C_R   0.588388 0.974045 0.394116 -0.027259
C44   C     C_R   0.027194 0.615066 0.105780 -0.027594
C45   C     C_R   0.385634 0.411622 0.394130 -0.027281
C46   C     C_R   0.587816 0.972905 0.105798 -0.027603
C47   C     C_R   0.025962 0.614328 0.394122 -0.027257
C48   C     C_R   0.385057 0.412254 0.105795 -0.027643
C49   C     C_R   0.033582 0.523259 0.130986 0.024121
C50   C     C_R   0.489442 0.966300 0.369045 0.023936
C51   C     C_R   0.476830 0.510454 0.130978 0.024152
C52   C     C_R   0.033712 0.523130 0.369058 0.023960
C53   C     C_R   0.489590 0.966409 0.130983 0.024172
C54   C     C_R   0.476839 0.510555 0.369056 0.023940
C55   C     C_R   0.523165 0.033751 0.630938 0.023894
C56   C     C_R   0.966238 0.489284 0.869080 0.023495
C57   C     C_R   0.510549 0.476843 0.630949 0.023910
C58   C     C_R   0.523057 0.033740 0.869079 0.023574
C59   C     C_R   0.966302 0.489467 0.630952 0.023896
C60   C     C_R   0.510659 0.476881 0.869075 0.023434
H1    H     H_    0.016348 0.773089 0.042847 0.193797
H2    H     H_    0.760391 0.990977 0.456910 0.194516
H3    H     H_    0.226994 0.243433 0.042919 0.193830
H4    H     H_    0.009104 0.769438 0.456900 0.194471
H5    H     H_    0.756834 0.984148 0.042930 0.193893
H6    H     H_    0.230563 0.239619 0.456940 0.194498
H7    H     H_    0.769702 0.009587 0.543048 0.194482
H8    H     H_    0.998248 0.764318 0.956740 0.195039
H9    H     H_    0.239813 0.230404 0.543083 0.194466
H10   H     H_    0.766091 0.001988 0.956799 0.195039
H11   H     H_    0.990513 0.760180 0.543039 0.194479
H12   H     H_    0.235788 0.233880 0.956845 0.195091
C61   C     C_R   0.993409 0.597657 0.946722 0.037411
C62   C     C_R   0.605396 0.009011 0.553128 0.036410
C63   C     C_R   0.402295 0.395770 0.946739 0.037497
C64   C     C_R   0.991031 0.596425 0.553134 0.036391
C65   C     C_R   0.604190 0.006547 0.946741 0.037352
C66   C     C_R   0.403582 0.394615 0.553144 0.036371
C67   C     C_R   0.596493 0.991195 0.446845 0.036427
C68   C     C_R   0.011069 0.606484 0.053019 0.035796
C69   C     C_R   0.394674 0.403512 0.446861 0.036412
C70   C     C_R   0.595322 0.988962 0.053036 0.035684
C71   C     C_R   0.008840 0.605305 0.446852 0.036408
C72   C     C_R   0.393550 0.404762 0.053030 0.035703
Cr1   Cr    Cr6+3 0.487630 0.241180 0.750000 1.050402
Cr2   Cr    Cr6+3 0.753550 0.512370 0.750000 1.050493
Cr3   Cr    Cr6+3 0.758820 0.246450 0.750000 1.050539
Cr4   Cr    Cr6+3 0.241180 0.487630 0.250000 1.050492
Cr5   Cr    Cr6+3 0.512370 0.753550 0.250000 1.050527
Cr6   Cr    Cr6+3 0.246450 0.758820 0.250000 1.050516
O25   O     O_3   0.666667 0.333333 0.750000 -0.271074
O26   O     O_3   0.333333 0.666667 0.250000 -0.271098
C73   C     C_R   0.007050 0.421986 0.893491 0.105406
C74   C     C_R   0.414862 0.992136 0.606579 0.105216
C75   C     C_R   0.577851 0.585027 0.893444 0.105429
C76   C     C_R   0.007961 0.422805 0.606607 0.105232
C77   C     C_R   0.414950 0.992891 0.893473 0.105375
C78   C     C_R   0.577228 0.585143 0.606586 0.105197
C79   C     C_R   0.422738 0.007897 0.393398 0.105232
C80   C     C_R   0.991157 0.414745 0.106678 0.105090
C81   C     C_R   0.585130 0.577258 0.393412 0.105225
C82   C     C_R   0.423422 0.008737 0.106662 0.104961
C83   C     C_R   0.992146 0.414836 0.393426 0.105205
C84   C     C_R   0.585298 0.576673 0.106633 0.105037
C85   C     C_R   0.005215 0.416481 0.946594 -0.000063
C86   C     C_R   0.410982 0.993911 0.553450 0.000038
C87   C     C_R   0.583375 0.588788 0.946540 -0.000061
C88   C     C_R   0.006189 0.417135 0.553481 0.000030
C89   C     C_R   0.411235 0.994704 0.946570 -0.000012
C90   C     C_R   0.582885 0.589019 0.553458 0.000023
C91   C     C_R   0.417093 0.006138 0.446524 0.000010
C92   C     C_R   0.992921 0.410684 0.053524 0.000059
C93   C     C_R   0.589000 0.582906 0.446537 0.000013
C94   C     C_R   0.417615 0.007001 0.053498 0.000021
C95   C     C_R   0.993925 0.410974 0.446555 0.000024
C96   C     C_R   0.589287 0.582477 0.053471 0.000000
C97   C     C_R   0.992806 0.316934 0.026689 0.108726
C98   C     C_R   0.322852 0.004855 0.473390 0.108754
C99   C     C_R   0.683006 0.676057 0.026588 0.108925
C100  C     C_R   0.995204 0.318019 0.473436 0.108757
C101  C     C_R   0.324037 0.007177 0.026622 0.108787
C102  C     C_R   0.681947 0.677146 0.473396 0.108781
C103  C     C_R   0.317980 0.995110 0.526580 0.108800
C104  C     C_R   0.002553 0.321628 0.973495 0.108712
C105  C     C_R   0.677076 0.682018 0.526587 0.108808
C106  C     C_R   0.319054 0.997433 0.973429 0.108648
C107  C     C_R   0.004973 0.322919 0.526627 0.108751
C108  C     C_R   0.678255 0.681008 0.973394 0.108736
C109  C     C_3   0.036636 0.719342 0.135097 -0.323652
H13   H     H_    0.979078 0.751171 0.120092 0.184544
H14   H     H_    0.003091 0.693544 0.174043 0.179741
H15   H     H_    0.129602 0.792792 0.135462 0.185175
C110  C     C_3   0.683018 0.964533 0.364661 -0.323221
H16   H     H_    0.772628 0.021649 0.379504 0.183907
H17   H     H_    0.663135 0.871482 0.364078 0.186244
H18   H     H_    0.690461 0.998220 0.325762 0.179404
C111  C     C_3   0.280938 0.317292 0.135143 -0.323713
H19   H     H_    0.249404 0.227960 0.120155 0.184621
H20   H     H_    0.306773 0.309691 0.174098 0.179729
H21   H     H_    0.207280 0.336493 0.135486 0.185180
C112  C     C_3   0.035476 0.718466 0.364663 -0.323202
H22   H     H_    0.978371 0.750977 0.379519 0.183862
H23   H     H_    0.128518 0.791618 0.364077 0.186221
H24   H     H_    0.001776 0.692253 0.325767 0.179434
C113  C     C_3   0.682777 0.963719 0.135134 -0.323697
H25   H     H_    0.772124 0.021736 0.120202 0.184600
H26   H     H_    0.690238 0.996911 0.174120 0.179696
H27   H     H_    0.663731 0.870912 0.135379 0.185127
C114  C     C_3   0.281477 0.317025 0.364679 -0.323201
H28   H     H_    0.248929 0.227419 0.379536 0.183862
H29   H     H_    0.208347 0.336971 0.364080 0.186228
H30   H     H_    0.307718 0.309531 0.325789 0.179438
C115  C     C_3   0.718531 0.035582 0.635317 -0.323243
H31   H     H_    0.751062 0.978510 0.620451 0.183967
H32   H     H_    0.791658 0.128648 0.635931 0.186227
H33   H     H_    0.692276 0.001821 0.674203 0.179405
C116  C     C_3   0.965340 0.683221 0.864403 -0.322560
H34   H     H_    0.021337 0.773174 0.879137 0.183310
H35   H     H_    0.999728 0.690713 0.825630 0.178970
H36   H     H_    0.871959 0.662272 0.863359 0.187481
C117  C     C_3   0.317028 0.281446 0.635327 -0.323208
H37   H     H_    0.227430 0.248967 0.620473 0.183914
H38   H     H_    0.336924 0.208281 0.635910 0.186197
H39   H     H_    0.309540 0.307653 0.674223 0.179417
C118  C     C_3   0.717921 0.034709 0.864450 -0.322572
H40   H     H_    0.751791 0.978598 0.879179 0.183375
H41   H     H_    0.691161 0.000489 0.825644 0.179057
H42   H     H_    0.790383 0.128076 0.863497 0.187367
C119  C     C_3   0.964397 0.682982 0.635308 -0.323224
H43   H     H_    0.021496 0.772580 0.620447 0.183933
H44   H     H_    0.871345 0.663082 0.635891 0.186192
H45   H     H_    0.998097 0.690471 0.674203 0.179375
C120  C     C_3   0.316941 0.281834 0.864451 -0.322470
H46   H     H_    0.226887 0.247360 0.879207 0.183331
H47   H     H_    0.309235 0.308727 0.825697 0.179052
H48   H     H_    0.338366 0.209717 0.863345 0.187531
I1    I     I_    0.858821 0.274610 0.150563 -0.272386
I2    I     I_    0.414192 0.139976 0.349677 -0.274123
I3    I     I_    0.725696 0.584979 0.150517 -0.272355
I4    I     I_    0.859956 0.274214 0.349770 -0.274300
I5    I     I_    0.414852 0.140431 0.150714 -0.272336
I6    I     I_    0.725739 0.585639 0.349749 -0.274234
I7    I     I_    0.274277 0.859931 0.650255 -0.274331
I8    I     I_    0.138842 0.412482 0.849956 -0.276290
I9    I     I_    0.585655 0.725755 0.650266 -0.274292
I10   I     I_    0.273911 0.860774 0.850036 -0.276629
I11   I     I_    0.140092 0.414340 0.650343 -0.274265
I12   I     I_    0.587013 0.726127 0.849890 -0.276338
I13   I     I_    0.995474 0.175681 0.065907 -0.354031
I14   I     I_    0.178075 0.000262 0.434127 -0.354140
I15   I     I_    0.824365 0.820052 0.065687 -0.353599
I16   I     I_    0.999694 0.177768 0.434198 -0.354168
I17   I     I_    0.180065 0.004638 0.065713 -0.353892
I18   I     I_    0.822119 0.821893 0.434122 -0.354188
I19   I     I_    0.177699 0.999538 0.565829 -0.354063
I20   I     I_    0.996032 0.175992 0.934181 -0.354280
I21   I     I_    0.821767 0.822294 0.565829 -0.354079
I22   I     I_    0.180110 0.004106 0.934011 -0.354703
I23   I     I_    0.000507 0.178222 0.565909 -0.354158
I24   I     I_    0.823883 0.819959 0.933988 -0.354414

loop_
_geom_bond_atom_site_label_1
_geom_bond_atom_site_label_2
_geom_bond_distance
_ccdc_geom_bond_type
C20   C92   1.411454 A    
C16   C23   1.417393 A    
C33   C69   1.393185 A    
O4    Cr1   2.049457 S    
C11   C50   1.486508 S    
O16   C4    1.305828 A    
C110  H16   1.100001 S    
C47   C71   1.415628 A    
C118  H42   1.109260 S    
O17   C5    1.305820 A    
C113  H25   1.100139 S    
C42   C66   1.415644 A    
C96   C99   1.417203 A    
C41   C65   1.416727 A    
C14   C62   1.418062 A    
C73   I8    2.129554 S    
O19   C7    1.305858 A    
O17   Cr2   1.937283 S    
C38   C115  1.520316 S    
C17   C89   1.410041 A    
C111  H19   1.100132 S    
C87   C108  1.416111 A    
C43   C67   1.415700 A    
C94   C101  1.417252 A    
C24   C72   1.417807 A    
C116  H34   1.100242 S    
O24   Cr6   1.937499 S    
C75   I12   2.129257 S    
C112  H22   1.100070 S    
C83   C95   1.414440 A    
C80   I1    2.130388 S    
C2    C59   1.486475 S    
O9    Cr6   2.049487 S    
C14   C86   1.410626 A    
C46   C113  1.520296 S    
C100  C107  1.418891 A    
C47   C52   1.412545 A    
O9    C11   1.309935 A    
C116  H36   1.109253 S    
O21   C9    1.305863 A    
O5    Cr2   2.049333 S    
C82   I5    2.130484 S    
C55   C74   1.395869 A    
C31   C67   1.393125 A    
C81   I6    2.129421 S    
O7    Cr4   2.049317 S    
C28   H11   1.063123 S    
C118  H41   1.109494 S    
C51   C84   1.396502 A    
O6    Cr3   2.049306 S    
C120  H47   1.109562 S    
C13   C85   1.410364 A    
C24   C96   1.411521 A    
C35   H4    1.062959 S    
C78   C90   1.414403 A    
C85   C104  1.416241 A    
C39   C63   1.416814 A    
C97   C104  1.418927 A    
O1    Cr1   2.049215 S    
C8    C53   1.486514 S    
C38   C62   1.415719 A    
O15   C3    1.305834 A    
C91   C98   1.416470 A    
O2    Cr2   2.049237 S    
C48   C72   1.414895 A    
C29   C65   1.393899 A    
C30   H9    1.063041 S    
C1    C60   1.486496 S    
O13   Cr1   1.937457 S    
C48   C111  1.520371 S    
O10   Cr4   2.049322 S    
O18   C6    1.305850 A    
C49   C80   1.396360 A    
C109  H14   1.109382 S    
C73   C85   1.413643 A    
C83   I4    2.129413 S    
C58   C77   1.395389 A    
C101  C106  1.418916 A    
C36   C72   1.393592 A    
C10   C51   1.486542 S    
C22   C94   1.411472 A    
Cr5   O26   2.026258 S    
C119  H45   1.109204 S    
C76   I11   2.129876 S    
C114  H29   1.109111 S    
C50   C79   1.395772 A    
C16   C88   1.410690 A    
O11   C7    1.310015 A    
C110  H17   1.109108 S    
O12   C8    1.309959 A    
C46   C53   1.412105 A    
C113  H26   1.109232 S    
O13   C1    1.305794 A    
C45   C54   1.412582 A    
C118  H40   1.100508 S    
C45   C114  1.520384 S    
C48   C51   1.412271 A    
C18   C66   1.418078 A    
C13   C61   1.419022 A    
C111  H20   1.109302 S    
C36   H3    1.063770 S    
C21   C69   1.418100 A    
O16   Cr1   1.937237 S    
O12   Cr6   2.049279 S    
C116  H35   1.109368 S    
C27   C63   1.394132 A    
O22   C10   1.305977 A    
C26   C62   1.393230 A    
C33   H6    1.063065 S    
O7    C9    1.309921 A    
O15   Cr3   1.937325 S    
C93   C102  1.416442 A    
C52   C83   1.395905 A    
O18   Cr3   1.937482 S    
C98   I14   2.135078 S    
C44   C109  1.520393 S    
C46   C70   1.414897 A    
C39   C60   1.413347 A    
O3    Cr3   2.049446 S    
C100  I16   2.135049 S    
C80   C92   1.415234 A    
O2    C4    1.310049 A    
C117  H39   1.109238 S    
O8    C10   1.309973 A    
O20   Cr5   1.937226 S    
C119  H44   1.109041 S    
C44   C49   1.412512 A    
C114  H28   1.099911 S    
C90   C105  1.416488 A    
C75   C87   1.413503 A    
C28   C64   1.393214 A    
C35   C71   1.393111 A    
C39   C120  1.520913 S    
C79   C91   1.414354 A    
Cr6   O26   2.026120 S    
C34   C70   1.393351 A    
C84   I3    2.130665 S    
C59   C76   1.395816 A    
C120  H48   1.109440 S    
C107  I23   2.135054 S    
C40   C59   1.412576 A    
C92   C97   1.417086 A    
C74   C86   1.414444 A    
C28   C35   1.373119 A    
O23   Cr5   1.937433 S    
C102  C105  1.418854 A    
C95   C100  1.416528 A    
C38   C55   1.412487 A    
C9    C52   1.486536 S    
C15   C63   1.419031 A    
C20   C68   1.417898 A    
C17   C22   1.417484 A    
C115  H33   1.109214 S    
C40   C119  1.520381 S    
C41   C58   1.413061 A    
C21   C93   1.410588 A    
C78   I9    2.129613 S    
C43   C110  1.520366 S    
C43   C50   1.412536 A    
O19   Cr4   1.937318 S    
C77   I10   2.128382 S    
O14   C2    1.305768 A    
C109  H15   1.109519 S    
C19   C91   1.410578 A    
C104  I20   2.135344 S    
C32   C68   1.393704 A    
C106  I22   2.135505 S    
O8    Cr5   2.049400 S    
C105  I21   2.135036 S    
O5    C1    1.310050 A    
C6    C55   1.486537 S    
C99   C108  1.418905 A    
C41   C118  1.520633 S    
C115  H31   1.100010 S    
C112  H24   1.109281 S    
O23   C11   1.305799 A    
C108  I24   2.135552 S    
C113  H27   1.109377 S    
C117  H38   1.109127 S    
C25   H8    1.063760 S    
C97   I13   2.135252 S    
Cr4   O26   2.026296 S    
C111  H21   1.109336 S    
C7    C54   1.486454 S    
C99   I15   2.135003 S    
O20   C8    1.305821 A    
C114  H30   1.109244 S    
C17   C65   1.418851 A    
O14   Cr2   1.937351 S    
C56   C73   1.395590 A    
C82   C94   1.415460 A    
C45   C69   1.415718 A    
C79   I2    2.129520 S    
C29   H10   1.063435 S    
C76   C88   1.414367 A    
C37   C116  1.520690 S    
C98   C103  1.418840 A    
C30   C66   1.393147 A    
C3    C58   1.486577 S    
C37   C61   1.416683 A    
C89   C106  1.416026 A    
C44   C68   1.414978 A    
O21   Cr6   1.937313 S    
C16   C64   1.418110 A    
Cr3   O25   2.026120 S    
C29   C34   1.372947 A    
C110  H18   1.109261 S    
C25   C32   1.372955 A    
C27   H12   1.063439 S    
C23   C71   1.418111 A    
C26   C31   1.373098 A    
O24   C12   1.305824 A    
C57   C78   1.395844 A    
C18   C90   1.410652 A    
C81   C93   1.414335 A    
C31   H2    1.063053 S    
C74   I7    2.129385 S    
C4    C57   1.486452 S    
C14   C19   1.417418 A    
C32   H1    1.063943 S    
C42   C57   1.412574 A    
O3    C5    1.309910 A    
C117  H37   1.099967 S    
O6    C2    1.309975 A    
C5    C56   1.486600 S    
C15   C87   1.410231 A    
C13   C20   1.417525 A    
C60   C75   1.395446 A    
C22   C70   1.417709 A    
C115  H32   1.109140 S    
C86   C103  1.416489 A    
C84   C96   1.415387 A    
C120  H46   1.100647 S    
O11   Cr5   2.049191 S    
C34   H5    1.063552 S    
C19   C67   1.418086 A    
C103  I19   2.135067 S    
C12   C49   1.486618 S    
Cr1   O25   2.026266 S    
C25   C61   1.394283 A    
C102  I18   2.135063 S    
C26   H7    1.063122 S    
C40   C64   1.415683 A    
C101  I17   2.134990 S    
C112  H23   1.109018 S    
C119  H43   1.099976 S    
C47   C112  1.520308 S    
C42   C117  1.520406 S    
C23   C95   1.410619 A    
O1    C3    1.309885 A    
C88   C107  1.416459 A    
O10   C12   1.310116 A    
C27   C36   1.372830 A    
C37   C56   1.413228 A    
C77   C89   1.413510 A    
C109  H13   1.100189 S    
C54   C81   1.395794 A    
Cr2   O25   2.026289 S    
C18   C21   1.417398 A    
O4    C6    1.309927 A    
C53   C82   1.396275 A    
O22   Cr4   1.937344 S    
C15   C24   1.417535 A    
C30   C33   1.373067 A    
