data_mof_unit_64944.cif
_audit_creation_date              2012-10-26T18:18:42-0400
_audit_creation_method            fapswitch 2.2
_symmetry_space_group_name_H-M    P1
_symmetry_Int_Tables_number       1
_space_group_crystal_system       triclinic
_cell_length_a                    30.899298
_cell_length_b                    29.374833
_cell_length_c                    30.635672
_cell_angle_alpha                 90.038374
_cell_angle_beta                  89.971202
_cell_angle_gamma                 89.899809
_cell_volume                      27806.7744174

loop_
_atom_site_label
_atom_site_type_symbol
_atom_type_description
_atom_site_fract_x
_atom_site_fract_y
_atom_site_fract_z
_atom_type_partial_charge
Br1   Br    Br    0.294216 0.079988 0.620961 -0.387826
Br2   Br    Br    0.635755 0.927622 0.538094 -0.377289
Br3   Br    Br    0.864458 0.572765 0.538439 -0.377289
Br4   Br    Br    0.135924 0.427932 0.537870 -0.389980
Br5   Br    Br    0.865016 0.073790 0.039232 -0.428951
Br6   Br    Br    0.136016 0.928107 0.037749 -0.383979
Br7   Br    Br    0.364417 0.572687 0.038385 -0.377492
Br8   Br    Br    0.635677 0.427476 0.038197 -0.383621
Br9   Br    Br    0.140893 0.904894 0.815664 -0.460109
Br10  Br    Br    0.850540 0.901517 0.823982 -0.479252
Br11  Br    Br    0.639116 0.405557 0.813583 -0.470000
Br12  Br    Br    0.706497 0.920925 0.619847 -0.384919
Br13  Br    Br    0.360453 0.594644 0.814162 -0.465666
Br14  Br    Br    0.639447 0.905389 0.313899 -0.459209
Br15  Br    Br    0.350480 0.901501 0.324040 -0.479467
Br16  Br    Br    0.141250 0.404732 0.316005 -0.471001
Br17  Br    Br    0.860411 0.594664 0.314200 -0.464224
Br18  Br    Br    0.793729 0.579397 0.620292 -0.379572
Br19  Br    Br    0.206648 0.421116 0.619640 -0.386064
Br20  Br    Br    0.794267 0.080051 0.121028 -0.387738
Br21  Br    Br    0.206754 0.921249 0.119504 -0.385488
Br22  Br    Br    0.293680 0.579336 0.120228 -0.379740
Br23  Br    Br    0.706406 0.420811 0.119964 -0.385574
Br24  Br    Br    0.364972 0.073708 0.539172 -0.428984
C1    C     C_R   0.309101 0.001244 0.690516 0.573571
C2    C     C_R   0.630852 0.968603 0.587161 0.155910
C3    C     C_R   0.749984 0.084603 0.249986 0.543313
C4    C     C_R   0.250019 0.415398 0.249994 0.557943
C5    C     C_R   0.749970 0.584609 0.250007 0.558294
C6    C     C_R   0.750029 0.415390 0.249974 0.543044
C7    C     C_R   0.249990 0.584604 0.249980 0.545668
C8    C     C_R   0.114507 0.039497 0.894858 0.015512
C9    C     C_R   0.884352 0.038109 0.895169 0.018721
C10   C     C_R   0.619526 0.536097 0.899348 0.014478
C11   C     C_R   0.380660 0.463759 0.899106 0.015261
C12   C     C_R   0.619404 0.036169 0.399220 0.014636
C13   C     C_R   0.869231 0.531584 0.587308 0.155638
C14   C     C_R   0.384373 0.038116 0.395148 0.018681
C15   C     C_R   0.114354 0.539542 0.394699 0.017988
C16   C     C_R   0.880676 0.463750 0.399089 0.015122
C17   C     C_3   0.139433 0.070514 0.924139 -0.252091
C18   C     C_3   0.879785 0.087840 0.903603 -0.234002
C19   C     C_3   0.629573 0.583386 0.913615 -0.247010
C20   C     C_3   0.370834 0.416339 0.913079 -0.248633
C21   C     C_3   0.629280 0.083556 0.413313 -0.249257
C22   C     C_3   0.379836 0.087856 0.403552 -0.234249
C23   C     C_3   0.139162 0.570791 0.423856 -0.250788
C24   C     C_R   0.130924 0.468725 0.587069 0.154062
C25   C     C_3   0.870871 0.416318 0.413042 -0.248586
C26   C     C_3   0.175133 0.069786 0.890027 -0.273938
C27   C     C_3   0.844002 0.087306 0.868566 -0.277447
C28   C     C_3   0.665503 0.582677 0.878687 -0.274094
C29   C     C_3   0.334922 0.417041 0.878168 -0.276058
C30   C     C_3   0.665205 0.082855 0.378381 -0.276223
C31   C     C_3   0.344056 0.087323 0.368513 -0.277468
C32   C     C_3   0.174860 0.570075 0.389741 -0.272964
C33   C     C_3   0.834959 0.417019 0.378131 -0.276026
C34   C     C_R   0.940049 0.999920 0.939961 0.572686
C35   C     C_R   0.869461 0.031979 0.087621 0.160880
C36   C     C_R   0.060200 0.999953 0.940059 0.569441
C37   C     C_R   0.440064 0.500110 0.939986 0.571792
C38   C     C_R   0.559937 0.499874 0.939990 0.572118
C39   C     C_R   0.440047 0.999920 0.439964 0.572121
C40   C     C_R   0.559938 0.999873 0.439989 0.572232
C41   C     C_R   0.940066 0.500110 0.439984 0.572345
C42   C     C_R   0.060200 0.499952 0.440056 0.569278
C43   C     C_R   0.439120 0.000059 0.559069 0.583258
C44   C     C_R   0.560844 0.999967 0.559097 0.580498
C45   C     C_R   0.939136 0.500050 0.559078 0.580392
C46   C     C_R   0.130961 0.968796 0.087021 0.154115
C47   C     C_R   0.060842 0.499971 0.559097 0.578995
C48   C     C_R   0.939117 0.000060 0.059066 0.583050
C49   C     C_R   0.060837 0.999972 0.059101 0.578711
C50   C     C_R   0.439139 0.500050 0.059080 0.580615
C51   C     C_R   0.560849 0.499967 0.059094 0.580786
C52   C     C_R   0.190816 0.999598 0.809318 0.578536
C53   C     C_R   0.809046 0.000138 0.809264 0.579152
C54   C     C_R   0.690935 0.499859 0.809274 0.577246
C55   C     C_R   0.309070 0.500113 0.809279 0.577278
C56   C     C_R   0.690936 0.999866 0.309273 0.576614
C57   C     C_R   0.369215 0.531552 0.087287 0.155684
C58   C     C_R   0.309046 0.000140 0.309264 0.579206
C59   C     C_R   0.190816 0.499609 0.309317 0.579368
C60   C     C_R   0.809070 0.500111 0.309279 0.577182
C61   C     C_1   0.250004 0.864119 0.750047 0.009431
C62   C     C_1   0.749972 0.135889 0.750102 -0.029995
C63   C     C_1   0.750033 0.864114 0.749875 0.032902
C64   C     C_1   0.249995 0.135881 0.749926 -0.006179
C65   C     C_1   0.749994 0.364120 0.750056 0.005160
C66   C     C_1   0.249958 0.635888 0.750075 0.008812
C67   C     C_1   0.250065 0.364113 0.749913 -0.007910
C68   C     C_R   0.630821 0.468543 0.087202 0.155789
C69   C     C_1   0.749985 0.635882 0.749934 -0.004046
C70   C     C_1   0.750001 0.864119 0.250049 0.009291
C71   C     C_1   0.249972 0.135889 0.250103 -0.030136
C72   C     C_1   0.250036 0.864114 0.249873 0.032895
C73   C     C_1   0.749981 0.135880 0.249939 -0.007584
C74   C     C_1   0.249999 0.364120 0.250053 0.005531
C75   C     C_1   0.749958 0.635888 0.250074 0.008893
C76   C     C_1   0.750063 0.364113 0.249915 -0.007884
C77   C     C_1   0.249998 0.635882 0.249922 -0.002555
C78   C     C_1   0.249985 0.821639 0.750084 0.000398
C79   C     C_R   0.403613 0.999922 0.589906 -0.011856
C80   C     C_1   0.749966 0.178370 0.750133 -0.026421
C81   C     C_1   0.750048 0.821634 0.749860 0.014628
C82   C     C_1   0.250011 0.178362 0.749897 -0.011841
C83   C     C_1   0.749973 0.321640 0.750097 -0.006312
C84   C     C_1   0.249966 0.678368 0.750107 -0.000158
C85   C     C_1   0.250068 0.321632 0.749888 -0.012591
C86   C     C_1   0.750000 0.678363 0.749903 -0.006460
C87   C     C_1   0.749983 0.821639 0.250085 0.000342
C88   C     C_1   0.249967 0.178370 0.250133 -0.026567
C89   C     C_1   0.250055 0.821634 0.249855 0.014733
C90   C     C_R   0.596341 0.000169 0.589917 -0.015945
C91   C     C_1   0.749994 0.178361 0.249913 -0.012659
C92   C     C_1   0.249978 0.321640 0.250095 -0.006115
C93   C     C_1   0.749965 0.678368 0.250106 -0.000041
C94   C     C_1   0.750061 0.321632 0.249893 -0.012678
C95   C     C_1   0.250016 0.678363 0.249888 -0.005586
C96   C     C_1   0.249975 0.771245 0.750111 0.028637
C97   C     C_1   0.749961 0.228764 0.750141 0.014064
C98   C     C_1   0.750042 0.771241 0.749865 0.034197
C99   C     C_1   0.250035 0.228755 0.749880 0.020034
C100  C     C_1   0.749962 0.271247 0.750129 0.018852
C101  C     C_R   0.903632 0.499878 0.589900 -0.015804
C102  C     C_1   0.249972 0.728762 0.750118 0.028446
C103  C     C_1   0.250054 0.271238 0.749877 0.019934
C104  C     C_1   0.750024 0.728757 0.749878 0.029219
C105  C     C_1   0.749973 0.771245 0.250111 0.028707
C106  C     C_1   0.249964 0.228764 0.250140 0.013948
C107  C     C_1   0.250053 0.771241 0.249854 0.034444
C108  C     C_1   0.750020 0.228755 0.249894 0.019656
C109  C     C_1   0.249966 0.271247 0.250128 0.018821
C110  C     C_1   0.749970 0.728762 0.250118 0.028563
C111  C     C_1   0.750042 0.271238 0.249888 0.019709
C112  C     C_R   0.690892 0.998709 0.690498 0.572511
C113  C     C_R   0.096342 0.500190 0.589910 -0.016276
C114  C     C_1   0.250039 0.728758 0.249864 0.029630
C115  C     C_R   0.371988 0.967498 0.654610 -0.026497
C116  C     C_R   0.627617 0.032146 0.655017 -0.025758
C117  C     C_R   0.872223 0.467743 0.654837 -0.028322
C118  C     C_R   0.127561 0.532088 0.655072 -0.027662
C119  C     C_R   0.871953 0.967466 0.154577 -0.026603
C120  C     C_R   0.127489 0.032017 0.155141 -0.026012
C121  C     C_R   0.372257 0.467775 0.154869 -0.028248
C122  C     C_R   0.627683 0.532209 0.154955 -0.027438
C123  C     C_R   0.341220 0.002067 0.656254 -0.009558
C124  C     C_R   0.903606 0.999924 0.089901 -0.011906
C125  C     C_R   0.658772 0.997934 0.656209 -0.010108
C126  C     C_R   0.841218 0.502091 0.656224 -0.009487
C127  C     C_R   0.158778 0.497934 0.656197 -0.009864
C128  C     C_R   0.841218 0.002064 0.156254 -0.009523
C129  C     C_R   0.158773 0.997929 0.156197 -0.010072
C130  C     C_R   0.341219 0.502093 0.156224 -0.009514
C131  C     C_R   0.658776 0.497939 0.156209 -0.009898
C132  C     C_R   0.338146 0.033143 0.621125 0.162106
C133  C     C_R   0.662155 0.967329 0.620663 0.157122
C134  C     C_R   0.837933 0.532845 0.620838 0.158594
C135  C     C_R   0.096328 0.000192 0.089919 -0.016554
C136  C     C_R   0.162225 0.467429 0.620573 0.158713
C137  C     C_R   0.838166 0.033173 0.121151 0.162176
C138  C     C_R   0.162266 0.967494 0.120520 0.157434
C139  C     C_R   0.337914 0.532816 0.120813 0.158531
C140  C     C_R   0.662120 0.467275 0.120709 0.158406
C141  C     C_R   0.403639 0.499877 0.089904 -0.015755
C142  C     C_R   0.596353 0.500168 0.089909 -0.015678
C143  C     C_R   0.402485 0.966336 0.621932 -0.011781
C144  C     C_R   0.597111 0.033360 0.622370 -0.015340
C145  C     C_R   0.902730 0.466545 0.622171 -0.015256
C146  C     C_R   0.097053 0.533313 0.622428 -0.014916
C147  C     C_R   0.902448 0.966306 0.121897 -0.011742
C148  C     C_R   0.809101 0.501292 0.690508 0.572850
C149  C     C_R   0.096976 0.033246 0.122501 -0.015609
C150  C     C_R   0.402765 0.466575 0.122205 -0.015313
C151  C     C_R   0.597180 0.533419 0.122305 -0.014695
C152  C     C_3   0.437305 0.950628 0.652179 -0.263014
C153  C     C_3   0.562123 0.048293 0.652830 -0.263511
C154  C     C_3   0.937648 0.451320 0.652526 -0.263133
C155  C     C_3   0.062044 0.548127 0.652915 -0.262067
C156  C     C_3   0.937253 0.950527 0.152129 -0.262815
C157  C     C_3   0.061935 0.047910 0.153017 -0.263270
C158  C     C_3   0.437698 0.451418 0.152575 -0.263315
C159  C     C_R   0.190892 0.498698 0.690496 0.572943
C160  C     C_3   0.562221 0.548487 0.152738 -0.262298
C161  C     C_3   0.403653 0.952055 0.688325 -0.257893
C162  C     C_3   0.595778 0.046806 0.688938 -0.256539
C163  C     C_3   0.903986 0.452790 0.688662 -0.257946
C164  C     C_3   0.095702 0.546629 0.689020 -0.256297
C165  C     C_3   0.903602 0.951952 0.188277 -0.257864
C166  C     C_3   0.095596 0.046405 0.189118 -0.256210
C167  C     C_3   0.404034 0.452891 0.188708 -0.257966
C168  C     C_3   0.595873 0.547006 0.188849 -0.256603
C169  C     C_R   0.146926 0.038877 0.863899 -0.024935
C170  C     C_R   0.809100 0.001240 0.190516 0.573542
C171  C     C_R   0.852962 0.037691 0.864696 -0.024053
C172  C     C_R   0.651120 0.535403 0.869079 -0.019714
C173  C     C_R   0.349076 0.464441 0.868844 -0.018896
C174  C     C_R   0.650993 0.035487 0.368946 -0.019265
C175  C     C_R   0.352985 0.037700 0.364672 -0.024083
C176  C     C_R   0.146772 0.538932 0.363738 -0.023595
C177  C     C_R   0.849093 0.464431 0.368828 -0.018901
C178  C     C_R   0.157393 0.998787 0.842024 0.035499
C179  C     C_R   0.841672 0.998598 0.842305 0.041301
C180  C     C_R   0.658219 0.498213 0.842297 0.039649
C181  C     C_R   0.190891 0.998690 0.190495 0.572431
C182  C     C_R   0.341785 0.501741 0.842302 0.039340
C183  C     C_R   0.658223 0.998221 0.342297 0.038407
C184  C     C_R   0.341671 0.998600 0.342305 0.041250
C185  C     C_R   0.157396 0.498795 0.342023 0.036200
C186  C     C_R   0.841785 0.501740 0.342302 0.039231
C187  C     C_R   0.131164 0.960070 0.847807 0.140424
C188  C     C_R   0.863744 0.957870 0.852652 0.136163
C189  C     C_R   0.631707 0.459517 0.848118 0.139459
C190  C     C_R   0.368109 0.540545 0.848361 0.139851
C191  C     C_R   0.631852 0.959443 0.348255 0.139903
C192  C     C_R   0.309102 0.501295 0.190508 0.572858
C193  C     C_R   0.363718 0.957864 0.352678 0.136134
C194  C     C_R   0.131314 0.459993 0.347949 0.139799
C195  C     C_R   0.868091 0.540553 0.348377 0.139885
C196  C     C_R   0.098643 0.960665 0.879636 -0.100936
C197  C     C_R   0.896097 0.958250 0.885043 -0.113261
C198  C     C_R   0.599402 0.459938 0.880596 -0.102387
C199  C     C_R   0.400409 0.540123 0.880822 -0.101854
C200  C     C_R   0.599546 0.959862 0.380733 -0.101316
C201  C     C_R   0.396070 0.958244 0.385070 -0.113410
C202  C     C_R   0.098788 0.460584 0.379772 -0.102170
C203  C     C_R   0.690892 0.498716 0.190499 0.573022
C204  C     C_R   0.900393 0.540131 0.380837 -0.101327
C205  C     C_R   0.091708 0.999934 0.904992 -0.013705
C206  C     C_R   0.906945 0.999161 0.906765 -0.011745
C207  C     C_R   0.592825 0.499056 0.906653 -0.007174
C208  C     C_R   0.407178 0.500905 0.906645 -0.007754
C209  C     C_R   0.592833 0.999052 0.406656 -0.008704
C210  C     C_R   0.406942 0.999161 0.406768 -0.011874
C211  C     C_R   0.091705 0.499926 0.404984 -0.012948
C212  C     C_R   0.907178 0.500905 0.406643 -0.007876
C213  C     C_R   0.250020 0.915398 0.749993 0.558576
C214  C     C_R   0.369443 0.031946 0.587598 0.160940
C215  C     C_R   0.749991 0.084610 0.750031 0.524805
C216  C     C_R   0.749995 0.915391 0.749938 0.578860
C217  C     C_R   0.249990 0.084603 0.749981 0.545143
C218  C     C_R   0.750016 0.415398 0.749997 0.557323
C219  C     C_R   0.249970 0.584609 0.750007 0.558347
C220  C     C_R   0.250029 0.415390 0.749974 0.543009
C221  C     C_R   0.749985 0.584604 0.749985 0.543782
C222  C     C_R   0.750018 0.915398 0.249995 0.558156
C223  C     C_R   0.249991 0.084610 0.250031 0.524809
C224  C     C_R   0.249995 0.915391 0.249938 0.578861
Cu1   Cu    Cu3+1 0.280900 0.000000 0.780900 0.978885
Cu2   Cu    Cu3+1 0.780910 1.000000 0.719100 1.056681
Cu3   Cu    Cu3+1 0.719090 0.500000 0.719100 1.062232
Cu4   Cu    Cu3+1 0.280910 0.500000 0.719100 1.062388
Cu5   Cu    Cu3+1 0.719090 1.000000 0.219100 1.062349
Cu6   Cu    Cu3+1 0.280910 1.000000 0.219100 1.055499
Cu7   Cu    Cu3+1 0.219090 0.500000 0.219100 1.063415
Cu8   Cu    Cu3+1 0.780910 0.500000 0.219100 1.063285
Cu9   Cu    Cu3+1 1.000000 0.957530 0.999990 1.031976
Cu10  Cu    Cu3+1 1.000000 0.042470 0.999990 0.998501
Cu11  Cu    Cu3+1 0.500000 0.457530 0.999990 1.010886
Cu12  Cu    Cu3+1 0.719100 0.000000 0.780900 0.987007
Cu13  Cu    Cu3+1 0.500000 0.542470 0.999990 1.017269
Cu14  Cu    Cu3+1 0.500000 0.957530 0.499990 1.031799
Cu15  Cu    Cu3+1 0.500000 0.042470 0.499990 0.995675
Cu16  Cu    Cu3+1 0.000000 0.457530 0.499990 1.011053
Cu17  Cu    Cu3+1 0.000000 0.542470 0.499990 1.020450
Cu18  Cu    Cu3+1 0.780900 0.500000 0.780900 0.983246
Cu19  Cu    Cu3+1 0.219100 0.500000 0.780900 0.983195
Cu20  Cu    Cu3+1 0.780900 1.000000 0.280900 0.983538
Cu21  Cu    Cu3+1 0.219100 1.000000 0.280900 0.987510
Cu22  Cu    Cu3+1 0.280900 0.500000 0.280900 0.979050
Cu23  Cu    Cu3+1 0.719100 0.500000 0.280900 0.982825
Cu24  Cu    Cu3+1 0.219090 1.000000 0.719100 1.063994
H1    H     H_    0.448506 0.915580 0.644355 0.159260
H2    H     H_    0.050246 0.082905 0.145777 0.156926
H3    H     H_    0.036112 0.021870 0.156716 0.127631
H4    H     H_    0.963463 0.976064 0.156263 0.126672
H5    H     H_    0.449158 0.416396 0.145034 0.155211
H6    H     H_    0.550723 0.583506 0.145296 0.159134
H7    H     H_    0.536256 0.522629 0.156588 0.126967
H8    H     H_    0.463691 0.477238 0.156475 0.127699
H9    H     H_    0.395530 0.917833 0.701411 0.150786
H10   H     H_    0.603537 0.080956 0.702452 0.150513
H11   H     H_    0.589408 0.019964 0.713696 0.156561
H12   H     H_    0.550561 0.083304 0.645454 0.157044
H13   H     H_    0.410289 0.978514 0.713417 0.156584
H14   H     H_    0.896084 0.418614 0.701994 0.146688
H15   H     H_    0.103409 0.580766 0.702594 0.151260
H16   H     H_    0.089374 0.519728 0.713730 0.156619
H17   H     H_    0.910452 0.479491 0.713562 0.157548
H18   H     H_    0.895446 0.917725 0.201328 0.150931
H19   H     H_    0.103231 0.080528 0.202766 0.150485
H20   H     H_    0.089324 0.019432 0.213771 0.156732
H21   H     H_    0.910265 0.978376 0.213395 0.156663
H22   H     H_    0.396166 0.418721 0.202073 0.146536
H23   H     H_    0.536204 0.022374 0.656630 0.127469
H24   H     H_    0.603697 0.581167 0.202298 0.151264
H25   H     H_    0.589454 0.520228 0.213659 0.156472
H26   H     H_    0.410475 0.479625 0.213583 0.157482
H27   H     H_    0.079808 0.930175 0.885337 0.173497
H28   H     H_    0.912757 0.926821 0.892833 0.170610
H29   H     H_    0.579393 0.430057 0.885060 0.169209
H30   H     H_    0.420260 0.570094 0.885457 0.170234
H31   H     H_    0.579643 0.929920 0.385298 0.172493
H32   H     H_    0.412711 0.926808 0.392879 0.170566
H33   H     H_    0.080069 0.430037 0.385586 0.170679
H34   H     H_    0.463491 0.976197 0.656288 0.126644
H35   H     H_    0.920231 0.570110 0.385484 0.171139
H36   H     H_    0.123654 0.104367 0.927528 0.147804
H37   H     H_    0.867536 0.095127 0.936992 0.197213
H38   H     H_    0.909062 0.107194 0.893697 0.147945
H39   H     H_    0.148807 0.054011 0.955417 0.158009
H40   H     H_    0.602844 0.607523 0.906156 0.152180
H41   H     H_    0.397687 0.392389 0.905462 0.150675
H42   H     H_    0.358320 0.414852 0.947073 0.153133
H43   H     H_    0.642073 0.584622 0.947613 0.154914
H44   H     H_    0.602459 0.107553 0.405772 0.146988
H45   H     H_    0.949075 0.416293 0.644951 0.155399
H46   H     H_    0.367590 0.095173 0.436936 0.197299
H47   H     H_    0.409126 0.107183 0.393636 0.146796
H48   H     H_    0.641780 0.084977 0.447304 0.153836
H49   H     H_    0.123250 0.604590 0.427116 0.152184
H50   H     H_    0.897735 0.392385 0.405413 0.150810
H51   H     H_    0.858358 0.414809 0.447035 0.153099
H52   H     H_    0.148606 0.554462 0.455196 0.157758
H53   H     H_    0.179923 0.103211 0.873753 0.140923
H54   H     H_    0.811127 0.094307 0.881723 0.163563
H55   H     H_    0.852709 0.106186 0.838389 0.142050
H56   H     H_    0.050426 0.583132 0.645601 0.159044
H57   H     H_    0.205284 0.052850 0.901455 0.163294
H58   H     H_    0.659373 0.606196 0.850951 0.141380
H59   H     H_    0.341181 0.393702 0.850285 0.140230
H60   H     H_    0.301675 0.415747 0.891974 0.154943
H61   H     H_    0.698747 0.583717 0.892488 0.157345
H62   H     H_    0.658986 0.106240 0.350561 0.138166
H63   H     H_    0.311183 0.094355 0.381664 0.163646
H64   H     H_    0.352775 0.106179 0.338326 0.141680
H65   H     H_    0.698448 0.084082 0.392170 0.155408
H66   H     H_    0.179515 0.603452 0.373335 0.144674
H67   H     H_    0.036169 0.522156 0.656670 0.127109
H68   H     H_    0.841229 0.393696 0.350237 0.140295
H69   H     H_    0.801713 0.415703 0.391937 0.154878
H70   H     H_    0.205079 0.553320 0.401229 0.163547
H71   H     H_    0.963664 0.477108 0.656452 0.127721
H72   H     H_    0.948420 0.915476 0.144269 0.159442
O1    O     O_R   0.321180 0.000000 0.731010 -0.515515
O2    O     O_R   0.731020 0.000000 0.678820 -0.468569
O3    O     O_R   0.768980 0.500000 0.678820 -0.469821
O4    O     O_R   0.231020 0.500000 0.678820 -0.468988
O5    O     O_R   0.768980 1.000000 0.178820 -0.468287
O6    O     O_R   0.231020 1.000000 0.178820 -0.468848
O7    O     O_R   0.268980 0.500000 0.178820 -0.469883
O8    O     O_R   0.731020 0.500000 0.178820 -0.468718
O9    O     O_R   0.276100 0.938030 0.776090 -0.490222
O10   O     O_R   0.723900 0.061970 0.776090 -0.496460
O11   O     O_R   0.723900 0.938030 0.776090 -0.492566
O12   O     O_R   0.678820 0.000000 0.731010 -0.515847
O13   O     O_R   0.276100 0.061970 0.776090 -0.501431
O14   O     O_R   0.776100 0.438030 0.776090 -0.492682
O15   O     O_R   0.223900 0.561970 0.776090 -0.490030
O16   O     O_R   0.223900 0.438030 0.776090 -0.501656
O17   O     O_R   0.776100 0.561970 0.776090 -0.498928
O18   O     O_R   0.776100 0.938030 0.276090 -0.490574
O19   O     O_R   0.223900 0.061970 0.276090 -0.496313
O20   O     O_R   0.223900 0.938030 0.276090 -0.492379
O21   O     O_R   0.776100 0.061970 0.276090 -0.501011
O22   O     O_R   0.276100 0.438030 0.276090 -0.492129
O23   O     O_R   0.821180 0.500000 0.731010 -0.515104
O24   O     O_R   0.723900 0.561970 0.276090 -0.490143
O25   O     O_R   0.723900 0.438030 0.276090 -0.501786
O26   O     O_R   0.276100 0.561970 0.276090 -0.499339
O27   O     O_R   0.223900 0.938040 0.723900 -0.475806
O28   O     O_R   0.776100 0.061960 0.723900 -0.497430
O29   O     O_R   0.776100 0.938040 0.723900 -0.454247
O30   O     O_R   0.223900 0.061960 0.723900 -0.471768
O31   O     O_R   0.723900 0.438040 0.723900 -0.475591
O32   O     O_R   0.276100 0.561960 0.723900 -0.475982
O33   O     O_R   0.276100 0.438040 0.723900 -0.472188
O34   O     O_R   0.178820 0.500000 0.731010 -0.515702
O35   O     O_R   0.723900 0.561960 0.723900 -0.472446
O36   O     O_R   0.723900 0.938040 0.223900 -0.475152
O37   O     O_R   0.276100 0.061960 0.223900 -0.497662
O38   O     O_R   0.276100 0.938040 0.223900 -0.454355
O39   O     O_R   0.723900 0.061960 0.223900 -0.472952
O40   O     O_R   0.223900 0.438040 0.223900 -0.476513
O41   O     O_R   0.776100 0.561960 0.223900 -0.475836
O42   O     O_R   0.776100 0.438040 0.223900 -0.472111
O43   O     O_R   0.223900 0.561960 0.223900 -0.471269
O44   O     O_R   0.231010 0.000000 0.821180 -0.503340
O45   O     O_R   0.821180 1.000000 0.231010 -0.515587
O46   O     O_R   0.768990 0.000000 0.821180 -0.495085
O47   O     O_R   0.731010 0.500000 0.821180 -0.498792
O48   O     O_R   0.268990 0.500000 0.821180 -0.498385
O49   O     O_R   0.731010 1.000000 0.321180 -0.498307
O50   O     O_R   0.268990 1.000000 0.321180 -0.494922
O51   O     O_R   0.231010 0.500000 0.321180 -0.503487
O52   O     O_R   0.768990 0.500000 0.321180 -0.498456
O53   O     O_R   0.178810 1.000000 0.768990 -0.481392
O54   O     O_R   0.821190 1.000000 0.768990 -0.486922
O55   O     O_R   0.678810 0.500000 0.768990 -0.481763
O56   O     O_R   0.178820 1.000000 0.231010 -0.515713
O57   O     O_R   0.321190 0.500000 0.768990 -0.482353
O58   O     O_R   0.678810 1.000000 0.268990 -0.483216
O59   O     O_R   0.321190 1.000000 0.268990 -0.487114
O60   O     O_R   0.178810 0.500000 0.268990 -0.480277
O61   O     O_R   0.821190 0.500000 0.268990 -0.482314
O62   O     O_R   0.954900 0.964110 0.954900 -0.516941
O63   O     O_R   0.045100 0.035890 0.954900 -0.514151
O64   O     O_R   0.045100 0.964110 0.954900 -0.492565
O65   O     O_R   0.954900 0.035890 0.954900 -0.494772
O66   O     O_R   0.454900 0.464110 0.954900 -0.515578
O67   O     O_R   0.321180 0.500000 0.231010 -0.515060
O68   O     O_R   0.545100 0.535890 0.954900 -0.514887
O69   O     O_R   0.545100 0.464110 0.954900 -0.495305
O70   O     O_R   0.454900 0.535890 0.954900 -0.494773
O71   O     O_R   0.454900 0.964110 0.454900 -0.517107
O72   O     O_R   0.545100 0.035890 0.454900 -0.516974
O73   O     O_R   0.545100 0.964110 0.454900 -0.493184
O74   O     O_R   0.454900 0.035890 0.454900 -0.495716
O75   O     O_R   0.954900 0.464110 0.454900 -0.515348
O76   O     O_R   0.045100 0.535890 0.454900 -0.511817
O77   O     O_R   0.045100 0.464110 0.454900 -0.494829
O78   O     O_R   0.678820 0.500000 0.231010 -0.515823
O79   O     O_R   0.954900 0.535890 0.454900 -0.493858
O80   O     O_R   0.454900 0.964130 0.545070 -0.509082
O81   O     O_R   0.545100 0.035870 0.545070 -0.514441
O82   O     O_R   0.545100 0.964130 0.545070 -0.471127
O83   O     O_R   0.454900 0.035870 0.545070 -0.473428
O84   O     O_R   0.954900 0.464130 0.545070 -0.515039
O85   O     O_R   0.045100 0.535870 0.545070 -0.514478
O86   O     O_R   0.045100 0.464130 0.545070 -0.471521
O87   O     O_R   0.954900 0.535870 0.545070 -0.470621
O88   O     O_R   0.954900 0.964130 0.045070 -0.509128
O89   O     O_R   0.268980 0.000000 0.678820 -0.468322
O90   O     O_R   0.045100 0.035870 0.045070 -0.515562
O91   O     O_R   0.045100 0.964130 0.045070 -0.470747
O92   O     O_R   0.954900 0.035870 0.045070 -0.473402
O93   O     O_R   0.454900 0.464130 0.045070 -0.514996
O94   O     O_R   0.545100 0.535870 0.045070 -0.513400
O95   O     O_R   0.545100 0.464130 0.045070 -0.471854
O96   O     O_R   0.454900 0.535870 0.045070 -0.470628

loop_
_geom_bond_atom_site_label_1
_geom_bond_atom_site_label_2
_ccdc_geom_bond_type
C15   C176  A    
Cu12  O10   S    
Cu22  O67   S    
C57   C139  A    
C28   C172  S    
Cu7   O60   S    
Cu21  O19   S    
C41   O75   A    
Cu14  O71   S    
C221  O35   A    
C42   O76   A    
C47   C113  S    
C160  H7    S    
C187  C196  A    
C49   O90   A    
C7    C77   S    
C29   H60   S    
C171  C179  A    
C213  O27   A    
C196  H27   S    
C4    C74   S    
C23   H52   S    
Cu10  O63   S    
Cu1   O9    S    
Br6   C46   S    
C219  O32   A    
Cu2   Cu12  S    
C42   O77   A    
C20   C29   S    
C85   C103  S    
C167  H22   S    
C126  C148  S    
C40   O73   A    
C22   C31   S    
C32   H66   S    
Cu19  O16   S    
Br8   C68   S    
Br12  C133  S    
C172  C180  A    
C101  C145  A    
C1    O1    A    
Br17  C195  S    
C47   O86   A    
C22   H47   S    
C118  C146  A    
C182  C190  A    
C17   H39   S    
C18   H38   S    
C173  C182  A    
C83   C100  S    
C46   C138  A    
Cu20  O21   S    
C165  H21   S    
Cu15  O74   S    
Cu2   O54   S    
C198  H29   S    
C59   O60   A    
C181  O6    A    
C64   C217  S    
C213  O9    A    
C158  H8    S    
C155  C164  S    
C153  C162  S    
C4    O40   A    
Cu8   O42   S    
C43   O80   A    
C200  C209  A    
C2    C90   A    
C21   H44   S    
C189  C198  A    
C222  O18   A    
Cu4   Cu19  S    
C218  O31   A    
C164  H15   S    
C51   O95   A    
C117  C145  A    
C1    C123  S    
C115  C143  A    
Cu11  O93   S    
C59   C185  S    
C69   C221  S    
Br10  C188  S    
C26   H53   S    
Cu20  O45   S    
Cu12  O12   S    
C220  O33   A    
Cu8   O61   S    
C156  H72   S    
C199  C208  A    
C15   C23   S    
C184  C193  A    
C53   O54   A    
C3    C73   S    
Cu5   O36   S    
Cu11  Cu13  S    
Cu6   O6    S    
Cu15  O72   S    
C27   H54   S    
C176  C185  A    
C128  C170  S    
C29   C173  S    
C107  C114  T    
C27   C171  S    
C220  O16   A    
Cu20  O18   S    
Cu6   O37   S    
C60   C186  S    
C30   H65   S    
C162  H11   S    
C155  H67   S    
Cu22  O51   S    
Br3   C13   S    
C26   H57   S    
C48   O92   A    
Cu20  O49   S    
C222  O36   A    
C84   C102  S    
C6    O42   A    
C204  H35   S    
C194  C202  A    
C50   C141  S    
C144  C153  S    
C86   C104  S    
C32   C176  S    
Cu4   O32   S    
C79   C143  A    
C200  H31   S    
C39   O74   A    
C31   H63   S    
C70   C87   T    
C41   C212  S    
C118  C127  A    
C10   C207  A    
C178  C187  A    
C62   C80   T    
C152  H1    S    
C150  C158  S    
C58   C184  S    
C33   H68   S    
C43   C79   S    
C24   C136  A    
C131  C203  S    
C196  C205  A    
C201  C210  A    
C46   C135  A    
C156  C165  S    
C26   C169  S    
C19   C28   S    
C160  H6    S    
C16   C25   S    
C192  O67   A    
C6    C76   S    
Cu9   O88   S    
C25   C33   S    
Cu9   Cu10  S    
Cu5   O39   S    
Cu3   O3    S    
C71   C223  S    
C215  O10   A    
C126  C134  A    
Cu16  Cu17  S    
C197  C206  A    
C8    C17   S    
Cu23  O78   S    
Br16  C194  S    
C195  C204  A    
C41   O79   A    
C128  C137  A    
C54   O55   A    
Cu1   Cu24  S    
C38   O68   A    
C117  C126  A    
C91   C108  S    
C48   O88   A    
C216  O29   A    
Cu8   Cu23  S    
C224  O38   A    
Cu1   O13   S    
C19   H40   S    
Cu17  O79   S    
C60   O52   A    
C130  C192  S    
C167  H26   S    
C141  C150  A    
Cu22  O26   S    
C186  C195  A    
C30   H62   S    
Br1   C132  S    
C215  O28   A    
C34   C206  S    
C75   C93   T    
C5    O24   A    
C99   C103  T    
C63   C81   T    
C160  C168  S    
C119  C165  S    
C181  O56   A    
C55   O57   A    
C113  C146  A    
C129  C181  S    
C121  C130  A    
Br7   C57   S    
C199  H30   S    
Cu10  O65   S    
C73   C91   T    
Cu13  O94   S    
C157  H3    S    
Cu24  O89   S    
C11   C173  A    
Br23  C140  S    
Br21  C138  S    
C174  C183  A    
C95   C114  S    
Cu1   O1    S    
C10   C19   S    
C8    C169  A    
Cu16  O75   S    
C21   C30   S    
C127  C159  S    
Cu14  Cu15  S    
C69   C86   T    
C17   H36   S    
Cu7   O7    S    
C146  C155  S    
C43   O83   A    
C66   C84   T    
C39   C210  S    
Cu9   O91   S    
C29   H59   S    
C148  O3    A    
C120  C166  S    
C154  H71   S    
C170  O5    A    
C223  O37   A    
C175  C184  A    
C81   C98   S    
Cu5   O58   S    
C179  C188  A    
C14   C22   S    
C190  C199  A    
C149  C157  S    
Cu7   O40   S    
Cu16  O84   S    
C67   C220  S    
Cu13  O70   S    
C33   C177  S    
C65   C218  S    
Cu18  O17   S    
Cu19  O15   S    
C88   C106  S    
C161  H9    S    
C116  C125  A    
C61   C78   T    
C47   O85   A    
C193  C201  A    
C23   C32   S    
C36   O63   A    
C197  H28   S    
C34   O65   A    
C44   O81   A    
C177  C186  A    
C20   H41   S    
C203  O78   A    
C191  C200  A    
C112  C125  S    
C112  O12   A    
C152  C161  S    
C142  C151  A    
C12   C174  A    
C71   C88   T    
C36   O64   A    
C163  H14   S    
C96   C102  T    
C28   H61   S    
C148  O23   A    
C124  C147  A    
Cu21  O56   S    
C154  H45   S    
C25   H51   S    
C87   C105  S    
C166  H20   S    
C122  C131  A    
C164  H16   S    
Cu23  O25   S    
Br15  C193  S    
C170  O45   A    
C89   C107  S    
Cu13  O96   S    
C45   C101  S    
C168  H24   S    
C216  O11   A    
C11   C20   S    
C37   O70   A    
C224  O20   A    
C40   O72   A    
C3    O39   A    
Cu21  O20   S    
C93   C110  S    
C53   C179  S    
Cu5   Cu20  S    
Cu14  O80   S    
Cu1   O44   S    
C49   O91   A    
C31   C175  S    
Cu18  O14   S    
C5    C75   S    
Cu2   O28   S    
C45   O87   A    
C132  C214  A    
C23   H49   S    
C169  C178  A    
C36   C205  S    
Br13  C190  S    
Cu17  O76   S    
Cu6   O59   S    
Br18  C134  S    
Cu24  O30   S    
Cu4   O57   S    
C153  H12   S    
Cu14  O73   S    
C221  O17   A    
C122  C151  A    
C65   C83   T    
C183  C191  A    
C58   O59   A    
C159  O34   A    
Cu18  O23   S    
Cu6   O38   S    
C50   O93   A    
C217  O13   A    
C123  C132  A    
C70   C222  S    
Br11  C189  S    
Cu2   O29   S    
C154  C163  S    
C119  C128  A    
C153  H23   S    
C28   H58   S    
C18   H37   S    
Cu7   O43   S    
C72   C89   T    
C106  C109  T    
C76   C94   T    
C158  C167  S    
C9    C18   S    
C56   O49   A    
C55   C182  S    
Cu24  O27   S    
C17   C26   S    
C78   C96   S    
Cu12  O46   S    
Cu14  O82   S    
Cu3   O55   S    
Cu22  O22   S    
C49   C135  S    
C8    C205  A    
Cu6   Cu21  S    
Cu23  O24   S    
C14   C210  A    
C90   C144  A    
C92   C109  S    
Cu5   O5    S    
C118  C164  S    
C42   C211  S    
C7    O26   A    
C219  O15   A    
C19   H43   S    
C129  C138  A    
C60   O61   A    
C56   O58   A    
C119  C147  A    
Br19  C136  S    
Cu19  O48   S    
C52   O53   A    
C51   C142  S    
C61   C213  S    
C98   C104  T    
C155  H56   S    
C105  C110  T    
C34   O62   A    
C16   C177  A    
C9    C171  A    
C38   C207  S    
Cu12  O11   S    
C14   C175  A    
C4    O22   A    
C125  C133  A    
C72   C224  S    
C94   C111  S    
Cu21  O50   S    
C151  C160  S    
C116  C144  A    
Cu3   O35   S    
Cu4   O33   S    
Cu15  O83   S    
C116  C162  S    
C32   H70   S    
Cu8   O8    S    
C16   C212  A    
C37   C208  S    
C38   O69   A    
C202  H33   S    
C115  C123  A    
C27   H55   S    
C24   C113  A    
Cu9   O64   S    
C35   C137  A    
C185  C194  A    
Cu8   O41   S    
C223  O19   A    
C54   C180  S    
C11   C208  A    
C79   C214  A    
C52   C178  S    
C53   O46   A    
C217  O30   A    
C2    C133  A    
C157  C166  S    
C120  C129  A    
C161  H13   S    
C203  O8    A    
C97   C100  T    
C162  H10   S    
C166  H19   S    
C82   C99   S    
Cu17  O85   S    
C21   H48   S    
C18   C27   S    
C35   C124  A    
C68   C140  A    
C58   O50   A    
C201  H32   S    
C66   C219  S    
C121  C167  S    
Cu3   O31   S    
C31   H64   S    
C52   O44   A    
C122  C168  S    
Cu10  O92   S    
C59   O51   A    
C157  H2    S    
C33   H69   S    
C62   C215  S    
C158  H5    S    
C13   C101  A    
C188  C197  A    
Br5   C35   S    
C77   C95   T    
C130  C139  A    
Cu9   O62   S    
Cu18  O47   S    
C3    O21   A    
Br2   C2    S    
Cu16  O77   S    
C80   C97   S    
C12   C209  A    
C48   C124  S    
C51   O94   A    
C180  C189  A    
Cu11  O66   S    
C202  C211  A    
C6    O25   A    
C13   C134  A    
C120  C149  A    
Cu16  O86   S    
Cu4   O4    S    
C163  H17   S    
C64   C82   T    
C74   C92   T    
C39   O71   A    
C37   O66   A    
C192  O7    A    
C12   C21   S    
C121  C150  A    
C55   O48   A    
Cu3   Cu18  S    
C22   H46   S    
C198  C207  A    
Cu15  O81   S    
C1    O89   A    
C147  C156  S    
Cu19  O34   S    
C50   O96   A    
C9    C206  A    
C145  C154  S    
Br24  C214  S    
Cu23  O52   S    
Br4   C24   S    
C10   C172  A    
C168  H25   S    
C7    O43   A    
C63   C216  S    
Cu2   O2    S    
C152  H34   S    
C44   O82   A    
C5    O41   A    
C20   H42   S    
C218  O14   A    
C159  O4    A    
C131  C140  A    
Cu13  O68   S    
C54   O47   A    
C30   C174  S    
C127  C136  A    
C67   C85   T    
Cu24  O53   S    
C40   C209  S    
C156  H4    S    
Cu7   Cu22  S    
C15   C211  A    
Br22  C139  S    
Br9   C187  S    
C108  C111  T    
Br20  C137  S    
Br14  C191  S    
Cu17  O87   S    
C204  C212  A    
C112  O2    A    
C25   H50   S    
C165  H18   S    
C68   C142  A    
C117  C163  S    
C56   C183  S    
C135  C149  A    
Cu11  O69   S    
C57   C141  A    
Cu10  O90   S    
C115  C161  S    
Cu11  O95   S    
C45   O84   A    
C44   C90   S    
C143  C152  S    
