data_mof_unit_36860.cif
_audit_creation_date              2012-12-10T17:03:45-0500
_audit_creation_method            fapswitch 2.2
_symmetry_space_group_name_H-M    P1
_symmetry_Int_Tables_number       1
_space_group_crystal_system       triclinic
_cell_length_a                    10.035535
_cell_length_b                    10.723364
_cell_length_c                    13.135962
_cell_angle_alpha                 90.256967
_cell_angle_beta                  70.01226
_cell_angle_gamma                 90.586526
_cell_volume                      1328.40375777

loop_
_atom_site_label
_atom_site_type_symbol
_atom_type_description
_atom_site_fract_x
_atom_site_fract_y
_atom_site_fract_z
_atom_type_partial_charge
C1    C     C_R   0.502998 0.737135 0.495380 0.802705
C2    C     C_R   0.369654 0.485078 0.822014 -0.120967
C3    C     C_2   0.598915 0.067255 0.522736 -0.151138
C4    C     C_R   0.421142 0.493765 0.704056 0.851883
C5    C     C_2   0.485760 0.132252 0.525090 -0.256526
C6    C     C_2   0.588774 0.933428 0.528937 -0.290145
C7    C     C_2   0.515055 0.868919 0.477947 0.393431
C8    C     C_2   0.106764 0.442902 0.427290 -0.125047
C9    C     C_2   0.955423 0.438160 0.430218 -0.143284
C10   C     C_R   0.496699 0.262882 0.505843 0.905454
C11   C     C_R   0.578781 0.499581 0.295863 0.860989
C12   C     C_R   0.431735 0.476469 0.984688 0.086204
C13   C     C_R   0.767237 0.370061 0.020050 -0.202356
C14   C     C_R   0.625971 0.482170 0.179441 -0.060581
C15   C     C_R   0.237939 0.536685 0.881229 -0.193636
C16   C     C_R   0.200113 0.553149 0.992363 -0.149400
C17   C     C_R   0.297089 0.526810 0.043682 -0.198319
C18   C     C_3   0.495151 0.869306 0.308277 -0.299033
C19   C     C_R   0.459528 0.441103 0.876127 0.087175
C20   C     C_R   0.539736 0.459759 0.029693 0.084852
C21   C     C_R   0.662571 0.390071 0.973299 0.173614
C22   C     C_R   0.677565 0.339534 0.872223 -0.259102
C23   C     C_R   0.577299 0.364565 0.824078 -0.200926
C24   C     C_R   0.529827 0.512583 0.128786 -0.267514
C25   C     C_R   0.747593 0.414029 0.124193 -0.198033
H1    H     H_    0.822882 0.389547 0.163251 0.152190
H2    H     H_    0.444037 0.574068 0.170937 0.141798
H3    H     H_    0.166194 0.567982 0.841170 0.157656
H4    H     H_    0.262577 0.543533 0.129824 0.132519
H5    H     H_    0.097721 0.591687 0.038174 0.146615
H6    H     H_    0.592095 0.321999 0.746190 0.169584
H7    H     H_    0.699601 0.111366 0.515801 0.172239
H8    H     H_    0.437978 0.779471 0.310893 0.172748
H9    H     H_    0.612014 0.855146 0.275153 0.143283
H10   H     H_    0.467397 0.931449 0.251402 0.192687
H11   H     H_    0.382255 0.088598 0.541772 0.195282
H12   H     H_    0.645430 0.886931 0.575052 0.142315
H13   H     H_    0.185176 0.394770 0.361205 0.167181
H14   H     H_    0.073937 0.539648 0.564194 0.160273
H15   H     H_    0.932303 0.381453 0.369595 0.156787
H16   H     H_    0.874437 0.556749 0.553458 0.168660
H17   H     H_    0.768046 0.282398 0.829490 0.149552
H18   H     H_    0.860831 0.316178 0.978041 0.140070
N1    N     N_2   0.148270 0.498670 0.498870 -0.188952
N2    N     N_2   0.852610 0.498640 0.498840 -0.188062
O1    O     O_R   0.386950 0.680940 0.500020 -0.591333
O2    O     O_R   0.613110 0.680900 0.499980 -0.631708
O3    O     O_R   0.330780 0.500000 0.653640 -0.613211
O4    O     O_R   0.556930 0.499960 0.653610 -0.607202
O5    O     O_R   0.386890 0.319100 0.500020 -0.603158
O6    O     O_R   0.613050 0.319060 0.499980 -0.617577
O7    O     O_R   0.443070 0.500040 0.346390 -0.612568
O8    O     O_R   0.669220 0.500000 0.346360 -0.609464
O9    O     O_3   0.451941 0.926664 0.411307 -0.605042
Zn1   Zn    Zn3+2 0.349000 0.500030 0.500020 0.944534
Zn2   Zn    Zn3+2 0.651000 0.499970 0.499980 0.932006

loop_
_geom_bond_atom_site_label_1
_geom_bond_atom_site_label_2
_ccdc_geom_bond_type
O1    Zn1   S    
C12   C17   A    
O3    Zn1   S    
C19   C23   A    
O7    Zn1   S    
C9    N2    D    
C6    C7    D    
O4    Zn2   S    
C17   H4    S    
C18   H10   S    
C2    C4    S    
O5    Zn1   S    
C11   O8    A    
C24   H2    S    
C4    O4    A    
C3    C6    S    
C12   C20   A    
C2    C19   A    
C6    H12   S    
C13   C21   A    
C5    C10   S    
C21   C22   A    
C2    C15   A    
C18   H9    S    
N1    Zn1   S    
C13   C25   A    
C15   H3    S    
C22   H17   S    
C8    H13   S    
C10   O6    A    
C12   C19   A    
C18   H8    S    
C14   C25   A    
C3    H7    S    
C11   C14   S    
C1    O1    A    
C16   C17   A    
C18   O9    S    
H14   N1    S    
C16   H5    S    
C15   C16   A    
C10   O5    A    
C5    H11   S    
C8    N1    D    
C13   H18   S    
C20   C21   A    
O6    Zn2   S    
C4    O3    A    
O8    Zn2   S    
C14   C24   A    
H16   N2    S    
C22   C23   A    
C8    C9    S    
C11   O7    A    
C7    O9    S    
C25   H1    S    
C1    C7    S    
C9    H15   S    
C1    O2    A    
C20   C24   A    
N2    Zn2   S    
O2    Zn2   S    
C3    C5    D    
C23   H6    S    
