data_mof_unit_13156.cif
_audit_creation_date              2013-03-05T15:45:29-0500
_audit_creation_method            fapswitch 2.2
_symmetry_space_group_name_H-M    P1
_symmetry_Int_Tables_number       1
_space_group_crystal_system       triclinic
_cell_length_a                    20.675552
_cell_length_b                    7.169473
_cell_length_c                    20.356868
_cell_angle_alpha                 89.702024
_cell_angle_beta                  101.587732
_cell_angle_gamma                 89.689436
_cell_volume                      2955.94846019

loop_
_atom_site_label
_atom_site_type_symbol
_atom_site_description
_atom_site_fract_x
_atom_site_fract_y
_atom_site_fract_z
_atom_type_partial_charge
O1    O     O_R   0.423690 0.494470 0.435930 -0.584644
O2    O     O_R   0.576310 0.994470 0.564070 -0.599950
O3    O     O_R   0.556070 0.822310 0.435760 -0.575172
O4    O     O_R   0.443930 0.322310 0.564240 -0.562348
C1    C     C_R   0.575498 0.655347 0.420821 0.972673
C2    C     C_R   0.424177 0.155534 0.578836 0.963559
O5    O     O_R   0.422940 0.824080 0.428040 -0.615070
O6    O     O_R   0.577060 0.324080 0.571960 -0.575574
O7    O     O_R   0.442240 0.995960 0.556300 -0.591337
O8    O     O_R   0.557760 0.495960 0.443700 -0.582951
C3    C     C_R   0.399373 0.656381 0.410173 1.026426
C4    C     C_R   0.600788 0.154490 0.589416 1.025675
O9    O     O_3   0.506490 0.661310 0.542090 -0.279337
O10   O     O_3   0.493510 0.161310 0.457910 -0.299858
V1    V     V_3+5 0.498800 0.935560 0.492190 1.183660
V2    V     V_3+5 0.501200 0.435560 0.507810 1.226964
C5    C     C_R   0.838631 0.095163 0.857423 -0.318657
C6    C     C_R   0.160794 0.581057 0.143532 -0.317228
C7    C     C_R   0.662163 0.141387 0.641487 -0.322522
C8    C     C_R   0.338550 0.653789 0.356980 -0.329542
C9    C     C_R   0.781683 0.097090 0.668894 0.436355
C10   C     C_R   0.228404 0.781171 0.314947 0.411298
C11   C     C_R   0.722393 0.116898 0.621733 -0.329099
C12   C     C_R   0.286835 0.773545 0.363254 -0.358211
C13   C     C_R   0.660691 0.148460 0.710224 0.543973
C14   C     C_R   0.332458 0.539571 0.299962 0.533807
C15   C     C_R   0.720849 0.145088 0.759225 -0.199264
C16   C     C_R   0.276891 0.562217 0.245604 -0.179781
C17   C     C_R   0.781306 0.100151 0.738901 -0.193990
C18   C     C_R   0.223045 0.680832 0.253816 -0.178791
C19   C     C_R   0.839104 0.061209 0.789178 0.364087
C20   C     C_R   0.166172 0.695660 0.200547 0.341747
C21   C     C_R   0.780782 0.158520 0.875518 -0.271549
C22   C     C_R   0.214068 0.469126 0.136042 -0.207737
C23   C     C_R   0.722106 0.182079 0.828044 0.392504
C24   C     C_R   0.273068 0.467773 0.183572 0.376636
H1    H     H_    0.781389 0.191313 0.927581 0.193787
H2    H     H_    0.211159 0.390667 0.090154 0.189710
H3    H     H_    0.723431 0.115992 0.568699 0.185761
H4    H     H_    0.290622 0.856033 0.408356 0.184906
C25   C     C_3   0.237116 0.323134 0.794141 -0.133600
C26   C     C_3   0.761906 0.822402 0.205063 -0.129299
C27   C     C_3   0.265638 0.988582 0.811794 0.210026
C28   C     C_3   0.733616 0.489179 0.187268 0.198672
C29   C     C_3   0.307282 0.974623 0.757299 -0.458369
C30   C     C_3   0.692066 0.474082 0.241838 -0.436470
H5    H     H_    0.299450 0.050259 0.854978 0.171908
H6    H     H_    0.699697 0.553358 0.144199 0.173394
H7    H     H_    0.360508 0.965406 0.780872 0.229579
H8    H     H_    0.638856 0.466145 0.218314 0.245325
H9    H     H_    0.296312 0.842477 0.729491 0.266915
H10   H     H_    0.703437 0.341062 0.269716 0.264489
C31   C     C_1   0.378146 0.147393 0.623930 -0.228759
C32   C     C_1   0.620984 0.646446 0.375207 -0.198107
C33   C     C_3   0.205332 0.124608 0.789759 -0.275710
C34   C     C_3   0.793827 0.622913 0.209465 -0.270346
C35   C     C_3   0.290750 0.337003 0.746089 0.431696
C36   C     C_3   0.707913 0.835786 0.252742 0.421226
C37   C     C_3   0.291679 0.142740 0.707910 -0.036073
C38   C     C_3   0.707299 0.640720 0.291112 -0.050844
C39   C     C_3   0.220905 0.106825 0.667050 -0.639748
C40   C     C_3   0.778070 0.602554 0.332136 -0.638610
C41   C     C_3   0.168207 0.094037 0.713823 0.777806
C42   C     C_3   0.830773 0.588494 0.285426 0.772038
C43   C     C_1   0.339388 0.143233 0.661574 0.224719
C44   C     C_1   0.659562 0.641481 0.337402 0.239802
C45   C     C_1   0.158265 0.105973 0.836700 0.309672
C46   C     C_1   0.841142 0.604863 0.162757 0.309969
C47   C     C_1   0.120411 0.091556 0.875012 -0.109320
C48   C     C_1   0.879304 0.591156 0.124732 -0.122349
H11   H     H_    0.208402 0.214393 0.627185 0.240711
H12   H     H_    0.790450 0.709537 0.371664 0.244330
H13   H     H_    0.195475 0.418197 0.775374 0.226996
H14   H     H_    0.803434 0.915736 0.224173 0.226755
H15   H     H_    0.221595 0.974320 0.638958 0.220937
H16   H     H_    0.777447 0.469947 0.360643 0.218557
O11   O     O_R   0.942280 0.741210 0.056360 -0.565246
O12   O     O_R   0.057720 0.241210 0.943640 -0.579338
O13   O     O_R   0.077070 0.409690 0.071960 -0.580017
O14   O     O_R   0.922930 0.909690 0.928040 -0.579266
C49   C     C_R   0.100643 0.577624 0.089643 1.020725
C50   C     C_R   0.899150 0.079543 0.910664 1.036277
O15   O     O_R   0.943940 0.411580 0.064250 -0.581681
O16   O     O_R   0.056060 0.911580 0.935750 -0.571342
O17   O     O_R   0.923670 0.239840 0.935920 -0.589389
O18   O     O_R   0.076330 0.739840 0.064080 -0.569375
C51   C     C_R   0.924443 0.580231 0.078858 0.963022
C52   C     C_R   0.075585 0.080238 0.921194 0.986092
O19   O     O_3   0.993540 0.572620 0.957940 -0.276815
O20   O     O_3   0.006460 0.072620 0.042060 -0.257908
V3    V     V_3+5 0.001200 0.298330 0.007800 1.292051
V4    V     V_3+5 0.998800 0.798330 0.992200 1.305945
N1    N     N_R   0.896351 0.975007 0.772123 0.241830
O21   O     O_R   0.891067 0.814598 0.741968 -0.355357
O22   O     O_R   0.954542 0.047312 0.791896 -0.384626
N2    N     N_R   0.115039 0.830350 0.202444 0.252715
O23   O     O_R   0.127036 0.007069 0.196774 -0.354507
O24   O     O_R   0.054685 0.776254 0.200361 -0.341740
N3    N     N_R   0.114713 0.236419 0.695770 0.201723
O25   O     O_R   0.065482 0.237392 0.726803 -0.349139
O26   O     O_R   0.110954 0.346433 0.644060 -0.396855
N4    N     N_R   0.884580 0.727650 0.303537 0.200775
O27   O     O_R   0.934375 0.724855 0.273303 -0.355317
O28   O     O_R   0.888163 0.837356 0.354864 -0.392380
O29   O     O_3   0.139426 0.913207 0.708677 -0.577282
C53   C     C_3   0.098869 0.875711 0.645037 0.223442
H17   H     H_    0.122580 0.765025 0.620056 0.188465
H18   H     H_    0.090668 0.996281 0.609677 0.111601
C54   C     C_3   0.032267 0.804257 0.654852 -0.488136
H19   H     H_    0.006089 0.914225 0.677700 0.287112
H20   H     H_    0.001512 0.765389 0.605681 0.200003
H21   H     H_    0.039289 0.679544 0.688197 0.277990
O30   O     O_3   0.859084 0.406044 0.290502 -0.581847
C55   C     C_3   0.899519 0.364290 0.354087 0.254973
H22   H     H_    0.874548 0.258399 0.379937 0.187493
H23   H     H_    0.909876 0.484655 0.388764 0.110846
C56   C     C_3   0.964755 0.282035 0.343886 -0.549442
H24   H     H_    0.991963 0.386652 0.319740 0.258451
H25   H     H_    0.995532 0.240760 0.393048 0.204036
H26   H     H_    0.955602 0.156968 0.311438 0.290034
N5    N     N_R   0.272697 0.485168 0.694365 0.215924
O31   O     O_R   0.216987 0.575508 0.685698 -0.388297
O32   O     O_R   0.314818 0.533908 0.657787 -0.405223
N6    N     N_R   0.725358 0.982575 0.304291 0.216741
O33   O     O_R   0.781496 0.068968 0.314150 -0.387868
O34   O     O_R   0.682631 0.032544 0.340050 -0.405745
N7    N     N_R   0.841989 0.094272 0.644194 0.254720
O35   O     O_R   0.846709 0.991329 0.592883 -0.359456
O36   O     O_R   0.886196 0.221788 0.663427 -0.312594
N8    N     N_R   0.174185 0.883306 0.331556 0.258782
O37   O     O_R   0.122391 0.793395 0.341324 -0.312928
O38   O     O_R   0.182768 0.054504 0.352297 -0.378159
N9    N     N_R   0.666036 0.259156 0.850314 0.259704
O39   O     O_R   0.651109 0.199733 0.905890 -0.300294
O40   O     O_R   0.638414 0.411720 0.822831 -0.329919
N10   N     N_R   0.329515 0.380441 0.165316 0.252000
O41   O     O_R   0.322949 0.222185 0.133700 -0.354022
O42   O     O_R   0.382827 0.477096 0.166457 -0.269884
O43   O     O_3   0.599961 0.150109 0.728971 -0.608553
C57   C     C_3   0.583627 0.964348 0.742378 0.157494
H27   H     H_    0.622502 0.898120 0.781591 0.140895
H28   H     H_    0.576682 0.879068 0.695939 0.114905
C58   C     C_3   0.519429 0.963421 0.767894 -0.562918
H29   H     H_    0.479237 0.025226 0.729562 0.215950
H30   H     H_    0.506068 0.817949 0.778310 0.224540
H31   H     H_    0.525065 0.045446 0.814804 0.296904
O44   O     O_3   0.383400 0.416570 0.296171 -0.609311
C59   C     C_3   0.364724 0.233774 0.310666 0.219854
H32   H     H_    0.315303 0.195582 0.280919 0.104137
H33   H     H_    0.363589 0.219170 0.364842 0.122791
C60   C     C_3   0.415110 0.096341 0.293419 -0.581794
H34   H     H_    0.464364 0.120859 0.325542 0.243024
H35   H     H_    0.399671 0.951434 0.301026 0.178650
H36   H     H_    0.419066 0.113121 0.240165 0.286744
N11   N     N_R   0.356755 0.385960 0.785077 0.274345
O45   O     O_R   0.367580 0.555958 0.806529 -0.300116
O46   O     O_R   0.406809 0.271852 0.792138 -0.382596
N12   N     N_R   0.641845 0.886205 0.213411 0.271115
O47   O     O_R   0.630763 0.056633 0.191431 -0.284084
O48   O     O_R   0.591824 0.773821 0.207283 -0.346450
N13   N     N_R   0.260689 0.377098 0.865293 0.291811
O49   O     O_R   0.320637 0.344693 0.897864 -0.256730
O50   O     O_R   0.217329 0.428297 0.900150 -0.325270
N14   N     N_R   0.738678 0.879571 0.133892 0.291061
O51   O     O_R   0.678924 0.849357 0.100931 -0.260555
O52   O     O_R   0.782273 0.930749 0.099360 -0.324996
N15   N     N_R   0.249504 0.806556 0.836441 0.266853
O53   O     O_R   0.192189 0.731933 0.814572 -0.321355
O54   O     O_R   0.284414 0.748252 0.893352 -0.267273
N16   N     N_R   0.749876 0.307773 0.162389 0.266492
O55   O     O_R   0.807092 0.230367 0.184462 -0.323563
O56   O     O_R   0.715195 0.252834 0.105278 -0.262910

loop_
_geom_bond_atom_site_label_1
_geom_bond_atom_site_label_2
_geom_bond_distance
_ccdc_geom_bond_type
C58   H31   1.110498 S    
O15   C51   1.326486 A    
O11   V4    1.962643 S    
O4    V2    1.981938 S    
N1    O21   1.301210 A    
C25   N13   1.486420 S    
C15   C17   1.429045 A    
N8    O38   1.301507 A    
O44   C59   1.414548 S    
O1    C3    1.325387 A    
C59   C60   1.522752 S    
O2    C4    1.321409 A    
C23   N9    1.435837 S    
C2    O7    1.314721 A    
C55   H22   1.108616 S    
O17   V3    1.989437 S    
N14   O52   1.302566 A    
N15   O54   1.301408 A    
C39   H15   1.112883 S    
C42   N4    1.489961 S    
C35   N11   1.479345 S    
C8    C14   1.409229 A    
N14   O51   1.301867 A    
C13   O43   1.383758 S    
C57   H28   1.113805 S    
C54   H20   1.110429 S    
C21   C23   1.399750 A    
C26   N14   1.486561 S    
C35   C37   1.600361 S    
N11   O46   1.300303 A    
C53   H17   1.108516 S    
C29   H9    1.107166 S    
C36   C38   1.599668 S    
C58   H29   1.108009 S    
C30   H10   1.106883 S    
C6    C49   1.484338 S    
C33   C45   1.500534 S    
C38   C40   1.554257 S    
C5    C50   1.485016 S    
C60   H36   1.109406 S    
C39   C41   1.587156 S    
C25   C33   1.566394 S    
C41   N3    1.490287 S    
C26   C34   1.566480 S    
O20   V4    2.209532 S    
C8    C12   1.393844 A    
N2    O24   1.301339 A    
C40   C42   1.586738 S    
C60   H34   1.109573 S    
C57   C58   1.519427 S    
C9    N7    1.435115 S    
C31   C43   1.215307 T    
O13   V3    2.001331 S    
C49   O18   1.326025 A    
C39   H11   1.107792 S    
O5    V1    2.001447 S    
C38   C44   1.495250 S    
N1    O22   1.301014 A    
C10   N8    1.432869 S    
N12   O48   1.301005 A    
C26   C36   1.622511 S    
C14   O44   1.384290 S    
C5    C21   1.394777 A    
C48   C51   1.448885 S    
C24   N10   1.435599 S    
N13   O50   1.302567 A    
C28   C30   1.538478 S    
N13   O49   1.301907 A    
C3    C8    1.485842 S    
C37   C39   1.554584 S    
C26   H14   1.100495 S    
C25   H13   1.100225 S    
C1    C32   1.449671 S    
C59   H32   1.114427 S    
O14   C50   1.330019 A    
C36   N12   1.479836 S    
C54   H21   1.110856 S    
N15   O53   1.298506 A    
O13   C49   1.325560 A    
C15   C23   1.422312 A    
C34   C46   1.500462 S    
C9    C17   1.427006 A    
C21   H1    1.084438 S    
C33   C41   1.598578 S    
C45   C47   1.215215 T    
O14   V4    1.989093 S    
C7    C11   1.393850 A    
N7    O36   1.301351 A    
C10   C18   1.425901 A    
C27   C29   1.538171 S    
C28   C34   1.569947 S    
O16   V4    1.982075 S    
O5    C3    1.324755 A    
N3    O25   1.301350 A    
C29   H7    1.110144 S    
O6    C4    1.328270 A    
N2    O23   1.301339 A    
C34   C42   1.598441 S    
C40   H12   1.107746 S    
O1    V2    1.982893 S    
C57   H27   1.114839 S    
O19   V4    1.760695 S    
N4    O28   1.301523 A    
O2    V1    1.989824 S    
C6    C22   1.392700 A    
O11   C51   1.320899 A    
N5    O31   1.298626 A    
C47   C52   1.448955 S    
C27   C33   1.569888 S    
C20   N2    1.434351 S    
C9    C11   1.403017 A    
N9    O39   1.301305 A    
C5    C19   1.413623 A    
C10   C12   1.396774 A    
C56   H26   1.110813 S    
O4    C2    1.317244 A    
C6    C20   1.411972 A    
C2    C31   1.450120 S    
N7    O35   1.301333 A    
O18   V4    1.982551 S    
O3    V1    1.981572 S    
N10   O42   1.301487 A    
N6    O34   1.302405 A    
O30   C55   1.422158 S    
O12   C52   1.321277 A    
C58   H30   1.110578 S    
C29   C37   1.555810 S    
C42   O30   1.424902 S    
C40   H16   1.112736 S    
C30   C38   1.556373 S    
C22   H2    1.084394 S    
C36   N6    1.484042 S    
O16   C52   1.327600 A    
C59   H33   1.112220 S    
N10   O41   1.301593 A    
O3    C1    1.316958 A    
C55   H23   1.111956 S    
O43   C57   1.414350 S    
C32   C44   1.215035 T    
C27   N15   1.459890 S    
O12   V3    1.962834 S    
C13   C15   1.429556 A    
C50   O17   1.322821 A    
O15   V3    1.981714 S    
O29   C53   1.422472 S    
C30   H8    1.110043 S    
C14   C16   1.433922 A    
C56   H25   1.110457 S    
N8    O37   1.301351 A    
O7    V1    1.967684 S    
C25   C35   1.622475 S    
C1    O8    1.313340 A    
C17   C19   1.433719 A    
C19   N1    1.436265 S    
C54   H19   1.109590 S    
C37   C43   1.495518 S    
C18   C20   1.433559 A    
O20   V3    1.752926 S    
N12   O47   1.302225 A    
C53   H18   1.112203 S    
C11   H3    1.084175 S    
C4    C7    1.483230 S    
C16   C18   1.434058 A    
C12   H4    1.084497 S    
C22   C24   1.396394 A    
C60   H35   1.107691 S    
N4    O27   1.301374 A    
C7    C13   1.406877 A    
C28   N16   1.459991 S    
N5    O32   1.302360 A    
C55   C56   1.521616 S    
C41   O29   1.424995 S    
C35   N5    1.484105 S    
C16   C24   1.424326 A    
O6    V2    1.989195 S    
O19   V3    2.198582 S    
N16   O55   1.298481 A    
O9    V2    1.761110 S    
N11   O45   1.302106 A    
N9    O40   1.301560 A    
C46   C48   1.215206 T    
O10   V1    1.753332 S    
O8    V2    1.967484 S    
N16   O56   1.301480 A    
C56   H24   1.110165 S    
C27   H5    1.103432 S    
N3    O26   1.301563 A    
C28   H6    1.103403 S    
N6    O33   1.298694 A    
C53   C54   1.521729 S    
