data_mof_unit_40566.cif
_audit_creation_date              2012-12-10T20:47:08-0500
_audit_creation_method            fapswitch 2.2
_symmetry_space_group_name_H-M    P1
_symmetry_Int_Tables_number       1
_space_group_crystal_system       triclinic
_cell_length_a                    10.63232
_cell_length_b                    8.927262
_cell_length_c                    8.111569
_cell_angle_alpha                 90.174933
_cell_angle_beta                  88.199266
_cell_angle_gamma                 90.977303
_cell_volume                      769.435290942

loop_
_atom_site_label
_atom_site_type_symbol
_atom_type_description
_atom_site_fract_x
_atom_site_fract_y
_atom_site_fract_z
_atom_type_partial_charge
C1    C     C_R   0.499072 0.217998 0.499817 0.923773
C2    C     C_R   0.056944 0.495636 0.659448 -0.081903
C3    C     C_R   0.125970 0.449123 0.517105 -0.061872
C4    C     C_R   0.876458 0.517745 0.492991 -0.018546
C5    C     C_R   0.064167 0.412273 0.373519 -0.073895
C6    C     C_R   0.937851 0.440664 0.364038 -0.110529
C7    C     C_1   0.496110 0.065141 0.499640 -0.133010
C8    C     C_1   0.494563 0.934679 0.499939 -0.129903
C9    C     C_R   0.495458 0.781759 0.500162 0.960840
C10   C     C_R   0.260135 0.477424 0.504019 0.888780
C11   C     C_R   0.741395 0.512318 0.497619 0.890221
C12   C     C_R   0.101142 0.489803 0.822123 0.037612
C13   C     C_R   0.899916 0.672833 0.749279 0.005060
C14   C     C_R   0.054117 0.590009 0.940409 0.481285
C15   C     C_R   0.958006 0.686368 0.901298 0.542591
C16   C     C_R   0.942127 0.563602 0.633758 -0.085841
F1    F     F_    0.106266 0.600188 0.090169 -0.623987
F2    F     F_    0.920781 0.792215 0.012065 -0.588613
H1    H     H_    0.114369 0.364889 0.268255 0.202049
H2    H     H_    0.888697 0.403170 0.255974 0.168101
I1    I     I_    0.205775 0.304423 0.906057 -0.242892
I2    I     I_    0.784983 0.852604 0.682571 -0.218312
N1    N     N_1   0.500000 0.500000 0.073640 0.004942
N2    N     N_1   0.500000 0.500000 0.926360 0.005715
O1    O     O_R   0.500000 0.285350 0.636850 -0.603697
O2    O     O_R   0.500000 0.714650 0.636850 -0.601655
O3    O     O_R   0.500000 0.285360 0.363100 -0.620843
O4    O     O_R   0.500000 0.714640 0.363100 -0.599259
O5    O     O_R   0.316770 0.500000 0.636900 -0.611223
O6    O     O_R   0.683230 0.500000 0.636900 -0.610152
O7    O     O_R   0.316780 0.500000 0.363150 -0.579327
O8    O     O_R   0.683220 0.500000 0.363150 -0.622841
Zn1   Zn    Zn3+2 0.500000 0.500000 0.682780 1.049222
Zn2   Zn    Zn3+2 0.500000 0.500000 0.317220 1.058105

loop_
_geom_bond_atom_site_label_1
_geom_bond_atom_site_label_2
_ccdc_geom_bond_type
C4    C16   A    
C15   F2    S    
N1    N2    T    
C5    H1    S    
C6    H2    S    
O2    Zn1   S    
N2    Zn1   S    
C14   F1    S    
N1    Zn2   S    
C2    C12   A    
C2    C3    A    
O7    Zn2   S    
O4    Zn2   S    
C7    C8    T    
C3    C10   S    
C4    C11   S    
C1    O1    A    
C10   O5    A    
C13   I2    S    
C12   I1    S    
C12   C14   A    
C9    O2    A    
C11   O8    A    
C13   C15   A    
O3    Zn2   S    
C5    C6    A    
O5    Zn1   S    
C2    C16   A    
C11   O6    A    
C4    C6    A    
C13   C16   A    
C1    O3    A    
C14   C15   A    
O6    Zn1   S    
C1    C7    S    
C10   O7    A    
C9    O4    A    
O1    Zn1   S    
C8    C9    S    
C3    C5    A    
O8    Zn2   S    
