data_mof_unit_15978.cif
_audit_creation_date              2012-12-10T19:01:23-0500
_audit_creation_method            fapswitch 2.2
_symmetry_space_group_name_H-M    P1
_symmetry_Int_Tables_number       1
_space_group_crystal_system       triclinic
_cell_length_a                    9.562749
_cell_length_b                    10.799168
_cell_length_c                    15.374144
_cell_angle_alpha                 89.270721
_cell_angle_beta                  74.496974
_cell_angle_gamma                 90.33331
_cell_volume                      1529.72403871

loop_
_atom_site_label
_atom_site_type_symbol
_atom_type_description
_atom_site_fract_x
_atom_site_fract_y
_atom_site_fract_z
_atom_type_partial_charge
C1    C     C_R   0.001637 0.262583 0.495515 0.855856
C2    C     C_R   0.670270 0.465180 0.906168 -0.057015
C3    C     C_R   0.761195 0.404222 0.952197 -0.088414
C4    C     C_R   0.519084 0.475315 0.949738 0.106888
C5    C     C_R   0.468353 0.450480 0.043990 0.060837
C6    C     C_R   0.564743 0.397347 0.088968 -0.228676
C7    C     C_R   0.706848 0.371707 0.043248 -0.167596
C8    C     C_R   0.415660 0.500674 0.901271 -0.167257
C9    C     C_R   0.269811 0.515819 0.945330 -0.209815
C10   C     C_R   0.222031 0.506580 0.039080 0.164475
C11   C     C_R   0.321283 0.475352 0.089523 0.068754
C12   C     C_R   0.918901 0.497057 0.672548 0.883166
C13   C     C_R   0.075705 0.527748 0.083118 -0.140900
C14   C     C_R   0.027836 0.522636 0.177081 -0.208571
C15   C     C_R   0.271086 0.473996 0.184154 -0.251932
C16   C     C_R   0.121037 0.064144 0.503844 -0.023314
C17   C     C_R   0.008211 0.129675 0.483044 -0.154838
C18   C     C_R   0.905439 0.062982 0.449529 0.392842
C19   C     C_R   0.902622 0.933720 0.455892 -0.186097
C20   C     C_R   0.006115 0.870575 0.489044 -0.187402
C21   C     C_R   0.121328 0.936885 0.505201 -0.028549
C22   C     C_3   0.185512 0.931295 0.584063 0.202999
C23   C     C_R   0.000862 0.737547 0.498621 0.813563
C24   C     C_3   0.186933 0.072641 0.581758 0.162159
C25   C     C_R   0.589521 0.598584 0.464917 0.218220
C26   C     C_R   0.552772 0.408156 0.543021 0.471216
C27   C     C_R   0.405392 0.408820 0.542050 -0.085871
C28   C     C_R   0.442257 0.598598 0.465020 0.312565
C29   C     C_3   0.477219 0.647465 0.370481 -0.481832
C30   C     C_3   0.636025 0.646620 0.370173 -0.509058
C31   C     C_R   0.081585 0.499749 0.327474 0.772987
C32   C     C_R   0.875571 0.480454 0.771665 -0.326053
C33   C     C_R   0.126144 0.498182 0.228167 -0.050676
C34   C     C_R   0.905851 0.376779 0.906831 0.377810
C35   C     C_R   0.963726 0.415743 0.817329 0.259893
C36   C     C_R   0.735038 0.516674 0.819505 0.338212
Cu1   Cu    Cu3+1 0.140670 0.499980 0.500000 0.964909
Cu2   Cu    Cu3+1 0.859330 0.500020 0.500000 0.968363
H1    H     H_    0.774864 0.327312 0.080391 0.178852
H2    H     H_    0.998681 0.549894 0.044895 0.145119
H3    H     H_    0.818995 0.883232 0.435306 0.173072
H4    H     H_    0.111615 0.888323 0.645646 0.142731
H5    H     H_    0.296497 0.116954 0.563286 0.136137
H6    H     H_    0.333613 0.335054 0.575756 0.185311
H7    H     H_    0.451758 0.580500 0.322592 0.205455
H8    H     H_    0.344393 0.458448 0.225331 0.145757
H9    H     H_    0.434191 0.742209 0.366702 0.203365
H10   H     H_    0.700332 0.578221 0.322927 0.205490
H11   H     H_    0.684896 0.740822 0.365309 0.200329
H12   H     H_    0.915073 0.540868 0.209532 0.145836
H13   H     H_    0.194201 0.536176 0.905795 0.166257
H14   H     H_    0.531421 0.367366 0.158645 0.139419
H15   H     H_    0.443601 0.502452 0.828482 0.211970
N1    N     N_R   0.648210 0.500930 0.499430 -0.242252
N2    N     N_R   0.352300 0.500890 0.499430 -0.235896
O1    O     O_R   0.118810 0.319640 0.500000 -0.573615
O2    O     O_R   0.881230 0.319680 0.499990 -0.564982
O3    O     O_R   0.055580 0.499970 0.629840 -0.571172
O4    O     O_R   0.818000 0.500010 0.629830 -0.569482
O5    O     O_R   0.118770 0.680320 0.500010 -0.553659
O6    O     O_R   0.881190 0.680360 0.500000 -0.584334
O7    O     O_R   0.182000 0.499990 0.370170 -0.590610
O8    O     O_R   0.944420 0.500030 0.370160 -0.592209
O9    O     O_3   0.804961 0.119178 0.412750 -0.704907
H16   H     H_    0.849895 0.195468 0.380518 0.324493
O10   O     O_3   0.325251 0.879611 0.562486 -0.722688
H17   H     H_    0.382961 0.915811 0.504069 0.327378
O11   O     O_3   0.090211 0.122478 0.658063 -0.721625
H18   H     H_    0.143625 0.124362 0.705151 0.339083
O12   O     O_3   0.595660 0.309470 0.586518 -0.707840
H19   H     H_    0.665671 0.340439 0.617747 0.368191
O13   O     O_3   0.994076 0.315032 0.950895 -0.598008
C37   C     C_3   0.984004 0.186703 0.936640 0.091570
H20   H     H_    0.015993 0.165957 0.863209 0.182488
H21   H     H_    0.871150 0.152215 0.966925 0.129127
C38   C     C_3   0.086328 0.118282 0.981423 -0.315308
H22   H     H_    0.199226 0.152584 0.952121 0.239078
H23   H     H_    0.055124 0.137326 0.054980 0.221617
C39   C     C_3   0.080877 0.978758 0.967620 -0.940518
H24   H     H_    0.969427 0.942090 0.997952 0.259114
H25   H     H_    0.156497 0.931799 0.000717 0.263808
H26   H     H_    0.113948 0.957545 0.894457 0.258236
O14   O     O_3   0.105619 0.386189 0.776156 -0.696113
H27   H     H_    0.155880 0.464423 0.751126 0.332725
O15   O     O_3   0.662006 0.604271 0.781836 -0.609721
C40   C     C_3   0.725308 0.723247 0.782258 0.094162
H28   H     H_    0.694926 0.780692 0.729794 0.181718
H29   H     H_    0.846257 0.722041 0.763397 0.102267
C41   C     C_3   0.666843 0.785119 0.873930 -0.362819
H30   H     H_    0.546351 0.787451 0.891188 0.234558
H31   H     H_    0.699242 0.730805 0.927136 0.211993
C42   C     C_3   0.725924 0.917040 0.872382 -0.911605
H32   H     H_    0.846351 0.916636 0.855765 0.255268
H33   H     H_    0.683328 0.958936 0.939789 0.253228
H34   H     H_    0.691569 0.974699 0.821537 0.272317

loop_
_geom_bond_atom_site_label_1
_geom_bond_atom_site_label_2
_ccdc_geom_bond_type
C16   C21   A    
C37   H20   S    
C19   C20   A    
C9    H13   S    
C38   C39   S    
C4    C8    A    
C14   C33   A    
Cu1   O7    S    
C14   H12   S    
O15   C40   S    
C25   C28   A    
C26   C27   A    
Cu1   Cu2   S    
C29   H9    S    
C32   C36   A    
C30   H10   S    
C28   C29   S    
C1    O1    A    
C38   H23   S    
C5    C11   A    
C3    C7    A    
C5    C6    A    
C27   N2    A    
C18   C19   A    
C34   C35   A    
C22   O10   S    
C13   H2    S    
O11   H18   S    
Cu1   O1    S    
C11   C15   A    
C27   H6    S    
C8    C9    A    
C31   C33   S    
O12   H19   S    
C41   H31   S    
C9    C10   A    
Cu1   O3    S    
O13   C37   S    
Cu2   O6    S    
C12   O3    A    
O10   H17   S    
C16   C24   S    
C21   C22   S    
C12   C32   S    
C37   H21   S    
C31   O7    A    
C26   N1    A    
C28   N2    A    
C23   O5    A    
C32   C35   A    
C31   O8    A    
C25   N1    A    
C39   H25   S    
C35   O14   S    
C40   H28   S    
C16   C17   A    
C3    C34   A    
C40   C41   S    
C42   H34   S    
C39   H24   S    
C29   H7    S    
C2    C4    A    
C29   C30   S    
C1    O2    A    
Cu2   O2    S    
O14   H27   S    
Cu2   N1    S    
C20   C23   S    
C42   H33   S    
C17   C18   A    
C38   H22   S    
C41   C42   S    
C30   H11   S    
C26   O12   S    
C37   C38   S    
C22   C24   S    
C34   O13   S    
Cu2   O8    S    
C2    C36   A    
C25   C30   S    
C4    C5    A    
C10   C13   A    
C8    H15   S    
C39   H26   S    
C6    C7    A    
C36   O15   S    
C1    C17   S    
O9    H16   S    
C2    C3    A    
C18   O9    S    
C22   H4    S    
C42   H32   S    
C40   H29   S    
C12   O4    A    
Cu1   O5    S    
C10   C11   A    
C24   O11   S    
Cu2   O4    S    
Cu1   N2    S    
C23   O6    A    
C20   C21   A    
C24   H5    S    
C7    H1    S    
C15   H8    S    
C6    H14   S    
C41   H30   S    
C13   C14   A    
C15   C33   A    
C19   H3    S    
