data_mof_unit_31445.cif
_audit_creation_date              2012-12-10T19:48:29-0500
_audit_creation_method            fapswitch 2.2
_symmetry_space_group_name_H-M    P1
_symmetry_Int_Tables_number       1
_space_group_crystal_system       triclinic
_cell_length_a                    11.145957
_cell_length_b                    10.604177
_cell_length_c                    9.523773
_cell_angle_alpha                 89.563847
_cell_angle_beta                  91.972556
_cell_angle_gamma                 89.960495
_cell_volume                      1124.94984477

loop_
_atom_site_label
_atom_site_type_symbol
_atom_type_description
_atom_site_fract_x
_atom_site_fract_y
_atom_site_fract_z
_atom_type_partial_charge
C1    C     C_R   0.500045 0.259771 0.500499 0.786319
C2    C     C_R   0.499955 0.740228 0.499501 0.786309
C3    C     C_R   0.872308 0.493626 0.506168 -0.107629
C4    C     C_R   0.127692 0.506366 0.493832 -0.107596
C5    C     C_R   0.942735 0.545145 0.617147 0.023500
C6    C     C_R   0.057263 0.454838 0.382853 0.023499
C7    C     C_3   0.500908 0.039328 0.633906 -0.122146
C8    C     C_3   0.499092 0.960672 0.366093 -0.122150
C9    C     C_3   0.599094 0.957099 0.569247 -0.167296
C10   C     C_3   0.400905 0.042900 0.430753 -0.167299
C11   C     C_3   0.499954 0.877407 0.498545 0.009775
C12   C     C_3   0.500045 0.122593 0.501455 0.009775
C13   C     C_3   0.401766 0.957353 0.563087 -0.161135
C14   C     C_3   0.598234 0.042647 0.436912 -0.161131
C15   C     C_3   0.486289 0.612800 0.048011 -0.028090
C16   C     C_3   0.513711 0.387201 0.951987 -0.027970
C17   C     C_3   0.401234 0.544037 0.943730 -0.016691
C18   C     C_3   0.598767 0.455966 0.056270 -0.016623
C19   C     C_3   0.585716 0.568900 0.952496 -0.038520
C20   C     C_3   0.414283 0.431101 0.047503 -0.038480
C21   C     C_R   0.262262 0.503383 0.497670 0.777305
C22   C     C_R   0.737737 0.496622 0.502330 0.777314
C23   C     C_R   0.139027 0.573436 0.032586 0.266068
C24   C     C_R   0.860963 0.426604 0.967414 0.266037
C25   C     C_R   0.119916 0.567771 0.175206 -0.106802
C26   C     C_R   0.880075 0.432263 0.824799 -0.106740
C27   C     C_R   0.102711 0.451595 0.241823 0.078318
C28   C     C_R   0.897282 0.548420 0.758167 0.078302
C29   C     C_R   0.111228 0.339078 0.167498 -0.117780
C30   C     C_R   0.888783 0.660945 0.832474 -0.117851
C31   C     C_R   0.131216 0.343696 0.023741 -0.167085
C32   C     C_R   0.868818 0.656341 0.976237 -0.166971
C33   C     C_R   0.143288 0.460306 0.956092 -0.190563
C34   C     C_R   0.856712 0.539734 0.043900 -0.190591
C35   C     C_R   0.932285 0.443256 0.393214 -0.226977
C36   C     C_R   0.067714 0.556746 0.606785 -0.226942
Cu1   Cu    Cu3+1 0.500030 0.499990 0.643150 0.951502
Cu2   Cu    Cu3+1 0.499970 0.500010 0.356850 0.951506
H1    H     H_    0.160153 0.460017 0.845937 0.156767
H2    H     H_    0.839841 0.540032 0.154054 0.156734
H3    H     H_    0.328165 0.588180 0.881709 0.177270
H4    H     H_    0.671843 0.411829 0.118277 0.177251
H5    H     H_    0.474009 0.708561 0.091503 0.136046
H6    H     H_    0.525952 0.291414 0.908501 0.135995
H7    H     H_    0.649311 0.634767 0.904821 0.141420
H8    H     H_    0.350599 0.365278 0.095154 0.141402
H9    H     H_    0.111841 0.654764 0.233242 0.151901
H10   H     H_    0.888152 0.345273 0.766772 0.151920
H11   H     H_    0.097441 0.249148 0.219112 0.160560
H12   H     H_    0.902573 0.750856 0.780842 0.160561
H13   H     H_    0.136299 0.257290 0.964468 0.174381
H14   H     H_    0.863754 0.742753 0.035496 0.174386
H15   H     H_    0.880819 0.397782 0.310207 0.187113
H16   H     H_    0.119181 0.602311 0.689785 0.187091
H17   H     H_    0.680124 0.918711 0.625768 0.135768
H18   H     H_    0.319874 0.081285 0.374233 0.135770
H19   H     H_    0.501672 0.074071 0.743648 0.143757
H20   H     H_    0.498329 0.925928 0.256352 0.143759
H21   H     H_    0.321441 0.919182 0.614585 0.155839
H22   H     H_    0.678559 0.080818 0.385415 0.155837
N1    N     N_3   0.500090 0.499970 0.858290 -0.177257
N2    N     N_3   0.499910 0.500030 0.141710 -0.177241
O1    O     O_R   0.500060 0.316850 0.620870 -0.588027
O2    O     O_R   0.499940 0.683150 0.379130 -0.588029
O3    O     O_R   0.500000 0.316860 0.379090 -0.579232
O4    O     O_R   0.500000 0.683140 0.620910 -0.579242
O5    O     O_R   0.319670 0.500010 0.620890 -0.591902
O6    O     O_R   0.680330 0.499990 0.379110 -0.591907
O7    O     O_R   0.319620 0.500010 0.379110 -0.573634
O8    O     O_R   0.680380 0.499990 0.620890 -0.573629
Br1   Br    Br    0.155107 0.738753 0.949793 -0.652971
Br2   Br    Br    0.844901 0.261269 0.050179 -0.652928

loop_
_geom_bond_atom_site_label_1
_geom_bond_atom_site_label_2
_ccdc_geom_bond_type
C4    C36   A    
C35   H15   S    
C29   H11   S    
C15   C19   S    
C33   H1    S    
C34   H2    S    
C24   C26   A    
C18   H4    S    
C27   C29   A    
C5    C36   A    
C17   C20   S    
C6    C35   A    
C7    C9    S    
C18   C19   S    
C32   H14   S    
C17   N1    S    
C23   C33   A    
C1    O3    A    
C31   C33   A    
C9    H17   S    
C10   H18   S    
C16   H6    S    
C26   H10   S    
C8    H20   S    
C30   H12   S    
Cu2   O7    S    
Cu1   O8    S    
C21   O5    A    
C1    C12   S    
C2    C11   S    
C1    O1    A    
Cu1   O1    S    
C2    O2    A    
Cu2   O2    S    
C7    C12   S    
C23   Br1   S    
C4    C6    A    
C18   N2    S    
C2    O4    A    
C24   C34   A    
C21   O7    A    
C32   C34   A    
C9    C14   S    
Cu1   Cu2   S    
C5    C28   S    
C6    C27   S    
Cu2   O3    S    
C3    C35   A    
C16   C20   S    
Cu1   O4    S    
C9    C11   S    
C22   O6    A    
C10   C12   S    
C16   C18   S    
Cu2   O6    S    
C16   N1    S    
C24   Br2   S    
C15   C17   S    
C25   H9    S    
C8    C14   S    
C31   H13   S    
C3    C5    A    
C10   C13   S    
Cu1   N1    S    
C19   H7    S    
C13   H21   S    
C25   C27   A    
C14   H22   S    
C26   C28   A    
C28   C30   A    
C12   C14   S    
C15   H5    S    
C29   C31   A    
C30   C32   A    
C4    C21   S    
C11   C13   S    
C19   N1    S    
C8    C11   S    
Cu1   O5    S    
C15   N2    S    
C7    H19   S    
C23   C25   A    
C20   N2    S    
C17   H3    S    
C36   H16   S    
C7    C13   S    
C8    C10   S    
C3    C22   S    
C22   O8    A    
C20   H8    S    
Cu2   N2    S    
