data_mof_unit_39910.cif
_audit_creation_date              2012-12-11T17:01:23-0500
_audit_creation_method            fapswitch 2.2
_symmetry_space_group_name_H-M    P1
_symmetry_Int_Tables_number       1
_space_group_crystal_system       triclinic
_cell_length_a                    19.421621
_cell_length_b                    7.102224
_cell_length_c                    17.602597
_cell_angle_alpha                 90.000086
_cell_angle_beta                  108.622201
_cell_angle_gamma                 90.000148
_cell_volume                      2300.92332597

loop_
_atom_site_label
_atom_site_type_symbol
_atom_type_description
_atom_site_fract_x
_atom_site_fract_y
_atom_site_fract_z
_atom_type_partial_charge
O1    O     O_R   0.413720 0.494330 0.415730 -0.536382
O2    O     O_R   0.586280 0.994330 0.584270 -0.536381
O3    O     O_R   0.560210 0.819300 0.430070 -0.543320
O4    O     O_R   0.439790 0.319300 0.569930 -0.543321
C1    C     C_R   0.581632 0.655513 0.414797 0.717875
C2    C     C_R   0.418368 0.155512 0.585202 0.717875
O5    O     O_R   0.412670 0.823730 0.406310 -0.542861
O6    O     O_R   0.587330 0.323730 0.593690 -0.542861
O7    O     O_R   0.437690 0.998790 0.560340 -0.539765
O8    O     O_R   0.562310 0.498790 0.439660 -0.539764
C3    C     C_R   0.385364 0.655159 0.383421 0.693036
C4    C     C_R   0.614635 0.155159 0.616579 0.693036
O9    O     O_3   0.508380 0.662350 0.550560 -0.375922
O10   O     O_3   0.491620 0.162350 0.449440 -0.375922
V1    V     V_3+5 0.498450 0.935370 0.490620 1.389136
V2    V     V_3+5 0.501550 0.435370 0.509380 1.389135
C5    C     C_R   0.731066 0.990811 0.693348 0.108464
C6    C     C_R   0.268934 0.490811 0.306652 0.108464
C7    C     C_R   0.684795 0.146955 0.682860 -0.110409
C8    C     C_R   0.315205 0.646955 0.317140 -0.110409
C9    C     C_R   0.709331 0.299805 0.735631 -0.183928
C10   C     C_R   0.290669 0.799806 0.264369 -0.183927
C11   C     C_R   0.774828 0.288674 0.800005 -0.159463
C12   C     C_R   0.225172 0.788675 0.199995 -0.159464
H1    H     H_    0.789950 0.405665 0.841337 0.136779
H2    H     H_    0.210050 0.905667 0.158664 0.136780
C13   C     C_R   0.817783 0.124001 0.813823 -0.105040
C14   C     C_R   0.182216 0.624002 0.186177 -0.105040
C15   C     C_R   0.795682 0.979439 0.757131 0.097655
C16   C     C_R   0.204318 0.479438 0.242869 0.097656
C17   C     C_3   0.785357 0.774912 0.768956 -0.416307
C18   C     C_3   0.214642 0.274912 0.231043 -0.416306
C19   C     C_3   0.715019 0.787194 0.699217 -0.400272
C20   C     C_3   0.284980 0.287193 0.300781 -0.400274
H3    H     H_    0.665662 0.764286 0.717080 0.173845
H4    H     H_    0.334337 0.264286 0.282919 0.173845
H5    H     H_    0.716624 0.706761 0.645625 0.169378
H6    H     H_    0.283375 0.206760 0.354374 0.169378
C21   C     C_R   0.323866 0.301583 0.635830 -0.221383
C22   C     C_R   0.676137 0.801580 0.364175 -0.221379
C23   C     C_R   0.369567 0.148256 0.634860 -0.082370
C24   C     C_R   0.630433 0.648256 0.365140 -0.082370
C25   C     C_R   0.368669 0.988984 0.681838 -0.222362
C26   C     C_R   0.631326 0.488989 0.318157 -0.222360
C27   C     C_R   0.323620 0.983140 0.730243 0.093231
C28   C     C_R   0.676377 0.483144 0.269753 0.093232
C29   C     C_R   0.277216 0.136063 0.730269 0.063073
C30   C     C_R   0.722783 0.636063 0.269731 0.063072
C31   C     C_R   0.277141 0.295553 0.682408 0.090143
C32   C     C_R   0.722861 0.795551 0.317594 0.090144
C33   C     C_R   0.324505 0.826993 0.778916 -0.190429
C34   C     C_R   0.675492 0.326998 0.221081 -0.190431
C35   C     C_R   0.279556 0.820970 0.826870 -0.178336
C36   C     C_R   0.720442 0.320974 0.173128 -0.178342
C37   C     C_R   0.231704 0.970887 0.826966 0.042796
C38   C     C_R   0.768295 0.470887 0.173033 0.042796
C39   C     C_R   0.230857 0.129542 0.778117 0.044728
C40   C     C_R   0.769142 0.629541 0.221882 0.044729
C41   C     C_R   0.184009 0.282223 0.777000 0.089485
C42   C     C_R   0.815990 0.782223 0.222999 0.089484
C43   C     C_R   0.184060 0.439385 0.728637 -0.184299
C44   C     C_R   0.815939 0.939388 0.271363 -0.184299
C45   C     C_R   0.230264 0.446120 0.681893 -0.189630
C46   C     C_R   0.769738 0.946120 0.318108 -0.189627
C47   C     C_R   0.184892 0.965901 0.874447 -0.091715
C48   C     C_R   0.815108 0.465899 0.125554 -0.091715
C49   C     C_R   0.136062 0.117755 0.871379 -0.122316
C50   C     C_R   0.863938 0.617754 0.128621 -0.122317
C51   C     C_R   0.137325 0.275288 0.823458 -0.204409
C52   C     C_R   0.862674 0.775290 0.176541 -0.204407
H7    H     H_    0.404065 0.870868 0.681871 0.128069
H8    H     H_    0.595926 0.370877 0.318120 0.128067
H9    H     H_    0.100797 0.392173 0.821206 0.137530
H10   H     H_    0.899202 0.892176 0.178792 0.137530
H11   H     H_    0.148468 0.557813 0.727169 0.130928
H12   H     H_    0.851530 0.057820 0.272828 0.130928
O11   O     O_R   0.937800 0.775460 0.060470 -0.531624
O12   O     O_R   0.062200 0.275460 0.939530 -0.531624
O13   O     O_R   0.087350 0.441340 0.093710 -0.540434
O14   O     O_R   0.912650 0.941340 0.906290 -0.540434
C53   C     C_R   0.114830 0.610351 0.116324 0.725480
C54   C     C_R   0.885169 0.110351 0.883676 0.725480
O15   O     O_R   0.939820 0.446010 0.069950 -0.538813
O16   O     O_R   0.060180 0.946010 0.930050 -0.538813
O17   O     O_R   0.913690 0.271230 0.915700 -0.539978
O18   O     O_R   0.086310 0.771230 0.084300 -0.539978
C55   C     C_R   0.916713 0.613461 0.082739 0.698799
C56   C     C_R   0.083287 0.113461 0.917261 0.698798
O19   O     O_3   0.991670 0.603050 0.949510 -0.374918
O20   O     O_3   0.008330 0.103050 0.050490 -0.374918
V3    V     V_3+5 0.001550 0.329940 0.009370 1.441078
V4    V     V_3+5 0.998450 0.829940 0.990630 1.441079
H13   H     H_    0.676075 0.424292 0.729715 0.141129
H14   H     H_    0.323925 0.924293 0.270286 0.141129
H15   H     H_    0.282183 0.696466 0.863137 0.148951
H16   H     H_    0.717816 0.196471 0.136862 0.148952
C57   C     C_1   0.189196 0.808039 0.928184 0.293617
N1    N     N_1   0.192845 0.681830 0.970905 -0.369885
C58   C     C_1   0.810805 0.308036 0.071817 0.293617
N2    N     N_1   0.807156 0.181825 0.029097 -0.369884
H17   H     H_    0.229377 0.569480 0.645363 0.133876
H18   H     H_    0.770623 0.069483 0.354638 0.133875
H19   H     H_    0.776740 0.745367 0.827298 0.174749
H20   H     H_    0.223259 0.245367 0.172701 0.174749
H21   H     H_    0.827470 0.687067 0.755641 0.173709
H22   H     H_    0.172529 0.187067 0.244358 0.173709
H23   H     H_    0.323888 0.424645 0.599372 0.124045
H24   H     H_    0.676119 0.924638 0.400637 0.124042
H25   H     H_    0.359967 0.708580 0.779816 0.134989
H26   H     H_    0.640029 0.208588 0.220180 0.134990

loop_
_geom_bond_atom_site_label_1
_geom_bond_atom_site_label_2
_ccdc_geom_bond_type
O15   C55   A    
C1    C24   S    
O11   V4    S    
O4    V2    S    
C31   C45   A    
C13   C15   A    
C5    C15   A    
C48   C50   A    
O1    C3    A    
C45   H17   S    
O2    C4    A    
C2    O7    A    
C57   N1    T    
O17   V3    S    
C29   C31   A    
C43   H11   S    
C46   H18   S    
C49   C56   S    
C5    C19   S    
C7    C9    A    
C12   H2    S    
C38   C48   A    
C39   C41   A    
C35   H15   S    
C27   C33   A    
C40   C42   A    
C28   C34   A    
C32   C46   A    
C6    C8    A    
C42   C44   A    
C10   H14   S    
C27   C29   A    
C43   C45   A    
C44   C46   A    
C5    C7    A    
C26   C28   A    
C47   C49   A    
C2    C23   S    
C52   H10   S    
C17   C19   S    
C51   H9    S    
C6    C16   A    
C11   C13   A    
O19   V3    S    
O13   V3    S    
C53   O18   A    
C22   H24   S    
O5    V1    S    
C33   H25   S    
C18   H22   S    
C23   C25   A    
C44   H12   S    
C42   C52   A    
C24   C26   A    
C37   C47   A    
C34   C36   A    
C28   C30   A    
C35   C37   A    
C36   C38   A    
C3    C8    S    
C41   C43   A    
C12   C14   A    
O14   C54   A    
O13   C53   A    
C19   H5    S    
C49   C51   A    
C18   C20   S    
C48   C58   S    
O14   V4    S    
O5    C3    A    
C29   C39   A    
C25   C27   A    
O20   V4    S    
C58   N2    T    
C34   H26   S    
O6    C4    A    
C18   H20   S    
O1    V2    S    
O19   V4    S    
O2    V1    S    
C6    C20   S    
O11   C55   A    
C41   C51   A    
O4    C2    A    
C21   C31   A    
C8    C10   A    
C9    C11   A    
C10   C12   A    
O3    V1    S    
O12   C56   A    
C50   C55   S    
C25   H7    S    
C14   C53   S    
C20   H6    S    
C36   H16   S    
C13   C54   S    
O16   C56   A    
C22   C24   A    
O3    C1    A    
C21   H23   S    
C30   C40   A    
O12   V3    S    
C54   O17   A    
O15   V3    S    
C37   C39   A    
O7    V1    S    
C47   C57   S    
C14   C16   A    
C15   C17   S    
O8    V2    S    
C16   C18   S    
O20   V3    S    
C9    H13   S    
C22   C32   A    
C4    C7    S    
C30   C32   A    
C19   H3    S    
C38   C40   A    
C26   H8    S    
C20   H4    S    
C11   H1    S    
C1    O8    A    
C21   C23   A    
O6    V2    S    
C17   H21   S    
O9    V2    S    
C50   C52   A    
O10   V1    S    
O18   V4    S    
O16   V4    S    
C33   C35   A    
C17   H19   S    
