data_mof_unit_54711.cif
_audit_creation_date              2012-12-11T20:19:43-0500
_audit_creation_method            fapswitch 2.2
_symmetry_space_group_name_H-M    P1
_symmetry_Int_Tables_number       1
_space_group_crystal_system       triclinic
_cell_length_a                    8.235399
_cell_length_b                    17.374569
_cell_length_c                    22.856751
_cell_angle_alpha                 99.649607
_cell_angle_beta                  89.494303
_cell_angle_gamma                 98.393318
_cell_volume                      3189.27571913

loop_
_atom_site_label
_atom_site_type_symbol
_atom_type_description
_atom_site_fract_x
_atom_site_fract_y
_atom_site_fract_z
_atom_type_partial_charge
Ba1   Ba    Ba6+2 0.857050 0.537370 0.474190 1.653002
Ba2   Ba    Ba6+2 0.332790 0.462700 0.525820 1.644152
C1    C     C_3   0.689287 0.822914 0.325436 -0.364878
C2    C     C_R   0.116116 0.564942 0.941935 -0.027842
C3    C     C_R   0.070031 0.560501 0.881555 0.597261
C4    C     C_3   0.124780 0.724544 0.322865 0.343838
C5    C     C_R   0.935274 0.427785 0.878934 0.570840
C6    C     C_R   0.979852 0.430464 0.938873 -0.015681
C7    C     C_R   0.070597 0.499400 0.970565 -0.052697
C8    C     C_R   0.206445 0.633611 0.974580 -0.074799
C9    C     C_R   0.248979 0.637237 0.034299 -0.075391
C10   C     C_R   0.204230 0.572011 0.063361 -0.020236
C11   C     C_R   0.115960 0.502648 0.031158 -0.052029
C12   C     C_3   0.656283 0.742719 0.345118 0.365755
C13   C     C_R   0.935595 0.365085 0.967810 -0.074268
C14   C     C_R   0.982196 0.367831 0.026824 -0.076397
C15   C     C_R   0.073106 0.436361 0.059220 -0.024783
C16   C     C_3   0.106181 0.763321 0.268838 -0.364796
C17   C     C_R   0.122782 0.439647 0.118871 0.588993
C18   C     C_R   0.245300 0.574839 0.123878 0.581667
C19   C     C_2   0.782817 0.452554 0.766566 -0.085205
C20   C     C_3   0.755984 0.424951 0.700793 -0.050489
C21   C     C_1   0.006674 0.513881 0.685911 0.041040
C22   C     C_2   0.053995 0.516770 0.742291 -0.105790
C23   C     C_3   0.478690 0.345647 0.342636 0.297529
C24   C     C_2   0.934063 0.487620 0.787294 0.188060
C25   C     C_R   0.413639 0.544950 0.234476 -0.099968
C26   C     C_R   0.457613 0.549986 0.294340 -0.026323
C27   C     C_R   0.188181 0.483872 0.314013 0.032847
C28   C     C_3   0.224080 0.708852 0.610455 0.295849
C29   C     C_R   0.141096 0.480814 0.254350 -0.091633
C30   C     C_R   0.252992 0.512011 0.213593 0.203531
C31   C     C_2   0.864963 0.474089 0.663716 -0.292866
C32   C     C_2   0.442906 0.719789 0.483738 -0.205352
C33   C     C_3   0.371919 0.768580 0.444396 -0.056439
C34   C     C_3   0.468931 0.324278 0.275366 -0.364660
C35   C     C_2   0.425542 0.855501 0.462535 -0.031623
C36   C     C_2   0.560003 0.882366 0.497781 0.023419
C37   C     C_2   0.642234 0.824581 0.523897 -0.143092
C38   C     C_1   0.576423 0.749306 0.516553 0.061746
C39   C     C_R   0.797786 0.136262 0.527724 -0.127149
C40   C     C_3   0.202318 0.795336 0.628671 0.178868
C41   C     C_R   0.853989 0.217227 0.537016 0.013036
C42   C     C_R   0.618702 0.239289 0.482784 0.038260
C43   C     C_R   0.562548 0.158454 0.472685 -0.113455
C44   C     C_R   0.650120 0.106431 0.495817 0.014187
C45   C     C_3   0.052305 0.294096 0.679859 0.338992
C46   C     C_2   0.623809 0.967780 0.513546 -0.066431
C47   C     C_2   0.591957 0.021018 0.480308 -0.069198
C48   C     C_R   0.760523 0.268771 0.516948 -0.283785
C49   C     C_3   0.964328 0.295727 0.394780 0.310119
C50   C     C_3   0.940555 0.206589 0.375982 -0.379600
C51   C     C_3   0.711687 0.638003 0.654855 0.294866
C52   C     C_3   0.720922 0.658427 0.722202 -0.360313
C53   C     C_3   0.068744 0.271317 0.740674 -0.336662
C54   C     C_3   0.506446 0.253676 0.652404 0.362971
C55   C     C_3   0.460267 0.174796 0.673491 -0.359376
C56   C     C_R   0.344252 0.520716 0.333664 -0.301848
H1    H     H_    0.708756 0.748585 0.390613 0.060393
H2    H     H_    0.614763 0.586406 0.642331 0.077707
H3    H     H_    0.822718 0.845213 0.327632 0.140016
H4    H     H_    0.821277 0.708089 0.736110 0.129879
H5    H     H_    0.745571 0.606876 0.741484 0.071717
H6    H     H_    0.602518 0.675604 0.739538 0.134786
H7    H     H_    0.521785 0.725104 0.345314 -0.068443
H8    H     H_    0.625442 0.865893 0.355159 0.060295
H9    H     H_    0.356719 0.358823 0.358857 0.020501
H10   H     H_    0.572013 0.398984 0.354503 0.057513
H11   H     H_    0.374872 0.271658 0.261954 0.136930
H12   H     H_    0.249748 0.817593 0.675002 0.046509
H13   H     H_    0.434586 0.374204 0.255989 0.069516
H14   H     H_    0.589987 0.311237 0.257834 0.131759
H15   H     H_    0.643148 0.818224 0.279345 0.127555
H16   H     H_    0.163475 0.731029 0.229977 0.136249
H17   H     H_    0.133170 0.351135 0.679078 0.083960
H18   H     H_    0.922203 0.300922 0.673018 -0.052772
H19   H     H_    0.194080 0.256943 0.747456 0.151383
H20   H     H_    0.049268 0.321913 0.775553 0.127161
H21   H     H_    0.975632 0.219105 0.744935 0.118193
H22   H     H_    0.642641 0.264998 0.650488 -0.069533
H23   H     H_    0.069038 0.800167 0.628223 0.106002
H24   H     H_    0.454220 0.248815 0.607004 0.079428
H25   H     H_    0.514236 0.128054 0.643596 0.074147
H26   H     H_    0.325028 0.158274 0.673066 0.153051
H27   H     H_    0.055672 0.663770 0.314873 0.085142
H28   H     H_    0.508507 0.178654 0.719329 0.121241
H29   H     H_    0.945729 0.316013 0.047122 0.124345
H30   H     H_    0.864931 0.311152 0.944796 0.124444
H31   H     H_    0.318129 0.691392 0.057603 0.121669
H32   H     H_    0.504775 0.566388 0.204351 0.116411
H33   H     H_    0.244466 0.685067 0.954065 0.123143
H34   H     H_    0.845877 0.314779 0.408464 0.001864
H35   H     H_    0.180327 0.536354 0.755141 0.136416
H36   H     H_    0.687933 0.433687 0.796488 0.124906
H37   H     H_    0.018265 0.453768 0.239789 0.130891
H38   H     H_    0.380623 0.523354 0.379463 0.080471
H39   H     H_    0.256948 0.720802 0.327456 -0.066159
H40   H     H_    0.840853 0.462610 0.616317 0.082960
H41   H     H_    0.518264 0.002253 0.439899 0.063718
H42   H     H_    0.752384 0.845503 0.551142 0.088857
H43   H     H_    0.873992 0.097026 0.542097 0.079194
H44   H     H_    0.699568 0.986728 0.553512 0.071911
H45   H     H_    0.052623 0.311960 0.432679 0.074867
H46   H     H_    0.356478 0.894937 0.444618 0.058896
H47   H     H_    0.453512 0.135926 0.445330 0.075762
H48   H     H_    0.396051 0.657212 0.477745 0.062254
H49   H     H_    0.805593 0.331321 0.523347 0.065752
H50   H     H_    0.975083 0.762185 0.257961 0.150212
H51   H     H_    0.167874 0.825463 0.277465 0.109699
H52   H     H_    0.356024 0.704330 0.605298 -0.008378
H53   H     H_    0.157301 0.685098 0.567751 0.066098
H54   H     H_    0.394218 0.861199 0.605658 0.290392
H55   H     H_    0.846319 0.188469 0.339895 0.130885
H56   H     H_    0.899931 0.176770 0.413824 0.063626
H57   H     H_    0.058282 0.187409 0.359883 0.127334
H58   H     H_    0.831604 0.622997 0.638332 0.008944
N1    N     N_R   0.980203 0.492332 0.850151 -0.422243
N2    N     N_R   0.205781 0.508870 0.151342 -0.422770
O1    O     O_2   0.889310 0.456460 0.358460 -0.458033
O2    O     O_2   0.189677 0.219278 0.526126 -0.480699
O3    O     O_3   0.099831 0.234706 0.636466 -0.598805
O4    O     O_3   0.129890 0.457280 0.429550 -0.494434
O5    O     O_3   0.576930 0.595420 0.534060 -0.493079
O6    O     O_2   0.340570 0.306450 0.462190 -0.459515
O7    O     O_3   0.522810 0.281908 0.366297 -0.639297
O8    O     O_2   0.432748 0.465901 0.707538 -0.496894
O9    O     O_3   0.443198 0.313590 0.691591 -0.592678
O10   O     O_2   0.108382 0.617836 0.857330 -0.595569
O11   O     O_2   0.857283 0.367048 0.852259 -0.618064
O12   O     O_3   0.675225 0.703510 0.631994 -0.638881
O13   O     O_2   0.094254 0.380215 0.141461 -0.598599
O14   O     O_2   0.314999 0.636541 0.152164 -0.615397
O15   O     O_3   0.674650 0.600620 0.400940 -0.487417
O16   O     O_2   0.793957 0.544016 0.295332 -0.490071
O17   O     O_3   0.022499 0.330249 0.346233 -0.627327
O18   O     O_3   0.728704 0.687259 0.305543 -0.593197
O19   O     O_2   0.849130 0.693580 0.537840 -0.465081
O20   O     O_3   0.093680 0.641380 0.431770 -0.490226
O21   O     O_2   0.054855 0.783605 0.489829 -0.433717
O22   O     O_3   0.281980 0.841273 0.589138 -0.735120
O23   O     O_3   0.064255 0.769336 0.373359 -0.596543
O24   O     O_2   0.300380 0.543560 0.641570 -0.458724
O25   O     O_3   0.059830 0.542790 0.570460 -0.495582
O26   O     O_3   0.515070 0.399440 0.599070 -0.477364
O27   O     O_3   0.163399 0.669426 0.656403 -0.661174
O28   O     O_3   0.612780 0.404640 0.465950 -0.481632
O29   O     O_3   0.096040 0.358680 0.568240 -0.494551
P1    P     P_3+3 0.055640 0.433080 0.366120 0.995358
P2    P     P_3+3 0.671420 0.681950 0.554390 0.975104
P3    P     P_3+3 0.144959 0.742764 0.436446 0.990417
P4    P     P_3+3 0.134070 0.566990 0.633890 0.988814
P5    P     P_3+3 0.060606 0.256694 0.566593 0.949346
P6    P     P_3+3 0.663648 0.593755 0.323529 0.957415
P7    P     P_3+3 0.524659 0.305874 0.443791 0.950927
P8    P     P_3+3 0.536828 0.404613 0.675529 0.947860

loop_
_geom_bond_atom_site_label_1
_geom_bond_atom_site_label_2
_ccdc_geom_bond_type
C19   C24   D    
O5    P2    S    
O6    P7    D    
Ba2   O26   S    
H54   O22   S    
C23   H9    S    
C16   H51   S    
C26   C56   A    
C27   P1    S    
C18   N2    Am   
C5    C6    A    
C43   C44   A    
C54   C55   S    
C12   H1    S    
C40   H23   S    
C44   C47   S    
C4    H27   S    
C12   O18   S    
C28   H52   S    
C32   C38   D    
C33   C35   S    
C22   C24   S    
C45   H18   S    
Ba1   Ba2   S    
C36   C37   S    
C53   H19   S    
C45   O3    S    
O16   P6    D    
C52   H5    S    
C1    H3    S    
C49   H45   S    
C13   C14   A    
C40   H12   S    
C55   H28   S    
C25   H32   S    
C32   C33   S    
Ba1   O1    S    
C54   O9    S    
C56   H38   S    
Ba1   O4    S    
C7    C11   A    
C49   O17   S    
C31   H40   S    
C17   N2    Am   
C6    C7    A    
C21   C31   D    
C14   H29   S    
C21   C22   D    
C24   N1    S    
Ba1   P2    S    
C33   P3    S    
O4    P1    S    
C50   H55   S    
C36   C46   S    
C51   H58   S    
O8    P8    D    
O25   P4    S    
C16   H16   S    
C19   C20   S    
Ba2   O25   S    
C39   C41   A    
O19   P2    D    
Ba1   O28   S    
C23   H10   S    
C18   O14   D    
Ba1   O15   S    
C51   H2    S    
C43   H47   S    
O23   P3    S    
C20   P8    S    
Ba2   O4    S    
C17   O13   D    
C4    C16   S    
O2    P5    D    
C40   O22   S    
C49   C50   S    
C32   H48   S    
C4    H39   S    
O9    P8    S    
C37   C38   D    
C53   H20   S    
C14   C15   A    
C52   H4    S    
O1    P1    D    
C51   C52   S    
O20   P3    S    
C3    N1    Am   
O24   P4    D    
Ba1   O5    S    
C35   C36   D    
Ba1   O25   S    
C49   H34   S    
C47   H41   S    
C53   H21   S    
C9    H31   S    
C29   C30   A    
O28   P7    S    
C39   C44   A    
C46   H44   S    
C10   C18   A    
O12   P2    S    
C55   H25   S    
C55   H26   S    
C27   C56   A    
C4    O23   S    
O27   P4    S    
C1    C12   S    
C46   C47   D    
C8    H33   S    
C6    C13   A    
Ba2   O6    S    
C48   H49   S    
Ba2   O24   S    
O15   P6    S    
C1    H8    S    
C2    C8    A    
Ba1   O19   S    
O7    P7    S    
C28   O27   S    
C45   C53   S    
C50   H57   S    
C42   C48   A    
Ba2   P4    S    
C20   C31   S    
C21   P4    S    
C25   C30   A    
C42   C43   A    
C30   N2    S    
C2    C3    A    
C35   H46   S    
C9    C10   A    
C34   H13   S    
C41   C48   A    
C54   H24   S    
C50   H56   S    
Ba2   O28   S    
O21   P3    D    
C5    N1    Am   
C54   H22   S    
O3    P5    S    
C11   C15   A    
C28   H53   S    
C42   P7    S    
O26   P8    S    
O29   P5    S    
Ba2   O29   S    
C45   H17   S    
C27   C29   A    
C22   H35   S    
O18   P6    S    
C37   H42   S    
C26   P6    S    
C52   H6    S    
C29   H37   S    
C3    O10   D    
C23   O7    S    
C15   C17   A    
C12   H7    S    
C39   H43   S    
C38   P2    S    
C34   H11   S    
C1    H15   S    
C16   H50   S    
C5    O11   D    
C8    C9    A    
Ba1   O20   S    
C23   C34   S    
C10   C11   A    
O17   P1    S    
C19   H36   S    
C25   C26   A    
C28   C40   S    
Ba1   P1    S    
C51   O12   S    
C2    C7    A    
Ba2   O5    S    
C41   P5    S    
C34   H14   S    
C13   H30   S    
