data_mof_unit_61134.cif
_audit_creation_date              2012-12-10T18:00:47-0500
_audit_creation_method            fapswitch 2.2
_symmetry_space_group_name_H-M    P1
_symmetry_Int_Tables_number       1
_space_group_crystal_system       triclinic
_cell_length_a                    30.912532
_cell_length_b                    30.605524
_cell_length_c                    24.811313
_cell_angle_alpha                 90.027714
_cell_angle_beta                  128.450603
_cell_angle_gamma                 89.986741
_cell_volume                      18383.4081445

loop_
_atom_site_label
_atom_site_type_symbol
_atom_type_description
_atom_site_fract_x
_atom_site_fract_y
_atom_site_fract_z
_atom_type_partial_charge
C1    C     C_R   0.808675 0.809596 0.498715 0.790884
C2    C     C_R   0.536084 0.749575 0.070161 0.428086
C3    C     C_R   0.907795 0.092533 0.499800 -0.090879
C4    C     C_R   0.624588 0.583663 0.480695 0.108073
C5    C     C_R   0.375619 0.583735 0.519634 0.107441
C6    C     C_R   0.136149 0.082100 0.501077 0.102624
C7    C     C_R   0.878392 0.084584 0.523835 0.110868
C8    C     C_3   0.643945 0.548240 0.458926 -0.106155
C9    C     C_3   0.356526 0.548399 0.541829 -0.105457
C10   C     C_3   0.169180 0.045282 0.503988 -0.109725
C11   C     C_3   0.862438 0.050104 0.551036 -0.104629
C12   C     C_3   0.679808 0.583679 0.459250 -0.436783
C13   C     C_R   0.964204 0.250170 0.930110 0.427827
C14   C     C_3   0.320486 0.583812 0.541223 -0.438267
C15   C     C_3   0.204837 0.080787 0.504016 -0.430706
C16   C     C_3   0.826336 0.085495 0.550259 -0.439673
C17   C     C_R   0.440279 0.558989 0.499961 0.792401
C18   C     C_R   0.559728 0.558990 0.500059 0.792389
C19   C     C_R   0.940269 0.059010 0.499960 0.792991
C20   C     C_R   0.059731 0.058918 0.500017 0.796184
C21   C     C_R   0.940368 0.940917 0.500152 0.795005
C22   C     C_R   0.059950 0.941048 0.499769 0.796899
C23   C     C_R   0.439744 0.441443 0.500194 0.794725
C24   C     C_R   0.034444 0.250058 0.070117 0.427494
C25   C     C_R   0.560248 0.441445 0.499789 0.794843
C26   C     C_R   0.817407 0.751041 0.632667 0.826642
C27   C     C_R   0.182895 0.750977 0.367609 0.870121
C28   C     C_R   0.316660 0.250500 0.632418 0.851928
C29   C     C_R   0.683340 0.250487 0.367587 0.850758
C30   C     C_R   0.637903 0.788712 0.255180 -0.013625
C31   C     C_R   0.365347 0.789000 0.745418 -0.008451
C32   C     C_R   0.138376 0.288483 0.255196 -0.010285
C33   C     C_R   0.863078 0.289243 0.744937 -0.011674
C34   C     C_R   0.601445 0.788103 0.182894 -0.115969
C35   C     C_R   0.893717 0.833477 0.517165 0.055345
C36   C     C_R   0.402178 0.788319 0.817656 -0.116562
C37   C     C_R   0.101434 0.288055 0.182917 -0.116737
C38   C     C_R   0.899650 0.288765 0.817255 -0.116631
C39   C     C_R   0.574128 0.749672 0.146422 -0.049369
C40   C     C_R   0.427532 0.749463 0.853916 -0.049607
C41   C     C_R   0.072806 0.249987 0.146399 -0.048480
C42   C     C_R   0.926120 0.250190 0.853828 -0.049277
C43   C     C_R   0.583193 0.711341 0.182997 -0.118137
C44   C     C_R   0.416165 0.710710 0.817136 -0.118260
C45   C     C_R   0.080973 0.211846 0.182942 -0.116429
C46   C     C_R   0.100603 0.845182 0.447240 0.171519
C47   C     C_R   0.916174 0.211593 0.817335 -0.118892
C48   C     C_R   0.618455 0.710969 0.255252 0.005581
C49   C     C_R   0.380463 0.710332 0.744828 0.005326
C50   C     C_R   0.116723 0.211319 0.255245 -0.004483
C51   C     C_R   0.880896 0.211087 0.745074 0.007407
C52   C     C_2   0.668559 0.829676 0.291428 0.370011
C53   C     C_2   0.337152 0.830712 0.709695 0.372708
C54   C     C_2   0.170143 0.329075 0.291481 0.370812
C55   C     C_2   0.833270 0.330435 0.708651 0.372392
C56   C     C_2   0.943364 0.763645 0.539531 0.473688
C57   C     C_R   0.396443 0.336498 0.529813 0.096904
C58   C     C_2   0.029793 0.797192 0.346206 0.423389
C59   C     C_2   0.455461 0.269698 0.577285 0.484553
C60   C     C_2   0.544539 0.269674 0.422650 0.484608
C61   C     C_2   0.940786 0.731683 0.716786 0.377711
C62   C     C_2   0.130479 0.835470 0.285863 0.403640
C63   C     C_2   0.439014 0.264441 0.712625 0.366100
C64   C     C_2   0.561006 0.264523 0.287398 0.366322
C65   C     C_3   0.598631 0.527340 0.388371 -0.354689
C66   C     C_3   0.555141 0.559049 0.332579 -0.719642
C67   C     C_3   0.402036 0.527866 0.612596 -0.351957
C68   C     C_R   0.603552 0.336489 0.470151 0.097585
C69   C     C_3   0.445180 0.559904 0.668116 -0.722674
C70   C     C_3   0.137121 0.014500 0.440940 -0.366177
C71   C     C_3   0.096399 0.036946 0.370981 -0.714382
C72   C     C_3   0.910298 0.031806 0.622521 -0.350242
C73   C     C_3   0.953399 0.065468 0.674056 -0.721987
C74   C     C_2   0.624365 0.669929 0.291496 0.355398
C75   C     C_2   0.372611 0.668810 0.708416 0.353151
C76   C     C_2   0.121591 0.170632 0.291608 0.366478
C77   C     C_2   0.874397 0.169790 0.709003 0.351525
C78   C     C_3   0.864154 0.786207 0.413461 -0.322666
C79   C     C_R   0.842219 0.843518 0.499743 -0.118950
C80   C     C_3   0.886016 0.763618 0.379577 -0.802973
C81   C     C_3   0.063161 0.776384 0.468213 -0.409656
C82   C     C_3   0.063381 0.729642 0.446162 -0.768700
C83   C     C_3   0.388449 0.281544 0.445204 -0.335940
C84   C     C_3   0.421968 0.255263 0.430126 -0.805974
C85   C     C_3   0.611507 0.281589 0.554730 -0.336249
C86   C     C_3   0.577970 0.255292 0.569738 -0.805508
C87   C     C_R   0.157783 0.843358 0.499332 -0.115683
C88   C     C_R   0.340735 0.343655 0.497806 -0.120599
C89   C     C_R   0.190743 0.809463 0.499976 0.862172
C90   C     C_R   0.659264 0.343654 0.502191 -0.120290
C91   C     C_R   0.825568 0.887652 0.488441 -0.173887
C92   C     C_R   0.183826 0.878308 0.546317 -0.207535
C93   C     C_R   0.318672 0.385742 0.472189 -0.184529
C94   C     C_R   0.681320 0.385751 0.527805 -0.185747
C95   C     C_R   0.857669 0.919865 0.488295 -0.215468
C96   C     C_R   0.152105 0.910721 0.546978 -0.213402
C97   C     C_R   0.350890 0.418269 0.472672 -0.213764
C98   C     C_R   0.649091 0.418285 0.527299 -0.214490
C99   C     C_R   0.907327 0.908393 0.501466 -0.039752
C100  C     C_R   0.308091 0.309569 0.497789 0.824962
C101  C     C_R   0.094293 0.909686 0.498020 -0.093908
C102  C     C_R   0.406002 0.409454 0.501761 -0.058109
C103  C     C_R   0.593979 0.409462 0.498187 -0.058278
C104  C     C_R   0.926636 0.865745 0.520689 0.064203
C105  C     C_R   0.070127 0.879051 0.444962 0.086553
C106  C     C_R   0.429090 0.369679 0.534880 0.069495
C107  C     C_R   0.570894 0.369675 0.465060 0.069681
C108  C     C_3   0.947800 0.836527 0.493793 -0.606808
C109  C     C_3   0.020397 0.851394 0.414549 -0.619223
C110  C     C_3   0.461519 0.339078 0.526196 -0.619336
C111  C     C_R   0.691918 0.309568 0.502224 0.824374
C112  C     C_3   0.538450 0.339095 0.473718 -0.619590
C113  C     C_3   0.911078 0.800490 0.488789 0.125156
C114  C     C_3   0.053712 0.812791 0.417682 0.114049
C115  C     C_3   0.424919 0.302057 0.518515 0.125891
C116  C     C_3   0.575062 0.302065 0.481422 0.125766
C117  C     C_R   0.683915 0.749994 0.367728 0.716142
C118  C     C_R   0.316261 0.749908 0.632348 0.722788
C119  C     C_R   0.183847 0.249952 0.367727 0.714299
C120  C     C_R   0.816072 0.250071 0.632322 0.715145
C121  C     C_R   0.836879 0.764727 0.744724 -0.208173
C122  C     C_R   0.646175 0.749937 0.291828 -0.182682
C123  C     C_R   0.129514 0.712462 0.256065 -0.220218
C124  C     C_R   0.334419 0.247039 0.744347 -0.220855
C125  C     C_R   0.665573 0.246941 0.255656 -0.220114
C126  C     C_R   0.871177 0.763860 0.816529 -0.145298
C127  C     C_R   0.093806 0.711426 0.184249 -0.137958
C128  C     C_R   0.369865 0.244944 0.816149 -0.137592
C129  C     C_R   0.630125 0.244849 0.183851 -0.136929
C130  C     C_R   0.925802 0.749187 0.854567 0.060181
C131  C     C_R   0.070274 0.750081 0.146404 0.057991
C132  C     C_R   0.427382 0.246945 0.853637 0.053035
C133  C     C_R   0.354467 0.749746 0.708399 -0.183852
C134  C     C_R   0.572611 0.246912 0.146364 0.053007
C135  C     C_R   0.946142 0.736630 0.819745 -0.232245
C136  C     C_R   0.083616 0.789906 0.181520 -0.235003
C137  C     C_R   0.448615 0.251605 0.817714 -0.235615
C138  C     C_R   0.551385 0.251625 0.182293 -0.235540
C139  C     C_R   0.913094 0.739494 0.747756 -0.003406
C140  C     C_R   0.120168 0.791717 0.253800 0.020961
C141  C     C_R   0.413434 0.254801 0.745703 0.005271
C142  C     C_R   0.586570 0.254820 0.254308 0.005417
C143  C     C_R   0.856720 0.752112 0.709108 -0.052327
C144  C     C_R   0.145903 0.249900 0.291823 -0.179736
C145  C     C_R   0.143613 0.752211 0.291713 -0.020717
C146  C     C_R   0.355532 0.251355 0.708337 -0.039868
C147  C     C_R   0.644465 0.251319 0.291669 -0.038661
C148  C     C_R   0.031808 0.749088 0.070392 0.412290
C149  C     C_R   0.962357 0.748519 0.930561 0.411509
C150  C     C_R   0.534786 0.245562 0.070043 0.423075
C151  C     C_R   0.465205 0.245580 0.929955 0.422913
C152  C     C_R   0.656296 0.614528 0.481594 0.082911
C153  C     C_R   0.343808 0.614584 0.518574 0.083085
C154  C     C_R   0.167178 0.113113 0.500910 0.093700
C155  C     C_R   0.853874 0.250166 0.708326 -0.182625
C156  C     C_R   0.846445 0.115379 0.522596 0.080344
C157  C     C_R   0.657526 0.657439 0.500679 -0.094839
C158  C     C_R   0.342410 0.657436 0.499222 -0.094847
C159  C     C_R   0.156753 0.157420 0.499370 -0.099722
C160  C     C_R   0.842278 0.157479 0.499060 -0.090570
C161  C     C_R   0.624325 0.667850 0.520160 -0.190845
C162  C     C_R   0.375446 0.667789 0.479495 -0.191706
C163  C     C_R   0.111448 0.169142 0.497438 -0.190449
C164  C     C_R   0.872482 0.167134 0.475098 -0.193708
C165  C     C_R   0.690767 0.690521 0.500171 0.781806
C166  C     C_R   0.465897 0.749452 0.930177 0.428463
C167  C     C_R   0.309205 0.690524 0.499784 0.780710
C168  C     C_R   0.190570 0.190508 0.499845 0.777586
C169  C     C_R   0.809168 0.190541 0.499738 0.777589
C170  C     C_R   0.592195 0.635387 0.520499 -0.207700
C171  C     C_R   0.407604 0.635322 0.479203 -0.207846
C172  C     C_R   0.079228 0.136722 0.497636 -0.207010
C173  C     C_R   0.904604 0.134632 0.474772 -0.205850
C174  C     C_R   0.592196 0.592461 0.500234 -0.088299
C175  C     C_R   0.407836 0.592469 0.499826 -0.088957
C176  C     C_R   0.091986 0.092354 0.499873 -0.082776
Cu1   Cu    Cu3+1 0.780910 0.719090 0.500000 1.027956
Cu2   Cu    Cu3+1 0.534240 0.500000 0.568430 0.964279
Cu3   Cu    Cu3+1 0.965760 1.000000 0.431570 0.969818
Cu4   Cu    Cu3+1 0.034240 0.000000 0.568430 0.961429
Cu5   Cu    Cu3+1 0.219090 0.719090 0.500000 0.955325
Cu6   Cu    Cu3+1 0.280910 0.219090 0.500000 1.016267
Cu7   Cu    Cu3+1 0.719090 0.219090 0.500000 1.019669
Cu8   Cu    Cu3+1 0.719070 0.780890 0.500010 0.964858
Cu9   Cu    Cu3+1 0.280930 0.780890 0.499990 0.996393
Cu10  Cu    Cu3+1 0.219070 0.280890 0.500010 0.971516
Cu11  Cu    Cu3+1 0.780930 0.280890 0.499990 0.972687
Cu12  Cu    Cu3+1 0.465760 0.500000 0.431570 0.964863
H1    H     H_    0.794315 0.774806 0.716898 0.159532
H2    H     H_    0.065438 0.819851 0.152265 0.142873
H3    H     H_    0.076354 0.706628 0.488397 0.235494
H4    H     H_    0.102486 0.782193 0.520638 0.217599
H5    H     H_    0.029868 0.777495 0.473268 0.203982
H6    H     H_    0.453333 0.276057 0.434640 0.243091
H7    H     H_    0.442980 0.227259 0.466026 0.280811
H8    H     H_    0.393897 0.242272 0.376820 0.241352
H9    H     H_    0.357241 0.259272 0.438558 0.238323
H10   H     H_    0.365597 0.307668 0.405710 0.193617
H11   H     H_    0.546535 0.276059 0.565122 0.243072
H12   H     H_    0.557041 0.227249 0.533863 0.280809
H13   H     H_    0.492827 0.254265 0.845927 0.147871
H14   H     H_    0.606013 0.242357 0.623063 0.241529
H15   H     H_    0.642753 0.259334 0.561419 0.238508
H16   H     H_    0.634312 0.307735 0.594230 0.193136
H17   H     H_    0.507178 0.254331 0.154083 0.147826
H18   H     H_    0.623582 0.700703 0.535793 0.167110
H19   H     H_    0.376033 0.700596 0.463633 0.168133
H20   H     H_    0.100871 0.203089 0.495916 0.170989
H21   H     H_    0.870774 0.199374 0.455883 0.164664
H22   H     H_    0.567332 0.643792 0.536038 0.143151
H23   H     H_    0.432320 0.643670 0.463438 0.143712
H24   H     H_    0.044770 0.146221 0.496230 0.137600
H25   H     H_    0.146995 0.682052 0.284064 0.145544
H26   H     H_    0.927061 0.142396 0.455639 0.142920
H27   H     H_    0.669203 0.523524 0.500214 0.133776
H28   H     H_    0.331401 0.523477 0.500817 0.132638
H29   H     H_    0.192038 0.027314 0.553651 0.144342
H30   H     H_    0.837180 0.024008 0.512437 0.130461
H31   H     H_    0.724845 0.578609 0.500171 0.187174
H32   H     H_    0.275474 0.578562 0.500361 0.184741
H33   H     H_    0.247452 0.082791 0.553519 0.183122
H34   H     H_    0.781322 0.078980 0.511765 0.188311
H35   H     H_    0.595147 0.817639 0.154779 0.197940
H36   H     H_    0.290275 0.244530 0.716669 0.147019
H37   H     H_    0.410339 0.818227 0.845940 0.198537
H38   H     H_    0.095757 0.317426 0.154817 0.197523
H39   H     H_    0.906643 0.318516 0.845334 0.197546
H40   H     H_    0.667861 0.592177 0.408097 0.214838
H41   H     H_    0.332388 0.592499 0.592298 0.214953
H42   H     H_    0.202471 0.081741 0.457516 0.208349
H43   H     H_    0.839882 0.095748 0.601552 0.217513
H44   H     H_    0.561711 0.681690 0.154980 0.197718
H45   H     H_    0.436266 0.680713 0.845023 0.197367
H46   H     H_    0.058442 0.182502 0.154860 0.197537
H47   H     H_    0.709714 0.244389 0.283333 0.145290
H48   H     H_    0.937088 0.181833 0.845434 0.197350
H49   H     H_    0.786876 0.897057 0.477040 0.170730
H50   H     H_    0.228320 0.879430 0.584484 0.162070
H51   H     H_    0.276065 0.392865 0.449178 0.168770
H52   H     H_    0.723931 0.392877 0.550835 0.169036
H53   H     H_    0.843230 0.953309 0.476367 0.129162
H54   H     H_    0.172493 0.935972 0.586029 0.163662
H55   H     H_    0.332737 0.449764 0.449571 0.140652
H56   H     H_    0.667236 0.449789 0.550412 0.141015
H57   H     H_    0.934602 0.848632 0.443382 0.210522
H58   H     H_    0.854595 0.773827 0.842324 0.153673
H59   H     H_    0.010218 0.849225 0.449992 0.190075
H60   H     H_    0.455129 0.347042 0.478187 0.213382
H61   H     H_    0.544821 0.347092 0.521714 0.213304
H62   H     H_    0.992954 0.830670 0.532798 0.171930
H63   H     H_    0.985423 0.862476 0.361777 0.198340
H64   H     H_    0.505166 0.337925 0.573795 0.176471
H65   H     H_    0.494808 0.337922 0.426108 0.176595
H66   H     H_    0.701311 0.830014 0.346576 0.068756
H67   H     H_    0.304467 0.831469 0.654662 0.062840
H68   H     H_    0.202822 0.329260 0.346646 0.061720
H69   H     H_    0.083984 0.680274 0.158257 0.155078
H70   H     H_    0.800224 0.330763 0.653595 0.063953
H71   H     H_    0.981861 0.770588 0.590126 0.062659
H72   H     H_    0.986590 0.787884 0.310608 0.060856
H73   H     H_    0.491389 0.280078 0.627981 0.047905
H74   H     H_    0.508572 0.280013 0.371970 0.047724
H75   H     H_    0.975311 0.709121 0.741316 0.069349
H76   H     H_    0.118588 0.864599 0.254551 0.056832
H77   H     H_    0.481980 0.256109 0.738751 0.068273
H78   H     H_    0.518027 0.256232 0.261263 0.068184
H79   H     H_    0.531631 0.574502 0.347699 0.251498
H80   H     H_    0.352111 0.241483 0.842215 0.157863
H81   H     H_    0.574420 0.584854 0.322507 0.271420
H82   H     H_    0.525486 0.540744 0.283995 0.235795
H83   H     H_    0.618823 0.510363 0.369681 0.217977
H84   H     H_    0.577080 0.502072 0.396011 0.207622
H85   H     H_    0.468411 0.575583 0.652768 0.251346
H86   H     H_    0.425662 0.585520 0.678169 0.268577
H87   H     H_    0.475134 0.541799 0.716790 0.235601
H88   H     H_    0.382000 0.510812 0.631418 0.217555
H89   H     H_    0.423865 0.502702 0.605219 0.207470
H90   H     H_    0.063646 0.054245 0.368515 0.254525
H91   H     H_    0.647874 0.241344 0.157781 0.157770
H92   H     H_    0.117769 0.060427 0.360665 0.260856
H93   H     H_    0.076213 0.011830 0.329738 0.236679
H94   H     H_    0.167394 0.995462 0.440285 0.221178
H95   H     H_    0.113593 0.990878 0.447733 0.200347
H96   H     H_    0.974628 0.080109 0.655224 0.250916
H97   H     H_    0.934244 0.091791 0.683525 0.268382
H98   H     H_    0.985003 0.048996 0.723795 0.235057
H99   H     H_    0.892542 0.015721 0.644967 0.217493
H100  H     H_    0.931726 0.006153 0.615277 0.208625
H101  H     H_    0.645069 0.669885 0.346266 0.069700
H102  H     H_    0.988978 0.726730 0.849139 0.143879
H103  H     H_    0.352174 0.668557 0.653726 0.072698
H104  H     H_    0.144555 0.170312 0.346893 0.074735
H105  H     H_    0.854248 0.169666 0.654398 0.069155
H106  H     H_    0.912741 0.785937 0.376576 0.238304
H107  H     H_    0.909939 0.733893 0.408582 0.278333
H108  H     H_    0.850676 0.753716 0.326416 0.241310
H109  H     H_    0.835528 0.763404 0.411925 0.232528
H110  H     H_    0.839526 0.815175 0.381878 0.193714
H111  H     H_    0.021185 0.720354 0.400118 0.229807
H112  H     H_    0.092057 0.726252 0.433834 0.287995
N1    N     N_R   0.517149 0.711414 0.034480 -0.226236
N2    N     N_R   0.990469 0.778914 0.034291 -0.226613
N3    N     N_R   0.520872 0.245419 0.966029 -0.233965
N4    N     N_R   0.479119 0.245463 0.033969 -0.234060
N5    N     N_R   0.037567 0.718803 0.035232 -0.234003
N6    N     N_R   0.956228 0.778492 0.965732 -0.231610
N7    N     N_R   0.554930 0.245382 0.034573 -0.237800
N8    N     N_R   0.445061 0.245443 0.965425 -0.237958
N9    N     N_R   0.482863 0.711348 0.965947 -0.225864
N10   N     N_R   0.015413 0.211961 0.034295 -0.225859
N11   N     N_R   0.981120 0.212016 0.965765 -0.225800
N12   N     N_R   0.484802 0.787603 0.965868 -0.225124
N13   N     N_R   0.519223 0.787665 0.034383 -0.224848
N14   N     N_R   0.983117 0.288275 0.965928 -0.224792
N15   N     N_R   0.017584 0.288216 0.034466 -0.224993
N16   N     N_R   0.003725 0.718706 0.966656 -0.229851
O1    O     O_R   0.821190 0.768980 0.500000 -0.550317
O2    O     O_R   0.074010 0.954920 0.557790 -0.583824
O3    O     O_R   0.425990 0.454920 0.442210 -0.579031
O4    O     O_R   0.574010 0.454920 0.557790 -0.579277
O5    O     O_R   0.983760 0.954940 0.557800 -0.586106
O6    O     O_R   0.016240 0.954940 0.442200 -0.579472
O7    O     O_R   0.483760 0.454940 0.557800 -0.584523
O8    O     O_R   0.516240 0.454940 0.442200 -0.584265
O9    O     O_R   0.768960 0.821170 0.500020 -0.592506
O10   O     O_R   0.231040 0.821170 0.499980 -0.556292
O11   O     O_R   0.268960 0.321170 0.500020 -0.588058
O12   O     O_R   0.178810 0.768980 0.500000 -0.591989
O13   O     O_R   0.731040 0.321170 0.499980 -0.588170
O14   O     O_R   0.726180 0.723900 0.400140 -0.585171
O15   O     O_R   0.273820 0.723900 0.599860 -0.583086
O16   O     O_R   0.226180 0.223900 0.400140 -0.588649
O17   O     O_R   0.773820 0.223900 0.599860 -0.587237
O18   O     O_R   0.673950 0.776090 0.400160 -0.579063
O19   O     O_R   0.326050 0.776090 0.599840 -0.584279
O20   O     O_R   0.173950 0.276090 0.400160 -0.581384
O21   O     O_R   0.826050 0.276090 0.599840 -0.581601
O22   O     O_R   0.731010 0.678810 0.499990 -0.588714
O23   O     O_R   0.321190 0.268980 0.500000 -0.555118
O24   O     O_R   0.268990 0.678810 0.500010 -0.592595
O25   O     O_R   0.231010 0.178810 0.499990 -0.590787
O26   O     O_R   0.768990 0.178810 0.500010 -0.589123
O27   O     O_R   0.678790 0.731000 0.500010 -0.588903
O28   O     O_R   0.321210 0.731000 0.499990 -0.589687
O29   O     O_R   0.178790 0.231000 0.500010 -0.592044
O30   O     O_R   0.821210 0.231000 0.499990 -0.590134
O31   O     O_R   0.826030 0.723890 0.599860 -0.537903
O32   O     O_R   0.173970 0.723890 0.400140 -0.583705
O33   O     O_R   0.326030 0.223890 0.599860 -0.544773
O34   O     O_R   0.678810 0.268980 0.500000 -0.555277
O35   O     O_R   0.673970 0.223890 0.400140 -0.543819
O36   O     O_R   0.773800 0.776080 0.599870 -0.594311
O37   O     O_R   0.226200 0.776080 0.400130 -0.560270
O38   O     O_R   0.273800 0.276080 0.599870 -0.584896
O39   O     O_R   0.726200 0.276080 0.400130 -0.586474
O40   O     O_R   0.425940 0.545090 0.442170 -0.582079
O41   O     O_R   0.574060 0.545090 0.557830 -0.582072
O42   O     O_R   0.925940 0.045090 0.442170 -0.580898
O43   O     O_R   0.074060 0.045090 0.557830 -0.584908
O44   O     O_2   0.657903 0.863786 0.259854 -0.534527
O45   O     O_R   0.483700 0.545120 0.557760 -0.588720
O46   O     O_2   0.349852 0.864966 0.741567 -0.539908
O47   O     O_2   0.160471 0.363036 0.259941 -0.537930
O48   O     O_2   0.844966 0.364760 0.740102 -0.537046
O49   O     O_2   0.926261 0.726118 0.525402 -0.530624
O50   O     O_2   0.058660 0.793808 0.328475 -0.536854
O51   O     O_2   0.439444 0.232041 0.569348 -0.531130
O52   O     O_2   0.560620 0.232039 0.430567 -0.530916
O53   O     O_2   0.928056 0.752308 0.666693 -0.531861
O54   O     O_2   0.150262 0.839910 0.346062 -0.517113
O55   O     O_2   0.413553 0.283834 0.657892 -0.561145
O56   O     O_R   0.516300 0.545120 0.442240 -0.588751
O57   O     O_2   0.586498 0.283923 0.342154 -0.561280
O58   O     O_2   0.605777 0.635406 0.260325 -0.558949
O59   O     O_2   0.389383 0.634116 0.739382 -0.557215
O60   O     O_2   0.099495 0.136724 0.260003 -0.548282
O61   O     O_2   0.891905 0.135184 0.740123 -0.558568
O62   O     O_R   0.983700 0.045120 0.557760 -0.588564
O63   O     O_R   0.016300 0.045120 0.442240 -0.584738
O64   O     O_R   0.925990 0.954920 0.442210 -0.580705

loop_
_geom_bond_atom_site_label_1
_geom_bond_atom_site_label_2
_ccdc_geom_bond_type
C33   C55   S    
C162  H19   S    
C126  H58   S    
C107  C112  S    
C100  O23   A    
C16   H34   S    
Cu9   O28   S    
C136  C140  A    
Cu7   O26   S    
C118  O19   A    
C135  C139  A    
C166  N9    A    
C117  O18   A    
C95   C99   A    
C84   H7    S    
C46   C105  A    
C56   O49   D    
C28   O38   A    
C52   O44   D    
C15   C154  S    
C80   H108  S    
C78   H109  S    
Cu4   O5    S    
C30   C122  A    
C150  N7    A    
C1    O1    A    
C68   C90   A    
Cu4   O43   S    
C3    C19   S    
C83   H9    S    
Cu3   O63   S    
C86   H14   S    
C98   H56   S    
C55   O48   D    
Cu2   Cu12  S    
C24   C41   S    
C14   H32   S    
Cu5   O24   S    
C4    C152  A    
C13   C42   S    
C138  H17   S    
C158  C167  S    
C68   C116  S    
C71   H90   S    
C48   C74   S    
C45   H46   S    
C35   C104  A    
C30   C34   A    
C11   C72   S    
C132  C137  A    
C70   H94   S    
C120  C155  S    
C108  H62   S    
C108  C113  S    
C140  C145  A    
C6    C10   S    
C66   H82   S    
C60   H74   S    
Cu11  O13   S    
C27   C145  S    
C91   H49   S    
C164  C173  A    
C20   O43   A    
C163  C172  A    
C63   H77   S    
C11   H30   S    
Cu1   O31   S    
C73   H96   S    
C37   H38   S    
C87   C89   S    
C15   H42   S    
C1    C79   S    
C78   C113  S    
C170  C174  A    
C49   C133  A    
C152  C157  A    
C109  H63   S    
C76   O60   D    
C54   H68   S    
C85   C116  S    
C61   C139  S    
C72   C73   S    
Cu3   O6    S    
Cu1   O22   S    
N3    N7    A    
C54   O47   D    
C148  N5    A    
Cu1   Cu8   S    
C69   H85   S    
N2    N6    A    
C33   C38   A    
C55   H70   S    
Cu9   O37   S    
C23   O3    A    
Cu4   O62   S    
C45   C50   A    
C35   C113  S    
C82   H112  S    
C127  C131  A    
C32   C144  A    
C81   H5    S    
C125  C129  A    
C75   O59   D    
C126  C130  A    
C31   C36   A    
C103  C107  A    
C64   O57   D    
C17   C175  S    
C18   O41   A    
C36   H37   S    
C60   O52   D    
C17   O45   A    
C82   H3    S    
Cu2   O45   S    
C12   C152  S    
C112  H61   S    
Cu4   O2    S    
C85   C86   S    
C92   H50   S    
N5    N16   A    
C121  H1    S    
C21   C99   S    
Cu10  O29   S    
C78   C80   S    
C163  H20   S    
C92   C96   A    
C166  N12   A    
N12   N13   A    
Cu2   O41   S    
C153  C158  A    
C85   H16   S    
C21   O5    A    
C139  C143  A    
C73   H98   S    
C148  N2    A    
C7    C156  A    
C124  H36   S    
C84   H6    S    
C81   C114  S    
C49   C75   S    
C79   C91   A    
C118  O15   A    
Cu10  O38   S    
C8    C12   S    
C21   O64   A    
C57   C106  A    
C8    C65   S    
Cu3   O42   S    
C72   H99   S    
C90   C111  S    
C123  C145  A    
C50   C144  A    
C167  O24   A    
C69   H87   S    
Cu12  O56   S    
C162  C171  A    
C34   C39   A    
C83   C115  S    
C156  C160  A    
Cu8   O18   S    
C61   H75   S    
C131  C136  A    
C157  C165  S    
C29   O39   A    
Cu6   O33   S    
C110  H64   S    
C124  C146  A    
C119  O16   A    
Cu3   Cu4   S    
C13   N11   A    
C74   H101  S    
C117  C122  S    
C9    C67   S    
C19   O62   A    
C5    C9    S    
C168  O29   A    
Cu2   O7    S    
C123  C127  A    
C83   C84   S    
C170  H22   S    
C56   C113  S    
C32   C37   A    
C109  C114  S    
Cu7   O34   S    
C18   C174  S    
C60   C116  S    
C151  N3    A    
C24   N10   A    
C26   C143  S    
C93   C97   A    
C112  C116  S    
C34   H35   S    
C149  N16   A    
C46   C87   A    
C105  C109  S    
C22   O6    A    
C41   C45   A    
C53   O46   D    
C59   H73   S    
C59   O51   D    
C33   C155  A    
C16   H43   S    
C28   C146  S    
C111  O13   A    
C154  C159  A    
C64   H78   S    
C44   H45   S    
C20   C176  S    
C137  H13   S    
C84   H8    S    
C35   C79   A    
C37   C41   A    
C165  O22   A    
C76   H104  S    
C66   H79   S    
C77   H105  S    
N4    N8    A    
C109  H59   S    
C29   O35   A    
C13   N14   A    
C62   C140  S    
C87   C92   A    
C172  C176  A    
C10   H29   S    
C38   H39   S    
C119  C144  S    
C22   O2    A    
C130  C135  A    
C57   C115  S    
C151  N8    A    
C22   C101  S    
C160  C164  A    
C3    C7    A    
C12   H40   S    
C94   C98   A    
C70   H95   S    
C100  O11   A    
Cu12  O8    S    
Cu8   O9    S    
Cu6   Cu10  S    
C65   H84   S    
C52   H66   S    
C27   O37   A    
C30   C52   S    
C58   O50   D    
Cu5   O12   S    
C111  O34   A    
C16   C156  S    
C150  N4    A    
C160  C169  S    
C127  H69   S    
C70   C71   S    
C68   C107  A    
C67   H89   S    
C97   C102  A    
C31   C133  A    
C86   H11   S    
C124  C128  A    
C99   C104  A    
C4    C174  A    
C96   C101  A    
C169  O26   A    
C5    C175  A    
Cu12  O3    S    
C142  C147  A    
C32   C54   S    
C90   C94   A    
Cu7   O17   S    
C17   O40   A    
Cu10  O11   S    
C71   H93   S    
C27   O32   A    
C138  C142  A    
C62   H76   S    
C82   H111  S    
C47   C51   A    
C108  H57   S    
C9    C14   S    
C51   C77   S    
Cu7   Cu11  S    
Cu9   O10   S    
C11   C16   S    
C80   H107  S    
Cu10  O20   S    
C164  H21   S    
C51   C155  A    
C63   C141  S    
C2    N13   A    
C83   H10   S    
Cu3   O64   S    
C6    C154  A    
C167  O28   A    
C10   C70   S    
C94   H52   S    
C149  N6    A    
C62   O54   D    
C123  H25   S    
C125  C147  A    
C161  H18   S    
C56   H71   S    
Cu1   O1    S    
C157  C161  A    
C104  C108  S    
Cu7   O35   S    
C47   H48   S    
C110  H60   S    
C137  C141  A    
N10   N11   A    
C20   O63   A    
C119  O20   A    
C43   H44   S    
C168  O25   A    
C29   C147  S    
C78   H110  S    
C63   O55   D    
Cu5   O32   S    
C173  H26   S    
N14   N15   A    
C66   H81   S    
C61   O53   D    
C64   C142  S    
Cu6   O16   S    
C120  O17   A    
C2    N1    A    
C26   O36   A    
C135  H102  S    
C85   H15   S    
C129  C134  A    
C73   H97   S    
C58   H72   S    
Cu8   O36   S    
C132  C151  S    
C53   H67   S    
C110  C115  S    
C165  O27   A    
Cu11  O21   S    
C25   O4    A    
C44   C49   A    
Cu6   O25   S    
C121  C143  A    
C72   H100  S    
C4    C8    S    
C8    H27   S    
C81   C82   S    
C7    C11   S    
C69   H86   S    
C125  H47   S    
C93   H51   S    
C38   C42   A    
C50   C76   S    
C10   C15   S    
C48   C122  A    
C128  H80   S    
C23   C102  S    
C134  C150  S    
C67   H88   S    
C159  C168  S    
Cu1   O14   S    
C14   H41   S    
C2    C39   S    
C3    C173  A    
C98   C103  A    
C102  C106  A    
Cu2   O4    S    
C43   C48   A    
Cu9   O19   S    
C12   H31   S    
C40   C166  S    
N1    N9    A    
C89   O10   A    
C24   N15   A    
C65   H83   S    
C128  C132  A    
C9    H28   S    
C101  C105  A    
C77   O61   D    
C46   C114  S    
C36   C40   A    
C75   H103  S    
C120  O21   A    
Cu5   Cu9   S    
C25   C103  S    
C39   C43   A    
C171  C175  A    
C136  H2    S    
C67   C69   S    
C15   H33   S    
C81   H4    S    
C97   H55   S    
C171  H23   S    
C40   C44   A    
C130  C149  S    
C169  O30   A    
C131  C148  S    
C88   C100  S    
C31   C53   S    
C96   H54   S    
Cu5   O15   S    
C118  C133  S    
C161  C170  A    
C141  C146  A    
C80   H106  S    
Cu6   O23   S    
C95   H53   S    
C14   C153  S    
C19   O42   A    
C159  C163  A    
Cu11  O39   S    
C58   C114  S    
C106  C110  S    
C23   O7    A    
C88   C93   A    
Cu8   O27   S    
C172  H24   S    
Cu11  O30   S    
C134  C138  A    
C71   H92   S    
C57   C88   A    
C121  C126  A    
C112  H65   S    
C25   O8    A    
C6    C176  A    
C5    C153  A    
C129  H91   S    
C42   C47   A    
C74   O58   D    
C158  C162  A    
C117  O14   A    
C91   C95   A    
C59   C115  S    
C65   C66   S    
C18   O56   A    
C89   O12   A    
C26   O31   A    
C1    O9    A    
C86   H12   S    
C28   O33   A    
Cu12  O40   S    
