data_mof_unit_36707.cif
_audit_creation_date              2012-12-10T17:03:58-0500
_audit_creation_method            fapswitch 2.2
_symmetry_space_group_name_H-M    P1
_symmetry_Int_Tables_number       1
_space_group_crystal_system       triclinic
_cell_length_a                    9.892916
_cell_length_b                    11.032719
_cell_length_c                    15.809057
_cell_angle_alpha                 96.437624
_cell_angle_beta                  78.36961
_cell_angle_gamma                 110.987945
_cell_volume                      1576.43482241

loop_
_atom_site_label
_atom_site_type_symbol
_atom_type_description
_atom_site_fract_x
_atom_site_fract_y
_atom_site_fract_z
_atom_type_partial_charge
C1    C     C_R   0.555965 0.745129 0.506164 0.862595
C2    C     C_R   0.444160 0.254868 0.493573 0.871241
C3    C     C_R   0.327764 0.480198 0.080300 -0.225203
C4    C     C_R   0.675496 0.548504 0.921451 -0.222456
C5    C     C_R   0.223427 0.447444 0.026992 -0.147197
C6    C     C_R   0.779467 0.581642 0.974993 -0.148509
C7    C     C_2   0.585949 0.884425 0.511537 -0.331273
C8    C     C_2   0.414553 0.115589 0.487383 -0.307207
C9    C     C_2   0.488322 0.930965 0.493490 -0.090389
C10   C     C_2   0.513017 0.069046 0.504171 -0.143170
C11   C     C_2   0.919585 0.479575 0.499163 0.027883
C12   C     C_2   0.073692 0.506575 0.511590 0.020471
C13   C     C_R   0.410355 0.485009 0.662868 0.833261
C14   C     C_R   0.589920 0.515743 0.337086 0.849245
C15   C     C_R   0.354140 0.471226 0.756809 -0.083332
C16   C     C_R   0.646852 0.534203 0.243377 -0.124351
C17   C     C_R   0.157022 0.405043 0.881561 -0.077732
C18   C     C_R   0.843970 0.613003 0.120262 -0.043597
C19   C     C_R   0.203549 0.414046 0.790661 0.323644
C20   C     C_R   0.798024 0.589918 0.209034 0.317239
C21   C     C_R   0.456990 0.509916 0.812079 -0.319898
C22   C     C_R   0.544002 0.504164 0.188359 -0.293730
C23   C     C_R   0.416417 0.489839 0.900952 0.068088
C24   C     C_R   0.585421 0.531155 0.100332 0.071962
C25   C     C_R   0.264240 0.445225 0.936746 0.094340
C26   C     C_R   0.737649 0.577887 0.064984 0.074433
C27   C     C_R   0.524034 0.516896 0.955287 0.102287
C28   C     C_R   0.478504 0.508258 0.046166 0.099360
Cu1   Cu    Cu3+1 0.362980 0.479380 0.485080 0.989565
Cu2   Cu    Cu3+1 0.637020 0.520620 0.514920 0.998861
H1    H     H_    0.110405 0.427262 0.058196 0.179930
H2    H     H_    0.892954 0.604324 0.944080 0.177975
H3    H     H_    0.430477 0.455634 0.215475 0.177418
H4    H     H_    0.569807 0.558762 0.783974 0.176056
H5    H     H_    0.286403 0.485158 0.148634 0.150346
H6    H     H_    0.718403 0.546485 0.853260 0.143495
H7    H     H_    0.612718 0.132989 0.526335 0.167534
H8    H     H_    0.388918 0.866971 0.470880 0.222099
H9    H     H_    0.312962 0.050879 0.467438 0.166553
H10   H     H_    0.687089 0.949188 0.531984 0.151701
H11   H     H_    0.119915 0.388928 0.411054 0.192897
H12   H     H_    0.893402 0.633978 0.572500 0.219535
N1    N     N_2   0.842890 0.551600 0.537350 -0.303804
N2    N     N_2   0.157110 0.448400 0.462650 -0.317802
O1    O     O_R   0.426810 0.668300 0.492040 -0.552461
O2    O     O_R   0.573190 0.331700 0.507960 -0.569015
O3    O     O_R   0.658240 0.703130 0.517240 -0.572461
O4    O     O_R   0.341760 0.296870 0.482760 -0.571831
O5    O     O_R   0.319390 0.472820 0.610170 -0.546952
O6    O     O_R   0.680610 0.527180 0.389830 -0.503286
O7    O     O_R   0.550820 0.507640 0.635370 -0.598855
O8    O     O_R   0.449180 0.492360 0.364630 -0.593626
O9    O     O_3   0.902208 0.629647 0.261786 -0.720499
H13   H     H_    0.903192 0.549326 0.283467 0.364703
O10   O     O_3   0.105844 0.365822 0.733340 -0.752183
H14   H     H_    0.014799 0.299481 0.760815 0.323253
C29   C     C_2   0.996825 0.354257 0.916800 0.306011
H15   H     H_    0.921582 0.384616 0.890327 0.078314
O11   O     O_2   0.946816 0.273165 0.971988 -0.512670
C30   C     C_2   0.004254 0.676120 0.088708 0.393105
H16   H     H_    0.083307 0.655890 0.118394 0.104796
O12   O     O_2   0.049807 0.756633 0.033221 -0.528878
C31   C     C_2   0.127122 0.596679 0.583530 0.447427
H17   H     H_    0.117928 0.559632 0.645787 0.113740
O13   O     O_2   0.171928 0.713868 0.575368 -0.576869
C32   C     C_2   0.854178 0.359254 0.448238 0.453623
H18   H     H_    0.853263 0.267760 0.467752 0.013621
O14   O     O_2   0.814016 0.361635 0.380737 -0.549372

loop_
_geom_bond_atom_site_label_1
_geom_bond_atom_site_label_2
_ccdc_geom_bond_type
C13   O5    A    
C6    H2    S    
Cu2   O7    S    
C31   O13   D    
C11   N1    D    
Cu1   Cu2   S    
C8    H9    S    
C23   C27   A    
C9    C10   S    
C18   C20   A    
C18   C26   A    
C11   C32   S    
C3    H5    S    
C16   C20   A    
C17   C25   A    
O10   H14   S    
C4    H6    S    
C32   H18   S    
Cu2   O6    S    
C30   H16   S    
C12   N2    D    
Cu1   O5    S    
O9    H13   S    
C2    O2    A    
C15   C19   A    
C1    O1    A    
C29   H15   S    
C14   O6    A    
C22   H3    S    
C10   H7    S    
C5    C25   A    
C2    C8    S    
C18   C30   S    
C3    C28   A    
C17   C19   A    
C24   C26   A    
C22   C24   A    
C13   C15   S    
Cu1   N2    S    
H11   N2    S    
C14   C16   S    
Cu2   N1    S    
C29   O11   D    
C4    C6    A    
Cu1   O1    S    
H12   N1    S    
C16   C22   A    
Cu1   O4    S    
C31   H17   S    
C3    C5    A    
Cu2   O3    S    
C15   C21   A    
C4    C27   A    
C30   O12   D    
C23   C25   A    
C19   O10   S    
C27   C28   A    
C7    C9    D    
C12   C31   S    
C6    C26   A    
C1    O3    A    
C1    C7    S    
C9    H8    S    
C21   H4    S    
C32   O14   D    
C2    O4    A    
C13   O7    A    
C7    H10   S    
C21   C23   A    
Cu2   O2    S    
C8    C10   D    
C14   O8    A    
C24   C28   A    
C11   C12   S    
C17   C29   S    
C20   O9    S    
C5    H1    S    
Cu1   O8    S    
