data_mof_unit_30515.cif
_audit_creation_date              2012-12-10T17:33:40-0500
_audit_creation_method            fapswitch 2.2
_symmetry_space_group_name_H-M    P1
_symmetry_Int_Tables_number       1
_space_group_crystal_system       triclinic
_cell_length_a                    11.683949
_cell_length_b                    12.328678
_cell_length_c                    13.061593
_cell_angle_alpha                 116.418809
_cell_angle_beta                  77.91349
_cell_angle_gamma                 101.033673
_cell_volume                      1637.25040943

loop_
_atom_site_label
_atom_site_type_symbol
_atom_type_description
_atom_site_fract_x
_atom_site_fract_y
_atom_site_fract_z
_atom_type_partial_charge
C1    C     C_R   0.507283 0.855014 0.285526 0.803269
C2    C     C_R   0.464945 0.226780 0.837132 -0.053911
C3    C     C_R   0.550518 0.817005 0.073475 -0.000244
C4    C     C_R   0.560929 0.734172 0.955974 0.149278
C5    C     C_R   0.532407 0.609925 0.926122 -0.192449
C6    C     C_R   0.485711 0.564282 0.009889 0.045755
C7    C     C_R   0.457680 0.648182 0.125440 0.033280
C8    C     C_R   0.460773 0.437317 0.980665 0.056342
C9    C     C_R   0.395601 0.395258 0.063608 0.158854
C10   C     C_R   0.354429 0.480544 0.174618 0.122562
C11   C     C_R   0.382097 0.604768 0.202162 -0.168931
C12   C     C_R   0.715764 0.999435 0.499678 0.835217
C13   C     C_R   0.500034 0.350730 0.870449 -0.231811
C14   C     C_R   0.402255 0.185348 0.918867 -0.175533
C15   C     C_R   0.502761 0.773586 0.160297 -0.201337
C16   C     C_R   0.697222 0.349122 0.334776 -0.096931
C17   C     C_R   0.343404 0.759908 0.646944 0.082243
C18   C     C_R   0.309311 0.663261 0.678513 -0.251814
C19   C     C_R   0.368154 0.559322 0.621903 -0.197347
C20   C     C_R   0.462816 0.550633 0.532385 0.006544
C21   C     C_R   0.495148 0.652634 0.504176 0.263221
C22   C     C_R   0.527769 0.446183 0.471810 -0.059911
C23   C     C_R   0.484551 0.144878 0.714074 0.793455
C24   C     C_R   0.623734 0.445185 0.383447 0.019754
C25   C     C_R   0.643392 0.540611 0.347742 -0.056785
C26   C     C_R   0.587866 0.645534 0.414689 -0.232087
C27   C     C_R   0.500909 0.341591 0.495145 0.036428
C28   C     C_R   0.662977 0.248770 0.361104 0.023753
C29   C     C_R   0.284252 0.000352 0.500022 0.816347
C30   C     C_1   0.837381 0.998791 0.499571 -0.145434
C31   C     C_1   0.940021 0.999089 0.499444 0.031067
C32   C     C_1   0.060033 0.999960 0.499416 0.021442
C33   C     C_1   0.162664 0.000541 0.499581 -0.164887
C34   C     C_R   0.369725 0.268643 0.031731 -0.149088
Cu1   Cu    Cu3+1 0.526510 0.098270 0.475420 0.969446
Cu2   Cu    Cu3+1 0.473490 0.901730 0.524580 0.937362
H1    H     H_    0.375384 0.089071 0.894906 0.159432
H2    H     H_    0.428027 0.333259 0.557947 0.124991
H3    H     H_    0.297221 0.840190 0.691287 0.133016
H4    H     H_    0.337975 0.487979 0.650738 0.141280
H5    H     H_    0.237112 0.668972 0.747247 0.160697
H6    H     H_    0.617505 0.718800 0.390487 0.228361
H7    H     H_    0.320554 0.232816 0.092088 0.161818
H8    H     H_    0.558079 0.377349 0.807761 0.152097
H9    H     H_    0.541359 0.551297 0.834923 0.143463
H10   H     H_    0.338927 0.667049 0.283128 0.181921
H11   H     H_    0.716200 0.173760 0.323898 0.180091
N1    N     N_R   0.566700 0.246290 0.438210 -0.190556
N2    N     N_R   0.434010 0.754320 0.561170 -0.203818
O1    O     O_R   0.533340 0.972510 0.318140 -0.550318
O2    O     O_R   0.488570 0.806530 0.359650 -0.608740
O3    O     O_R   0.685190 0.083000 0.479260 -0.577826
O4    O     O_R   0.640410 0.917020 0.520770 -0.584268
O5    O     O_R   0.511430 0.193470 0.640350 -0.589903
O6    O     O_R   0.466660 0.027490 0.681860 -0.586583
O7    O     O_R   0.359590 0.082980 0.479230 -0.566766
O8    O     O_R   0.314810 0.917000 0.520740 -0.586605
C35   C     C_2   0.707145 0.527902 0.232425 0.883745
O9    O     O_2   0.768394 0.615290 0.221126 -0.584862
O10   O     O_R   0.692293 0.417156 0.135702 -0.757675
H12   H     H_    0.737689 0.420368 0.061737 0.341362
C36   C     C_2   0.817161 0.356687 0.270406 0.861278
O11   O     O_2   0.852995 0.265748 0.188904 -0.554196
O12   O     O_R   0.891108 0.466504 0.306198 -0.754920
H13   H     H_    0.970960 0.459752 0.256381 0.338002
C37   C     C_3   0.280977 0.441988 0.265256 -0.849352
H14   H     H_    0.256920 0.521396 0.347505 0.240943
H15   H     H_    0.198143 0.386974 0.233796 0.239454
H16   H     H_    0.331529 0.387450 0.284780 0.240842
C38   C     C_2   0.587535 0.947927 0.102937 0.867251
O13   O     O_2   0.692257 0.984769 0.092294 -0.565099
O14   O     O_R   0.502196 0.028158 0.140397 -0.750324
H17   H     H_    0.537901 0.114734 0.155700 0.340414
C39   C     C_3   0.602513 0.773020 0.858174 -0.804683
H18   H     H_    0.617465 0.873075 0.886828 0.246358
H19   H     H_    0.686125 0.734665 0.809217 0.240670
H20   H     H_    0.535309 0.737341 0.798659 0.231893

loop_
_geom_bond_atom_site_label_1
_geom_bond_atom_site_label_2
_ccdc_geom_bond_type
C27   N1    A    
C16   C28   A    
C37   H15   S    
C21   C26   A    
C28   H11   S    
C8    C13   A    
C19   C20   A    
C21   N2    A    
C7    C11   A    
C39   H19   S    
C5    C6    A    
C37   H16   S    
C27   H2    S    
C35   O10   S    
C29   C33   S    
C18   C19   A    
C17   H3    S    
C2    C13   A    
C36   O12   S    
Cu2   O4    S    
Cu1   Cu2   S    
C8    C9    A    
C39   H20   S    
C38   O13   D    
C1    C15   S    
C1    O1    A    
C4    C39   S    
C12   O4    A    
C7    C15   A    
C37   H14   S    
C16   C24   A    
Cu1   O5    S    
C16   C36   S    
Cu1   N1    S    
C12   O3    A    
C10   C37   S    
C39   H18   S    
C3    C38   S    
C24   C25   A    
Cu2   O8    S    
C19   H4    S    
C18   H5    S    
C17   N2    A    
O14   H17   S    
C6    C8    A    
C25   C26   A    
C5    H9    S    
O10   H12   S    
C36   O11   D    
C31   C32   S    
Cu1   O1    S    
C17   C18   A    
C1    O2    A    
Cu2   O2    S    
C29   O8    A    
C22   C27   A    
C9    C34   A    
C22   C24   A    
C25   C35   S    
C3    C4    A    
Cu1   O3    S    
C3    C15   A    
C26   H6    S    
C23   O5    A    
C9    C10   A    
C28   N1    A    
C12   C30   S    
Cu1   O7    S    
C34   H7    S    
C20   C22   A    
C4    C5    A    
C14   C34   A    
C23   O6    A    
C6    C7    A    
C29   O7    A    
C32   C33   T    
C35   O9    D    
Cu2   O6    S    
O12   H13   S    
C14   H1    S    
C30   C31   T    
C2    C14   A    
C10   C11   A    
C20   C21   A    
C2    C23   S    
C11   H10   S    
C38   O14   S    
C13   H8    S    
Cu2   N2    S    
