data_mof_unit_18590.cif
_audit_creation_date              2012-12-10T16:49:28-0500
_audit_creation_method            fapswitch 2.2
_symmetry_space_group_name_H-M    P1
_symmetry_Int_Tables_number       1
_space_group_crystal_system       triclinic
_cell_length_a                    7.723218
_cell_length_b                    8.581171
_cell_length_c                    12.901505
_cell_angle_alpha                 90.399995
_cell_angle_beta                  86.911886
_cell_angle_gamma                 93.448579
_cell_volume                      852.243927794

loop_
_atom_site_label
_atom_site_type_symbol
_atom_type_description
_atom_site_fract_x
_atom_site_fract_y
_atom_site_fract_z
_atom_type_partial_charge
C1    C     C_R   0.454677 0.205174 0.497270 0.970964
C2    C     C_R   0.715165 0.445215 0.134426 0.176726
C3    C     C_R   0.579059 0.463133 0.867252 -0.310548
C4    C     C_R   0.420941 0.536867 0.132747 -0.310548
C5    C     C_R   0.574730 0.474493 0.973396 0.135472
C6    C     C_R   0.425270 0.525507 0.026604 0.135472
C7    C     C_2   0.430673 0.041851 0.495748 -0.384059
C8    C     C_2   0.569327 0.958149 0.504251 -0.384059
C9    C     C_3   0.873149 0.399777 0.188524 -0.863428
C10   C     C_3   0.126851 0.600222 0.811476 -0.863428
C11   C     C_R   0.545323 0.794825 0.502730 0.970963
C12   C     C_R   0.463522 0.503271 0.700240 0.889636
C13   C     C_R   0.536478 0.496729 0.299760 0.889636
C14   C     C_R   0.561897 0.494034 0.187761 -0.072237
C15   C     C_R   0.438103 0.505966 0.812239 -0.072237
C16   C     C_R   0.280895 0.563550 0.973468 -0.213134
C17   C     C_R   0.719105 0.436450 0.026531 -0.213135
C18   C     C_R   0.284835 0.554785 0.865574 0.176726
H1    H     H_    0.304644 0.577636 0.172499 0.172771
H2    H     H_    0.928630 0.501251 0.232119 0.242104
H3    H     H_    0.837693 0.300657 0.241915 0.253613
H4    H     H_    0.022866 0.637899 0.867353 0.224799
H5    H     H_    0.162307 0.699343 0.758085 0.253613
H6    H     H_    0.071369 0.498749 0.767881 0.242104
H7    H     H_    0.695356 0.422364 0.827500 0.172771
H8    H     H_    0.165840 0.601175 0.016259 0.144039
H9    H     H_    0.834160 0.398825 0.983741 0.144039
H10   H     H_    0.998476 0.615111 0.422339 0.187970
H11   H     H_    0.001524 0.384889 0.577660 0.187970
H12   H     H_    0.299613 0.990984 0.487667 0.179826
H13   H     H_    0.700386 0.009016 0.512333 0.179826
H14   H     H_    0.977133 0.362101 0.132647 0.224799
N1    N     N_2   0.054030 0.541640 0.471970 -0.175626
N2    N     N_2   0.945970 0.458360 0.528030 -0.175626
O1    O     O_R   0.609680 0.261530 0.506880 -0.613733
O2    O     O_R   0.390320 0.738470 0.493120 -0.613733
O3    O     O_R   0.323330 0.288220 0.488910 -0.629429
O4    O     O_R   0.676670 0.711780 0.511090 -0.629429
O5    O     O_R   0.619510 0.488830 0.661140 -0.624462
O6    O     O_R   0.380490 0.511170 0.338860 -0.624462
O7    O     O_R   0.333160 0.515520 0.643180 -0.625500
O8    O     O_R   0.666840 0.484480 0.356820 -0.625500
Zn1   Zn    Zn3+2 0.691200 0.482180 0.511990 0.934236
Zn2   Zn    Zn3+2 0.308800 0.517820 0.488010 0.934236

loop_
_geom_bond_atom_site_label_1
_geom_bond_atom_site_label_2
_ccdc_geom_bond_type
C15   C18   A    
C12   O7    A    
C10   H5    S    
C11   O4    A    
O1    Zn1   S    
C9    H2    S    
C12   C15   S    
C1    O3    A    
C12   O5    A    
N1    N2    D    
C7    C8    D    
C7    H12   S    
C13   C14   S    
C10   H4    S    
C2    C17   A    
C4    C14   A    
C4    H1    S    
C9    H3    S    
C10   C18   S    
C8    C11   S    
C16   C18   A    
C13   O8    A    
C8    H13   S    
H10   N1    S    
C16   H8    S    
C5    C6    A    
C2    C14   A    
O7    Zn2   S    
O4    Zn1   S    
O2    Zn2   S    
C5    C17   A    
O8    Zn1   S    
C6    C16   A    
C17   H9    S    
O3    Zn2   S    
C3    C5    A    
O6    Zn2   S    
C3    H7    S    
C3    C15   A    
C1    O1    A    
C4    C6    A    
C11   O2    A    
C13   O6    A    
O5    Zn1   S    
C9    H14   S    
C10   H6    S    
C1    C7    S    
C2    C9    S    
H11   N2    S    
N2    Zn1   S    
N1    Zn2   S    
