data_mof_unit_43982.cif
_audit_creation_date              2012-12-11T14:08:35-0500
_audit_creation_method            fapswitch 2.2
_symmetry_space_group_name_H-M    P1
_symmetry_Int_Tables_number       1
_space_group_crystal_system       triclinic
_cell_length_a                    10.930964
_cell_length_b                    11.009055
_cell_length_c                    18.78438
_cell_angle_alpha                 89.932964
_cell_angle_beta                  90.077151
_cell_angle_gamma                 60.112461
_cell_volume                      1959.86280686

loop_
_atom_site_label
_atom_site_type_symbol
_atom_type_description
_atom_site_fract_x
_atom_site_fract_y
_atom_site_fract_z
_atom_type_partial_charge
C1    C     C_R   0.238374 0.644263 0.609208 0.548525
C2    C     C_2   0.794002 0.121784 0.701197 -0.185422
C3    C     C_2   0.187730 0.657149 0.682538 -0.151875
C4    C     C_R   0.654689 0.621064 0.601521 0.536024
C5    C     C_2   0.200661 0.659333 0.840812 -0.124453
C6    C     C_2   0.217967 0.547704 0.802523 -0.006327
C7    C     C_2   0.242602 0.542589 0.724786 -0.189749
C8    C     C_2   0.666731 0.681512 0.329461 -0.086470
C9    C     C_2   0.671914 0.682531 0.172310 -0.103319
C10   C     C_2   0.779445 0.657376 0.216331 -0.130713
C11   C     C_2   0.784463 0.614981 0.290109 -0.034329
C12   C     C_3   0.720060 0.551656 0.802596 -0.193314
C13   C     C_2   0.631975 0.190327 0.320611 -0.074585
C14   C     C_2   0.639202 0.188074 0.166262 -0.115136
C15   C     C_2   0.540164 0.185755 0.205659 -0.147412
C16   C     C_R   0.630455 0.222485 0.600115 0.548450
C17   C     C_2   0.518622 0.234793 0.276715 -0.038731
C18   C     C_2   0.117078 0.684774 0.345742 -0.127390
C19   C     C_2   0.111117 0.693393 0.191305 -0.129239
C20   C     C_2   0.030332 0.803887 0.233786 -0.148415
C21   C     C_2   0.058203 0.806114 0.309896 0.024210
C22   C     C_R   0.705315 0.099020 0.896361 0.565698
C23   C     C_3   0.714887 0.694082 0.808396 0.040980
C24   C     C_R   0.749782 0.709046 0.882820 0.541919
C25   C     C_R   0.120388 0.705483 0.907860 0.566130
C26   C     C_R   0.673915 0.111631 0.101566 0.559602
C27   C     C_R   0.696940 0.691202 0.097390 0.554508
C28   C     C_R   0.213157 0.653073 0.405398 0.562473
C29   C     C_R   0.085965 0.713704 0.115561 0.549468
C30   C     C_R   0.644511 0.626039 0.395393 0.552517
C31   C     C_R   0.611962 0.236276 0.393237 0.581408
C32   C     C_3   0.561643 0.807950 0.782556 -0.119914
C33   C     C_3   0.542926 0.781184 0.703873 -0.216192
C34   C     C_3   0.677034 0.648728 0.675899 0.072433
C35   C     C_3   0.829763 0.694081 0.759450 -0.250299
C36   C     C_3   0.521195 0.962093 0.792500 -0.372006
C37   C     C_3   0.853508 0.383196 0.706155 -0.345194
C38   C     C_2   0.955728 0.063414 0.807330 0.591577
C39   C     C_2   0.225143 0.421730 0.835901 0.590515
C40   C     C_3   0.921654 0.492481 0.316138 -0.350565
C41   C     C_3   0.367135 0.339154 0.294170 -0.343459
C42   C     C_2   0.023889 0.942450 0.342576 0.589122
C43   C     C_3   0.588631 0.482035 0.718950 -0.375022
C44   C     C_3   0.798610 0.682303 0.680653 -0.251038
C45   C     C_3   0.709593 0.516588 0.724352 0.012127
C46   C     C_2   0.676102 0.145640 0.667670 -0.153432
C47   C     C_2   0.697427 0.152898 0.823911 -0.133638
C48   C     C_2   0.811519 0.107616 0.780142 -0.008607
Cr1   Cr    Cr6+3 0.393010 0.398050 0.501480 1.011706
Cr2   Cr    Cr6+3 0.398820 0.707980 0.501630 1.052662
Cr3   Cr    Cr6+3 0.708140 0.393940 0.496850 1.027634
Cr4   Cr    Cr6+3 0.937950 0.938450 0.008940 1.064734
Cr5   Cr    Cr6+3 0.626180 0.937030 0.994750 1.012403
Cr6   Cr    Cr6+3 0.937790 0.625760 0.001410 1.057742
H1    H     H_    0.934601 0.603801 0.773537 0.159465
H2    H     H_    0.875854 0.648612 0.195008 0.155379
H3    H     H_    0.573835 0.690815 0.190575 0.094290
H4    H     H_    0.575939 0.775158 0.308294 0.103345
H5    H     H_    0.472309 0.146645 0.186393 0.170067
H6    H     H_    0.705367 0.228678 0.186146 0.117834
H7    H     H_    0.738593 0.121931 0.301778 0.110011
H8    H     H_    0.948353 0.901399 0.210564 0.170370
H9    H     H_    0.446703 0.771820 0.698392 0.146493
H10   H     H_    0.194979 0.594494 0.211138 0.080912
H11   H     H_    0.115560 0.595519 0.322518 0.067586
H12   H     H_    0.895488 0.602551 0.653229 0.137446
H13   H     H_    0.523249 0.871743 0.669454 0.133513
H14   H     H_    0.837316 0.790177 0.767548 0.109591
H15   H     H_    0.767840 0.783222 0.653153 0.121629
H16   H     H_    0.817726 0.466037 0.827125 0.184659
H17   H     H_    0.634109 0.555109 0.836012 0.119982
H18   H     H_    0.613811 0.974819 0.783869 0.134329
H19   H     H_    0.436102 0.032562 0.755240 0.144925
H20   H     H_    0.475702 0.998899 0.845998 0.195617
H21   H     H_    0.882309 0.302930 0.747719 0.149115
H22   H     H_    0.852876 0.331094 0.656486 0.181026
H23   H     H_    0.877261 0.122409 0.670226 0.166753
H24   H     H_    0.942250 0.404495 0.704502 0.157765
H25   H     H_    0.077577 0.095323 0.877077 0.339110
H26   H     H_    0.282818 0.291261 0.920454 0.333061
H27   H     H_    0.008266 0.465545 0.277491 0.108198
H28   H     H_    0.953017 0.518274 0.367705 0.146360
H29   H     H_    0.910909 0.397926 0.321810 0.165228
H30   H     H_    0.297491 0.362730 0.246943 0.099610
H31   H     H_    0.323443 0.299061 0.335284 0.173803
H32   H     H_    0.362677 0.437784 0.310006 0.151000
H33   H     H_    0.993379 0.137124 0.327892 0.329285
H34   H     H_    0.591766 0.205905 0.801705 0.091711
H35   H     H_    0.488791 0.567318 0.741153 0.109753
H36   H     H_    0.567325 0.465284 0.663472 0.171297
H37   H     H_    0.614107 0.388146 0.750552 0.132377
H38   H     H_    0.598116 0.129531 0.694929 0.105510
H39   H     H_    0.310260 0.439675 0.701883 0.174225
H40   H     H_    0.224744 0.733853 0.815922 0.138045
H41   H     H_    0.483020 0.793733 0.813850 0.145714
H42   H     H_    0.119938 0.760646 0.704034 0.161875
O1    O     O_R   0.507110 0.256280 0.580300 -0.515881
O2    O     O_R   0.837080 0.593860 0.915300 -0.510377
O3    O     O_R   0.064770 0.636080 0.932550 -0.468844
O4    O     O_R   0.280830 0.527190 0.577940 -0.500839
O5    O     O_R   0.068250 0.829200 0.092940 -0.498138
O6    O     O_R   0.799650 0.057040 0.080330 -0.499616
O7    O     O_R   0.586130 0.079760 0.077080 -0.513443
O8    O     O_R   0.627700 0.809630 0.066580 -0.490294
O9    O     O_R   0.816140 0.597180 0.075920 -0.502535
O10   O     O_R   0.045360 0.639170 0.081440 -0.500297
O11   O     O_3   0.833980 0.833750 0.001700 -0.288208
O12   O     O_R   0.524640 0.695370 0.425100 -0.497423
O13   O     O_R   0.261360 0.738990 0.584270 -0.496063
O14   O     O_R   0.532590 0.694780 0.574370 -0.516139
O15   O     O_R   0.744470 0.503750 0.577000 -0.534255
O16   O     O_R   0.698520 0.277230 0.571620 -0.503321
O17   O     O_R   0.498530 0.256920 0.419280 -0.521489
O18   O     O_R   0.272880 0.527780 0.428680 -0.528190
O19   O     O_R   0.252780 0.739630 0.423250 -0.460566
O20   O     O_2   0.058547 0.978185 0.773904 -0.577941
O21   O     O_R   0.974402 0.130985 0.865884 -0.665980
O22   O     O_2   0.187966 0.350728 0.802104 -0.555092
O23   O     O_R   0.735890 0.504390 0.415980 -0.518737
O24   O     O_R   0.281139 0.380038 0.904388 -0.671437
O25   O     O_2   0.993527 0.964136 0.405724 -0.504286
O26   O     O_R   0.020584 0.048409 0.300075 -0.715387
O27   O     O_R   0.690560 0.277820 0.422350 -0.477780
O28   O     O_3   0.499990 0.499990 0.499980 -0.266549
O29   O     O_R   0.089190 0.825870 0.932320 -0.500785
O30   O     O_R   0.819070 0.053960 0.931440 -0.445799
O31   O     O_R   0.607070 0.076440 0.916460 -0.536105
O32   O     O_R   0.647110 0.806550 0.917690 -0.514790

loop_
_geom_bond_atom_site_label_1
_geom_bond_atom_site_label_2
_ccdc_geom_bond_type
Cr1   O17   S    
H26   O24   S    
C18   C28   S    
Cr3   O16   S    
C18   C21   D    
Cr3   O27   S    
C44   H12   S    
C19   C20   D    
C5    H40   S    
C2    C46   D    
C18   H11   S    
C41   H32   S    
C12   C23   S    
Cr4   O6    S    
C43   H35   S    
Cr6   O11   S    
C24   O2    A    
C32   C36   S    
Cr5   O32   S    
C3    C7    D    
C5    C6    D    
C16   O1    A    
C22   O30   A    
C46   H38   S    
C30   O23   A    
C27   O9    A    
Cr5   O8    S    
C39   O24   S    
C27   O8    A    
Cr2   O14   S    
Cr2   O19   S    
C25   O29   A    
C4    O14   A    
Cr5   O31   S    
C8    H4    S    
C38   O21   S    
C25   O3    A    
Cr4   O11   S    
Cr3   O23   S    
C23   C24   S    
C3    H42   S    
C47   H34   S    
C10   H2    S    
C9    C10   D    
C38   C48   S    
C1    O13   A    
Cr1   O18   S    
C37   H21   S    
C4    O15   A    
Cr2   O12   S    
Cr3   O28   S    
C40   H29   S    
C1    O4    A    
C7    H39   S    
C4    C34   S    
Cr4   O5    S    
C43   H36   S    
Cr6   O10   S    
C35   H1    S    
C40   H28   S    
Cr2   O28   S    
C36   H19   S    
C16   C46   S    
Cr4   O30   S    
C2    C48   S    
Cr1   O28   S    
Cr2   O13   S    
C43   H37   S    
C1    C3    S    
C28   O19   A    
C26   O7    A    
C38   O20   D    
Cr5   O11   S    
C47   C48   D    
C16   O16   A    
C19   H10   S    
C33   H9    S    
C33   C34   S    
C29   O5    A    
C44   H15   S    
C34   C45   S    
C14   C26   S    
C35   C44   S    
C43   C45   S    
C28   O18   A    
C5    C25   S    
C12   H17   S    
C23   C35   S    
Cr6   O3    S    
C37   C45   S    
C19   C29   S    
C41   H31   S    
C9    C27   S    
C15   C17   S    
C34   C44   S    
C12   H16   S    
C36   H20   S    
Cr3   O15   S    
Cr6   O9    S    
C30   O12   A    
C14   C15   D    
C15   H5    S    
C40   H27   S    
C13   C31   S    
C12   C45   S    
H33   O26   S    
Cr4   O29   S    
C6    C7    S    
C39   O22   D    
C14   H6    S    
C37   H24   S    
C13   C17   D    
C8    C30   S    
C23   C32   S    
C31   O27   A    
C33   H13   S    
C32   C33   S    
Cr1   O4    S    
C41   H30   S    
C22   O31   A    
C35   H14   S    
Cr5   O7    S    
C8    C11   D    
H25   O21   S    
C37   H22   S    
C42   O26   S    
C22   C47   S    
C9    H3    S    
C20   H8    S    
C11   C40   S    
C29   O10   A    
C17   C41   S    
C10   C11   S    
Cr1   O1    S    
C21   C42   S    
C32   H41   S    
C13   H7    S    
C20   C21   S    
C24   O32   A    
C2    H23   S    
C6    C39   S    
Cr6   O2    S    
C31   O17   A    
C26   O6    A    
C36   H18   S    
C42   O25   D    
