data_mof_unit_48406.cif
_audit_creation_date              2013-03-05T15:52:14-0500
_audit_creation_method            fapswitch 2.2
_symmetry_space_group_name_H-M    P1
_symmetry_Int_Tables_number       1
_space_group_crystal_system       triclinic
_cell_length_a                    23.518517
_cell_length_b                    10.86361
_cell_length_c                    9.569173
_cell_angle_alpha                 90.390299
_cell_angle_beta                  89.865533
_cell_angle_gamma                 92.567473
_cell_volume                      2442.36935141

loop_
_atom_site_label
_atom_site_type_symbol
_atom_site_description
_atom_site_fract_x
_atom_site_fract_y
_atom_site_fract_z
_atom_type_partial_charge
O1    O     O_R   0.500000 0.319640 0.618810 -0.587181
O2    O     O_R   0.500000 0.319660 0.381240 -0.579836
C1    C     C_R   0.504546 0.263069 0.500302 0.810921
O3    O     O_R   0.417880 0.499950 0.618810 -0.579628
O4    O     O_R   0.417880 0.499980 0.381240 -0.577099
C2    C     C_R   0.390939 0.500035 0.500244 0.837961
Cu1   Cu    Cu3+1 0.500000 0.499990 0.640660 0.927789
Cu2   Cu    Cu3+1 0.500000 0.500010 0.359340 0.938058
O5    O     O_R   0.500000 0.680340 0.618760 -0.613788
O6    O     O_R   0.500000 0.680360 0.381190 -0.597336
O7    O     O_R   0.582120 0.500020 0.618760 -0.605290
O8    O     O_R   0.582120 0.500050 0.381190 -0.598671
C3    C     C_R   0.496895 0.737640 0.501590 0.786056
C4    C     C_R   0.609049 0.500835 0.499814 0.775652
C5    C     C_R   0.882497 0.611833 0.463470 0.536114
N1    N     N_R   0.852001 0.505768 0.497192 -0.470917
C6    C     C_R   0.878413 0.399954 0.530090 0.536799
C7    C     C_R   0.938022 0.398093 0.530352 -0.015468
C8    C     C_R   0.970051 0.506468 0.496274 -0.012906
C9    C     C_R   0.942199 0.614396 0.462262 -0.014883
C10   C     C_R   0.966226 0.290844 0.563620 -0.153193
C11   C     C_R   0.025559 0.291294 0.563636 -0.146499
C12   C     C_R   0.057918 0.399040 0.530557 -0.017943
C13   C     C_R   0.030075 0.506985 0.496502 -0.012874
C14   C     C_R   0.062112 0.615499 0.462913 -0.018825
C15   C     C_R   0.033903 0.722533 0.428838 -0.143088
C16   C     C_R   0.974564 0.721987 0.428506 -0.153083
C17   C     C_R   0.117607 0.402016 0.531074 0.602355
N2    N     N_R   0.148083 0.508758 0.500049 -0.451597
C18   C     C_R   0.121723 0.614127 0.465232 0.600958
O9    O     O_2   0.855093 0.714624 0.432308 -0.532232
O10   O     O_2   0.847038 0.296759 0.561539 -0.530657
H1    H     H_    0.942577 0.206289 0.589925 0.192491
H2    H     H_    0.045945 0.207102 0.590031 0.194054
O11   O     O_2   0.145063 0.299359 0.562498 -0.511422
O12   O     O_2   0.153161 0.717360 0.434333 -0.510158
H3    H     H_    0.057556 0.807115 0.402656 0.194543
H4    H     H_    0.954179 0.806152 0.402001 0.191087
C19   C     C_R   0.238850 0.505883 0.376610 -0.134852
H5    H     H_    0.215895 0.504558 0.278583 0.185544
C20   C     C_R   0.297926 0.502329 0.375292 -0.189163
H6    H     H_    0.319730 0.499301 0.275596 0.180994
C21   C     C_R   0.328316 0.502318 0.501204 -0.111072
C22   C     C_R   0.298536 0.506197 0.628542 -0.270370
H7    H     H_    0.321732 0.507447 0.726206 0.196095
C23   C     C_R   0.239015 0.511045 0.631454 0.386596
C24   C     C_R   0.209079 0.510022 0.503340 0.235368
C25   C     C_R   0.761220 0.512409 0.372031 -0.101184
H8    H     H_    0.784081 0.518416 0.273778 0.143261
C26   C     C_R   0.701916 0.510899 0.372499 -0.220773
H9    H     H_    0.679835 0.516296 0.273687 0.163842
C27   C     C_R   0.671682 0.502611 0.499291 -0.037581
C28   C     C_R   0.701882 0.496350 0.625484 -0.223136
H10   H     H_    0.679758 0.490226 0.724761 0.162845
C29   C     C_R   0.761194 0.497486 0.624638 -0.100362
H11   H     H_    0.784054 0.492411 0.722380 0.143209
C30   C     C_R   0.791029 0.505398 0.497977 0.356524
H12   H     H_    0.497514 0.109330 0.279171 0.162216
C31   C     C_R   0.537220 0.122705 0.754710 -0.151114
H13   H     H_    0.560276 0.210986 0.753493 0.163273
C32   C     C_R   0.530702 0.064889 0.883572 -0.154669
H14   H     H_    0.545957 0.110838 0.977917 0.138182
C33   C     C_R   0.502617 0.950060 0.891177 -0.132717
H15   H     H_    0.494458 0.907812 0.991840 0.141151
C34   C     C_R   0.486375 0.887823 0.768783 -0.149617
H16   H     H_    0.462477 0.801635 0.781820 0.173491
C35   C     C_R   0.498602 0.939665 0.635598 0.093802
C36   C     C_R   0.515667 0.065497 0.630857 0.098231
C37   C     C_R   0.509676 0.129291 0.503000 -0.118105
C38   C     C_R   0.500786 0.062972 0.378538 -0.200417
H17   H     H_    0.492154 0.887202 0.281070 0.165222
C39   C     C_R   0.495939 0.935788 0.380103 -0.201233
C40   C     C_R   0.494721 0.872335 0.507110 -0.109763
H18   H     H_    0.435922 0.359821 0.128730 0.144460
C41   C     C_R   0.575718 0.664089 0.145053 -0.166410
H19   H     H_    0.579585 0.671750 0.255156 0.203257
C42   C     C_R   0.612604 0.744319 0.073003 -0.219782
H20   H     H_    0.641439 0.807044 0.129612 0.165403
C43   C     C_R   0.612641 0.744161 0.929069 -0.191246
H21   H     H_    0.641378 0.807005 0.872970 0.165003
C44   C     C_R   0.575716 0.663928 0.856366 -0.153824
H22   H     H_    0.579166 0.672145 0.746314 0.204289
C45   C     C_R   0.537185 0.580718 0.925473 0.192139
C46   C     C_R   0.537178 0.580724 0.075245 0.209418
N3    N     N_R   0.500540 0.501210 0.147910 -0.199867
C47   C     C_R   0.464763 0.422936 0.073589 -0.062719
H23   H     H_    0.435967 0.359836 0.869646 0.153524
C48   C     C_R   0.464781 0.422964 0.925492 -0.058900
N4    N     N_R   0.500560 0.501290 0.852040 -0.206293
N5    N     N_R   0.209998 0.517661 0.764010 0.139208
O13   O     O_R   0.161293 0.569243 0.774733 -0.336621
O14   O     O_R   0.234370 0.480903 0.877383 -0.355021

loop_
_geom_bond_atom_site_label_1
_geom_bond_atom_site_label_2
_geom_bond_distance
_ccdc_geom_bond_type
C29   H11   1.082870 S    
C33   C34   1.393897 A    
C7    C10   1.405029 A    
C20   H6    1.083038 S    
C8    C9    1.408809 A    
C21   C22   1.405351 A    
C44   H22   1.060105 S    
C25   C30   1.399922 A    
C19   C20   1.391657 A    
C28   H10   1.083102 S    
C22   H7    1.082940 S    
Cu1   O7    1.942174 S    
C15   C16   1.395328 A    
N2    C24   1.434396 S    
C17   N2    1.369587 A    
C1    C37   1.464097 S    
C7    C8    1.408746 A    
N3    C47   1.366501 A    
O4    C2    1.301886 A    
O7    C4    1.301138 A    
C47   C48   1.417168 A    
C41   C46   1.417394 A    
C10   H1    1.083149 S    
C16   H4    1.083147 S    
C5    N1    1.369727 A    
Cu1   N4    2.022755 S    
Cu2   N3    2.023348 S    
C32   C33   1.387418 A    
O5    C3    1.289928 A    
C46   N3    1.382336 A    
C4    C27   1.472304 S    
C17   O11   1.349482 S    
C36   C37   1.420619 A    
C34   C35   1.420457 A    
C26   C27   1.406231 A    
C12   C13   1.408945 A    
C35   C40   1.427365 A    
C42   C43   1.377315 A    
C31   H13   1.080500 S    
C10   C11   1.395198 A    
C20   C21   1.402361 A    
C32   H14   1.082716 S    
O3    Cu1   1.943094 S    
C45   N4    1.381405 A    
C44   C45   1.416899 A    
C22   C23   1.403413 A    
C26   H9    1.083035 S    
C28   C29   1.394427 A    
C5    C9    1.403160 A    
C11   H2    1.083154 S    
C31   C32   1.392691 A    
C35   C36   1.408325 A    
Cu1   Cu2   2.692000 S    
C13   C14   1.408949 A    
O3    C2    1.300845 A    
C19   H5    1.083090 S    
C43   C44   1.387304 A    
H12   C38   1.083529 S    
C14   C15   1.404915 A    
C42   H20   1.083037 S    
C33   H15   1.082869 S    
O1    C1    1.292655 A    
C41   H19   1.060109 S    
N2    C18   1.369455 A    
C31   C36   1.418585 A    
N5    O14   1.301662 A    
C45   C46   1.433195 A    
Cu2   O8    1.943094 S    
C6    C7    1.402965 A    
C12   C17   1.402754 A    
H18   C47   1.081760 S    
C41   C42   1.387532 A    
C25   H8    1.082883 S    
O8    C4    1.300947 A    
C2    C21   1.474116 S    
C29   C30   1.400294 A    
C27   C28   1.405984 A    
C19   C24   1.400364 A    
C14   C18   1.402947 A    
Cu1   O5    1.971848 S    
C23   C24   1.414888 A    
O1    Cu1   1.968959 S    
O2    Cu2   1.971846 S    
C3    C40   1.467047 S    
C39   C40   1.400909 A    
O6    C3    1.309142 A    
O4    Cu2   1.942176 S    
C15   H3    1.083150 S    
C5    O9    1.349512 S    
C23   N5    1.441857 S    
C9    C16   1.405046 A    
C18   O12   1.349448 S    
O2    C1    1.305166 A    
H17   C39   1.083495 S    
N5    O13   1.301093 A    
N1    C6    1.369746 A    
C25   C26   1.394108 A    
C8    C13   1.411440 A    
N1    C30   1.433792 S    
C37   C38   1.399015 A    
C43   H21   1.083047 S    
C48   N4    1.366519 A    
H23   C48   1.081756 S    
Cu2   O6    1.968960 S    
C34   H16   1.078084 S    
C6    O10   1.349545 S    
C11   C12   1.404842 A    
C38   C39   1.381453 A    
