data_mof_unit_27568.cif
_audit_creation_date              2012-12-10T17:50:11-0500
_audit_creation_method            fapswitch 2.2
_symmetry_space_group_name_H-M    P1
_symmetry_Int_Tables_number       1
_space_group_crystal_system       triclinic
_cell_length_a                    10.613073
_cell_length_b                    14.666745
_cell_length_c                    14.53229
_cell_angle_alpha                 64.170481
_cell_angle_beta                  104.109864
_cell_angle_gamma                 103.14081
_cell_volume                      1955.55823878

loop_
_atom_site_label
_atom_site_type_symbol
_atom_type_description
_atom_site_fract_x
_atom_site_fract_y
_atom_site_fract_z
_atom_type_partial_charge
C1    C     C_R   0.477234 0.120402 0.309963 0.797211
C2    C     C_R   0.519745 0.879525 0.689852 0.799121
C3    C     C_R   0.450502 0.292031 0.170395 -0.258240
C4    C     C_R   0.476441 0.706378 0.826017 -0.288977
C5    C     C_R   0.404161 0.359031 0.069096 0.055213
C6    C     C_R   0.442227 0.637779 0.923073 0.054431
C7    C     C_R   0.373750 0.324317 0.988320 0.055985
C8    C     C_R   0.470626 0.671627 0.004724 0.060156
C9    C     C_R   0.398494 0.462499 0.045977 0.003766
C10   C     C_R   0.392205 0.533613 0.942527 -0.049439
C11   C     C_R   0.332812 0.497250 0.863485 0.110925
C12   C     C_R   0.396332 0.497921 0.122071 0.137697
C13   C     C_R   0.336142 0.393534 0.884095 0.145222
C14   C     C_R   0.452272 0.599917 0.106828 0.084889
C15   C     C_R   0.745265 0.296318 0.647760 -0.324013
C16   C     C_R   0.247448 0.696566 0.364878 -0.328653
C17   C     C_R   0.700871 0.210413 0.625273 0.080933
C18   C     C_R   0.296793 0.786960 0.378274 0.070358
C19   C     C_R   0.507987 0.279711 0.519843 -0.018509
C20   C     C_R   0.489249 0.718270 0.485576 -0.007059
C21   C     C_R   0.546093 0.368235 0.541938 -0.037288
C22   C     C_R   0.445859 0.624735 0.473270 -0.018756
C23   C     C_R   0.259498 0.000492 0.499658 0.843693
C24   C     C_R   0.740558 0.999772 0.500003 0.841662
C25   C     C_R   0.669537 0.376340 0.604734 0.176185
C26   C     C_R   0.320378 0.614605 0.413600 0.161817
C27   C     C_R   0.468298 0.449352 0.502299 0.085314
C28   C     C_R   0.520743 0.541218 0.518579 0.078318
C29   C     C_R   0.646217 0.546392 0.579188 -0.265035
C30   C     C_R   0.339274 0.440967 0.448373 -0.251370
C31   C     C_R   0.717449 0.464601 0.623079 -0.205364
C32   C     C_R   0.267485 0.522390 0.404264 -0.227162
C33   C     C_3   0.012411 0.004196 0.409927 0.529251
C34   C     C_3   0.988081 0.996772 0.589256 0.528978
C35   C     C_3   0.959151 0.087131 0.421757 -0.317414
C36   C     C_3   0.041174 0.913767 0.577449 -0.315651
C37   C     C_3   0.876972 0.999767 0.499091 -0.092574
C38   C     C_3   0.123285 0.001027 0.500161 -0.091012
C39   C     C_3   0.928638 0.916831 0.485429 -0.277738
C40   C     C_3   0.071780 0.084082 0.513641 -0.278623
C41   C     C_R   0.450277 0.187973 0.197288 -0.086883
C42   C     C_R   0.514504 0.811297 0.801110 -0.095320
C43   C     C_R   0.378680 0.220459 0.014337 -0.232538
C44   C     C_R   0.511386 0.776913 0.980497 -0.214747
C45   C     C_R   0.416164 0.151809 0.116656 0.160088
C46   C     C_R   0.533417 0.847095 0.880811 0.157475
Cu1   Cu    Cu3+1 0.465750 0.918270 0.475680 0.933955
Cu2   Cu    Cu3+1 0.534250 0.081730 0.524320 0.933079
H1    H     H_    0.922116 0.156655 0.358150 0.142331
H2    H     H_    0.078449 0.844394 0.641191 0.145938
H3    H     H_    0.579847 0.730866 0.533947 0.127162
H4    H     H_    0.419421 0.270028 0.468043 0.122906
H5    H     H_    0.238918 0.849316 0.343085 0.149894
H6    H     H_    0.759858 0.148926 0.657730 0.149645
H7    H     H_    0.839053 0.300779 0.697280 0.134615
H8    H     H_    0.151845 0.690149 0.318231 0.140318
H9    H     H_    0.692222 0.612465 0.595264 0.138230
H10   H     H_    0.290397 0.371734 0.439322 0.135945
H11   H     H_    0.867547 0.849704 0.472774 0.150164
H12   H     H_    0.133015 0.151464 0.525695 0.147671
H13   H     H_    0.472020 0.677716 0.768008 0.169451
H14   H     H_    0.490898 0.321545 0.229232 0.164509
H15   H     H_    0.352999 0.190657 0.955191 0.147322
H16   H     H_    0.519931 0.808512 0.036460 0.127131
H17   H     H_    0.812275 0.471235 0.670557 0.146732
H18   H     H_    0.169659 0.513226 0.361611 0.144768
N1    N     N_R   0.585750 0.204560 0.560800 -0.172866
N2    N     N_R   0.414250 0.795440 0.439200 -0.177206
O1    O     O_R   0.454850 0.022100 0.338110 -0.572334
O2    O     O_R   0.545150 0.977900 0.661890 -0.573078
O3    O     O_R   0.512700 0.160150 0.379180 -0.584684
O4    O     O_R   0.487300 0.839850 0.620820 -0.585886
O5    O     O_R   0.287930 0.931000 0.479440 -0.564358
O6    O     O_R   0.712070 0.069000 0.520560 -0.564386
O7    O     O_R   0.345780 0.069050 0.520520 -0.605279
O8    O     O_R   0.654220 0.930950 0.479480 -0.602266
O9    O     O_3   0.037491 0.007998 0.317253 -0.587081
C47   C     C_3   0.919316 0.012154 0.246418 0.059638
H19   H     H_    0.877006 0.082725 0.225918 0.141021
H20   H     H_    0.846395 0.943708 0.278663 0.144092
C48   C     C_3   0.946901 0.014156 0.147584 -0.801686
H21   H     H_    0.988242 0.944133 0.165173 0.242393
H22   H     H_    0.854441 0.017327 0.091088 0.195581
H23   H     H_    0.018190 0.082475 0.112532 0.249747
O10   O     O_3   0.964246 0.992963 0.682333 -0.588029
C49   C     C_3   0.084178 0.994834 0.750239 0.061735
H24   H     H_    0.152456 0.065587 0.715105 0.141625
H25   H     H_    0.131762 0.926571 0.771131 0.143568
C50   C     C_3   0.058107 0.993632 0.849184 -0.807351
H26   H     H_    0.991660 0.923173 0.887475 0.250730
H27   H     H_    0.151934 0.995384 0.903232 0.192345
H28   H     H_    0.011743 0.061583 0.830879 0.239905
C51   C     C_3   0.306787 0.358723 0.795066 -0.423167
C52   C     C_3   0.432784 0.346858 0.770670 -0.823501
H29   H     H_    0.494469 0.422457 0.742388 0.265466
H30   H     H_    0.490954 0.293562 0.839382 0.248365
H31   H     H_    0.407527 0.316669 0.709507 0.246521
H32   H     H_    0.237255 0.286521 0.812941 0.187511
H33   H     H_    0.257607 0.413189 0.721919 0.224252
C53   C     C_3   0.505021 0.625136 0.202387 -0.417993
C54   C     C_3   0.607541 0.557058 0.277854 -0.806344
H34   H     H_    0.563580 0.475755 0.310933 0.246914
H35   H     H_    0.688057 0.564061 0.237617 0.247623
H36   H     H_    0.650080 0.581411 0.342730 0.248223
H37   H     H_    0.555222 0.703786 0.184979 0.196714
H38   H     H_    0.424548 0.617855 0.242265 0.210047
C55   C     C_3   0.577600 0.958059 0.865783 -0.370677
C56   C     C_3   0.461144 0.017924 0.826936 -0.814353
H39   H     H_    0.497283 0.099673 0.811520 0.239245
H40   H     H_    0.402110 0.012885 0.754527 0.259398
H41   H     H_    0.396743 0.987161 0.886753 0.230400
H42   H     H_    0.628546 0.962423 0.940642 0.178739
H43   H     H_    0.653059 0.995365 0.814767 0.216132
C57   C     C_3   0.421629 0.042774 0.133359 -0.362821
C58   C     C_3   0.562940 0.020480 0.159369 -0.830479
H44   H     H_    0.616465 0.031825 0.230140 0.248312
H45   H     H_    0.562890 0.940008 0.172437 0.230342
H46   H     H_    0.615936 0.071754 0.093803 0.239677
H47   H     H_    0.362566 0.986371 0.192613 0.217812
H48   H     H_    0.375497 0.029338 0.062121 0.174724
C59   C     C_3   0.245221 0.562457 0.767087 -0.395698
C60   C     C_3   0.100357 0.516665 0.766837 -0.864425
H49   H     H_    0.081289 0.439714 0.765576 0.243263
H50   H     H_    0.068281 0.510646 0.836813 0.255489
H51   H     H_    0.040215 0.567516 0.697086 0.241157
H52   H     H_    0.248190 0.639543 0.764332 0.217254
H53   H     H_    0.277650 0.574321 0.695108 0.203336
C61   C     C_3   0.309606 0.436939 0.205811 -0.394716
C62   C     C_3   0.176959 0.387372 0.166136 -0.832485
H54   H     H_    0.128745 0.444395 0.093682 0.250707
H55   H     H_    0.188173 0.321661 0.151650 0.265759
H56   H     H_    0.112135 0.358007 0.225517 0.234404
H57   H     H_    0.359596 0.378564 0.274985 0.191199
H58   H     H_    0.284362 0.488874 0.233150 0.213687

loop_
_geom_bond_atom_site_label_1
_geom_bond_atom_site_label_2
_ccdc_geom_bond_type
C25   C31   A    
C38   C40   S    
C26   C32   A    
C54   H34   S    
C40   H12   S    
C34   C37   S    
C55   H42   S    
C24   O6    A    
C61   C62   S    
C48   H21   S    
C43   H15   S    
O9    C47   S    
C44   H16   S    
C53   H37   S    
C51   C52   S    
C34   C40   S    
C28   C29   A    
C35   C37   S    
Cu1   O8    S    
C59   H53   S    
C20   H3    S    
C47   H20   S    
C15   C25   A    
C18   N2    A    
C58   H44   S    
C56   H39   S    
C31   H17   S    
C42   C46   A    
Cu1   O1    S    
C18   H5    S    
C45   C57   S    
C33   C39   S    
C55   H43   S    
C58   H45   S    
C35   H1    S    
C55   C56   S    
C19   N1    A    
C7    C43   A    
C50   H27   S    
C9    C10   A    
C51   H33   S    
C34   C36   S    
C57   H47   S    
C62   H56   S    
C21   C27   A    
C54   H35   S    
C22   C28   A    
C27   C30   A    
Cu2   O7    S    
C11   C59   S    
C23   O5    A    
C2    O4    A    
C19   H4    S    
C48   H22   S    
C44   C46   A    
C57   C58   S    
C16   C26   A    
C17   N1    A    
Cu2   O6    S    
Cu1   O5    S    
C4    C6    A    
Cu2   O2    S    
C5    C7    A    
C17   H6    S    
C47   H19   S    
C24   O8    A    
C6    C8    A    
C52   H31   S    
O10   C49   S    
C4    H13   S    
C1    O1    A    
C13   C51   S    
C34   O10   S    
C15   H7    S    
C16   H8    S    
C5    C9    A    
C61   H58   S    
Cu1   Cu2   S    
C58   H46   S    
C39   H11   S    
C46   C55   S    
C24   C37   S    
C16   C18   A    
C1    O3    A    
C50   H28   S    
C52   H30   S    
C43   C45   A    
C59   C60   S    
C1    C41   S    
C29   H9    S    
C54   H36   S    
C20   C22   A    
Cu2   O3    S    
C60   H50   S    
C50   H26   S    
Cu1   N2    S    
C48   H23   S    
C36   H2    S    
C32   H18   S    
C62   H54   S    
C3    H14   S    
C15   C17   A    
C21   C25   A    
C3    C41   A    
C8    C14   A    
C19   C21   A    
C49   H24   S    
C20   N2    A    
C36   C39   S    
C8    C44   A    
C23   O7    A    
C3    C5    A    
C49   C50   S    
C6    C10   A    
C14   C53   S    
C12   C61   S    
C23   C38   S    
C53   H38   S    
C33   C38   S    
C56   H41   S    
C60   H51   S    
C36   C38   S    
C35   C40   S    
C12   C14   A    
C59   H52   S    
C37   C39   S    
C61   H57   S    
C30   C32   A    
C11   C13   A    
C47   C48   S    
C33   O9    S    
C4    C42   A    
C2    C42   S    
C30   H10   S    
C53   C54   S    
C33   C35   S    
C56   H40   S    
C49   H25   S    
Cu2   N1    S    
C52   H29   S    
C9    C12   A    
Cu1   O4    S    
C10   C11   A    
C7    C13   A    
C29   C31   A    
C22   C26   A    
C27   C28   A    
C41   C45   A    
C60   H49   S    
C2    O2    A    
C51   H32   S    
C57   H48   S    
C62   H55   S    
