data_mof_unit_41789.cif
_audit_creation_date              2012-12-10T16:52:08-0500
_audit_creation_method            fapswitch 2.2
_symmetry_space_group_name_H-M    P1
_symmetry_Int_Tables_number       1
_space_group_crystal_system       triclinic
_cell_length_a                    7.759709
_cell_length_b                    8.636043
_cell_length_c                    14.902513
_cell_angle_alpha                 91.280891
_cell_angle_beta                  86.227277
_cell_angle_gamma                 93.417212
_cell_volume                      994.558457744

loop_
_atom_site_label
_atom_site_type_symbol
_atom_type_description
_atom_site_fract_x
_atom_site_fract_y
_atom_site_fract_z
_atom_type_partial_charge
C1    C     C_R   0.544969 0.794093 0.497497 0.946295
C2    C     C_R   0.546312 0.639975 0.813225 -0.020735
C3    C     C_R   0.489388 0.501119 0.232405 -0.129095
C4    C     C_R   0.507530 0.500557 0.767582 -0.164423
C5    C     C_R   0.554541 0.633943 0.187408 0.341824
C6    C     C_R   0.464128 0.361737 0.811599 0.398158
C7    C     C_R   0.534995 0.642905 0.094668 -0.105415
C8    C     C_R   0.442878 0.363184 0.905891 -0.033610
C9    C     C_R   0.480831 0.505512 0.047472 -0.044292
C10   C     C_R   0.487395 0.503181 0.953347 -0.081265
C11   C     C_R   0.421533 0.369956 0.094355 0.111233
C12   C     C_R   0.455030 0.205910 0.502491 0.951196
C13   C     C_R   0.539516 0.641057 0.906722 0.067444
C14   C     C_R   0.568773 0.783196 0.047313 0.385950
C15   C     C_R   0.373051 0.231656 0.953530 0.441272
C16   C     C_R   0.576737 0.779337 0.954270 -0.145384
C17   C     C_R   0.363757 0.236841 0.047337 -0.229014
C18   C     C_2   0.567211 0.956244 0.507548 -0.086937
C19   C     C_2   0.432795 0.043770 0.492380 -0.084956
C20   C     C_R   0.502747 0.500476 0.672540 0.960859
C21   C     C_R   0.496988 0.499223 0.327395 0.958672
C22   C     C_R   0.419606 0.370175 0.187805 -0.017384
H1    H     H_    0.607323 0.887470 0.919591 0.204269
H2    H     H_    0.514009 0.149358 0.786526 0.364985
H3    H     H_    0.506394 0.925936 0.143869 0.361723
H4    H     H_    0.264960 0.021179 0.951787 0.336439
H5    H     H_    0.829193 0.990743 0.497922 0.197439
H6    H     H_    0.741321 0.966572 0.604157 0.175512
H7    H     H_    0.170870 0.009007 0.502020 0.199464
H8    H     H_    0.258570 0.033912 0.395824 0.173092
H9    H     H_    0.311336 0.135284 0.083358 0.177696
H10   H     H_    0.013929 0.382649 0.432403 0.186701
H11   H     H_    0.986074 0.617365 0.567588 0.189636
H12   H     H_    0.454481 0.196165 0.273323 0.185893
H13   H     H_    0.253067 0.264722 0.281548 0.188462
H14   H     H_    0.490909 0.804484 0.725691 0.199257
H15   H     H_    0.702364 0.762477 0.722266 0.182306
H16   H     H_    0.740053 0.792149 0.196273 0.366951
N1    N     N_2   0.950330 0.457950 0.475660 -0.164221
N2    N     N_2   0.049670 0.542050 0.524340 -0.163613
N3    N     N_3   0.355381 0.234576 0.236664 -0.466375
N4    N     N_3   0.592612 0.780334 0.764898 -0.461765
N5    N     N_3   0.726063 0.018960 0.542845 -0.417214
N6    N     N_3   0.273989 0.981107 0.457006 -0.420720
O1    O     O_R   0.389250 0.738570 0.505970 -0.596397
O2    O     O_3   0.444586 0.227612 0.760237 -0.725204
O3    O     O_3   0.585215 0.927177 0.088776 -0.774660
O4    O     O_3   0.307360 0.102034 0.908136 -0.742715
O5    O     O_R   0.610750 0.261430 0.494030 -0.596043
O6    O     O_R   0.678390 0.711620 0.490370 -0.638905
O7    O     O_R   0.321610 0.288380 0.509630 -0.640844
O8    O     O_R   0.355420 0.513510 0.639950 -0.605342
O9    O     O_R   0.644580 0.486490 0.360050 -0.596738
O10   O     O_R   0.644560 0.486560 0.624350 -0.631836
O11   O     O_R   0.355440 0.513440 0.375650 -0.641130
O12   O     O_3   0.641991 0.748629 0.235683 -0.772383
Zn1   Zn    Zn3+2 0.306940 0.517990 0.510420 0.971553
Zn2   Zn    Zn3+2 0.693060 0.482010 0.489580 0.974338

loop_
_geom_bond_atom_site_label_1
_geom_bond_atom_site_label_2
_ccdc_geom_bond_type
H11   N2    S    
C2    C4    A    
O9    Zn2   S    
C8    C10   A    
H13   N3    S    
C14   O3    S    
O7    Zn1   S    
C16   H1    S    
C6    O2    S    
C9    C10   A    
H3    O3    S    
C5    O12   S    
H14   N4    S    
H4    O4    S    
H2    O2    S    
H10   N1    S    
C12   O5    A    
C21   O11   A    
C20   O8    A    
C18   N5    S    
C21   O9    A    
C9    C11   A    
H8    N6    S    
C1    C18   S    
H12   N3    S    
C15   O4    S    
C2    N4    S    
C17   H9    S    
C12   C19   S    
C4    C6    A    
C8    C15   A    
C7    C9    A    
O11   Zn1   S    
H7    N6    S    
O10   Zn2   S    
O1    Zn1   S    
C1    O1    A    
C14   C16   A    
C3    C21   S    
C22   N3    S    
O8    Zn1   S    
O6    Zn2   S    
H5    N5    S    
N1    N2    D    
C12   O7    A    
H16   O12   S    
C19   N6    S    
C11   C22   A    
C20   O10   A    
C18   C19   D    
C1    O6    A    
C13   C16   A    
H15   N4    S    
C5    C7    A    
C2    C13   A    
C11   C17   A    
C3    C22   A    
C6    C8    A    
N2    Zn1   S    
H6    N5    S    
C15   C17   A    
N1    Zn2   S    
C7    C14   A    
O5    Zn2   S    
C3    C5    A    
C10   C13   A    
C4    C20   S    
