data_mof_unit_39700.cif
_audit_creation_date              2012-12-11T14:35:59-0500
_audit_creation_method            fapswitch 2.2
_symmetry_space_group_name_H-M    P1
_symmetry_Int_Tables_number       1
_space_group_crystal_system       triclinic
_cell_length_a                    13.490614
_cell_length_b                    13.476195
_cell_length_c                    27.42557
_cell_angle_alpha                 90.951182
_cell_angle_beta                  90.266199
_cell_angle_gamma                 60.216941
_cell_volume                      4326.80131024

loop_
_atom_site_label
_atom_site_type_symbol
_atom_type_description
_atom_site_fract_x
_atom_site_fract_y
_atom_site_fract_z
_atom_type_partial_charge
C1    C     C_R   0.620490 0.101796 0.569972 0.548393
C2    C     C_1   0.630816 0.732185 0.616149 0.027211
C3    C     C_3   0.719110 0.558832 0.767292 0.358245
C4    C     C_3   0.680699 0.654862 0.805939 0.024199
C5    C     C_3   0.605517 0.627872 0.739592 -0.087660
C6    C     C_3   0.661888 0.684032 0.710508 -0.107839
C7    C     C_3   0.568478 0.724259 0.778427 0.434131
C8    C     C_3   0.622541 0.781982 0.748883 -0.043226
C9    C     C_1   0.688887 0.634175 0.858286 0.095217
C10   C     C_1   0.648389 0.705252 0.658200 -0.020370
C11   C     C_3   0.065868 0.187064 0.737683 -0.148938
C12   C     C_R   0.599718 0.779320 0.568585 0.551714
C13   C     C_3   0.132818 0.084774 0.772241 -0.035406
C14   C     C_1   0.100627 0.198103 0.902833 0.088734
C15   C     C_1   0.228782 0.139293 0.617239 0.051532
C16   C     C_3   0.087646 0.263394 0.774128 0.359892
C17   C     C_3   0.153138 0.161756 0.808400 0.013180
C18   C     C_3   0.199903 0.233863 0.748023 -0.026889
C19   C     C_3   0.179639 0.156642 0.711963 -0.082229
C20   C     C_3   0.265219 0.132004 0.782182 0.351542
C21   C     C_3   0.245491 0.054615 0.746016 0.393734
C22   C     C_1   0.130257 0.176395 0.860870 0.132908
C23   C     C_R   0.277234 0.122230 0.569480 0.538066
C24   C     C_1   0.201008 0.149028 0.659430 0.050210
C25   C     C_3   0.649138 0.271692 0.739366 -0.101239
C26   C     C_3   0.561322 0.273386 0.776022 -0.058631
C27   C     C_1   0.689914 0.207195 0.903524 0.084352
C28   C     C_1   0.636081 0.134754 0.617920 0.023640
C29   C     C_3   0.745923 0.185457 0.772328 0.377652
C30   C     C_3   0.658266 0.188619 0.808780 0.076084
C31   C     C_3   0.748911 0.083061 0.744905 -0.085563
C32   C     C_3   0.650297 0.169382 0.712793 -0.087965
C33   C     C_3   0.659338 0.088286 0.781261 0.381823
C34   C     C_R   0.622667 0.100530 0.431443 0.568035
C35   C     C_3   0.560474 0.172488 0.748522 -0.094685
C36   C     C_1   0.671484 0.197175 0.861333 0.124360
C37   C     C_1   0.644329 0.154239 0.660225 -0.017010
C38   C     C_R   0.744215 0.679976 0.362839 -0.049149
C39   C     C_R   0.749546 0.683881 0.311154 -0.058688
C40   C     C_R   0.761341 0.676034 0.207581 -0.060396
C41   C     C_R   0.842441 0.688914 0.235637 0.401652
C42   C     C_R   0.836853 0.694017 0.286811 0.046529
C43   C     C_R   0.772973 0.656221 0.156273 -0.067897
C44   C     C_R   0.684931 0.650057 0.130351 0.009519
C45   C     C_R   0.603061 0.772224 0.431018 0.536181
C46   C     C_R   0.561511 0.686298 0.357679 0.013008
C47   C     C_R   0.566635 0.684935 0.306413 -0.008811
C48   C     C_R   0.659977 0.685134 0.283054 0.012550
C49   C     C_R   0.479377 0.685242 0.278097 -0.155025
C50   C     C_R   0.481577 0.686103 0.227483 -0.006347
C51   C     C_R   0.573828 0.687209 0.203723 0.020473
C52   C     C_R   0.665283 0.682445 0.231520 -0.072454
C53   C     C_R   0.579794 0.688947 0.152885 0.388471
C54   C     C_R   0.640934 0.704091 0.384825 -0.009875
C55   C     C_R   0.200767 0.060720 0.360283 0.283387
C56   C     C_R   0.275925 0.121353 0.431497 0.580953
C57   C     C_R   0.165170 0.077082 0.311204 -0.061880
C58   C     C_R   0.135470 0.098138 0.209176 0.029865
C59   C     C_R   0.141713 0.003270 0.232762 0.427573
C60   C     C_R   0.152592 0.993659 0.283786 0.007947
C61   C     C_R   0.119077 0.111136 0.158511 0.420481
C62   C     C_R   0.102430 0.211780 0.136441 -0.020260
C63   C     C_R   0.169799 0.254463 0.365274 0.366544
C64   C     C_R   0.148885 0.267177 0.315402 -0.035794
C65   C     C_R   0.150086 0.176764 0.287916 -0.139508
C66   C     C_R   0.133634 0.365864 0.292010 0.465187
C67   C     C_3   0.774719 0.614333 0.737755 0.013277
C68   C     C_R   0.125555 0.372841 0.241701 0.412328
C69   C     C_R   0.127697 0.283613 0.214065 -0.062775
C70   C     C_R   0.137624 0.186029 0.237073 -0.118072
C71   C     C_R   0.114083 0.293583 0.163923 -0.153647
C72   C     C_R   0.208784 0.147218 0.386367 0.013345
C73   C     C_R   0.560755 0.240666 0.363332 0.357351
C74   C     C_R   0.561555 0.257296 0.312425 -0.056579
C75   C     C_R   0.573418 0.280373 0.210436 0.004496
C76   C     C_R   0.480942 0.363998 0.237501 0.395477
C77   C     C_R   0.472808 0.353368 0.288132 -0.010138
C78   C     C_3   0.736916 0.711050 0.776785 -0.134949
C79   C     C_R   0.586817 0.295734 0.160928 -0.106554
C80   C     C_R   0.674290 0.207001 0.133468 -0.013663
C81   C     C_R   0.738788 0.060815 0.356874 -0.186478
C82   C     C_R   0.743688 0.076350 0.307255 -0.067595
C83   C     C_R   0.653915 0.172076 0.284431 -0.023770
C84   C     C_R   0.835560 0.994043 0.279882 -0.077166
C85   C     C_R   0.835008 0.999004 0.229417 0.405591
C86   C     C_R   0.743581 0.090590 0.205357 -0.028362
C87   C     C_R   0.657180 0.181404 0.233476 -0.058120
C88   C     C_R   0.737725 0.097454 0.154152 0.017871
C89   C     C_1   0.697197 0.608348 0.900459 0.078215
C90   C     C_R   0.643961 0.138059 0.384371 0.038135
C91   C     C_R   0.050262 0.235460 0.950142 0.553045
C92   C     C_R   0.711503 0.563185 0.948357 0.562461
C93   C     C_R   0.721809 0.225080 0.951195 0.556766
C94   C     C_R   0.048331 0.245095 0.088517 0.559380
C95   C     C_R   0.707485 0.578200 0.085725 0.577171
C96   C     C_R   0.717093 0.232624 0.088647 0.566187
Cr1   Cr    Cr6+3 0.417550 0.169090 0.500530 1.156466
Cr2   Cr    Cr6+3 0.669180 0.913420 0.499920 1.037269
Cr3   Cr    Cr6+3 0.413260 0.917540 0.499520 1.120688
Cr4   Cr    Cr6+3 0.909170 0.177380 0.020380 1.182765
Cr5   Cr    Cr6+3 0.912710 0.429210 0.018220 1.112296
Cr6   Cr    Cr6+3 0.657170 0.432570 0.019030 1.140773
H1    H     H_    0.790718 0.744729 0.792322 0.212967
H2    H     H_    0.646068 0.346927 0.721921 0.161727
H3    H     H_    0.484189 0.166063 0.738225 0.187523
H4    H     H_    0.826885 0.004860 0.731988 0.142596
H5    H     H_    0.408195 0.683340 0.294860 0.151847
H6    H     H_    0.580932 0.874594 0.740850 0.221008
H7    H     H_    0.102958 0.370329 0.146803 0.204259
H8    H     H_    0.532809 0.377785 0.144343 0.224392
H9    H     H_    0.907964 0.924813 0.297672 0.166524
H10   H     H_    0.805315 0.983508 0.373273 0.136021
H11   H     H_    0.551929 0.593577 0.724406 0.144332
H12   H     H_    0.983468 0.211388 0.719422 0.193497
O1    O     O_R   0.301710 0.195650 0.554160 -0.482389
O2    O     O_R   0.658900 0.818120 0.449760 -0.530751
O3    O     O_R   0.503220 0.801620 0.445520 -0.451804
O4    O     O_R   0.319370 0.022040 0.450020 -0.443244
O5    O     O_3   0.499990 0.000010 0.499990 -0.290602
O6    O     O_R   0.818720 0.150820 0.967160 -0.470099
O7    O     O_R   0.006410 0.181720 0.970200 -0.480217
O8    O     O_R   0.027890 0.334070 0.964920 -0.485924
O9    O     O_R   0.809600 0.521790 0.967960 -0.481515
O10   O     O_R   0.635520 0.542770 0.964420 -0.474747
O11   O     O_R   0.665950 0.325030 0.970100 -0.488797
O12   O     O_R   0.522390 0.158990 0.550460 -0.483269
O13   O     O_R   0.816620 0.158530 0.074540 -0.438729
O14   O     O_R   0.004460 0.188870 0.069750 -0.428202
O15   O     O_R   0.025800 0.341780 0.072300 -0.530689
O16   O     O_R   0.807650 0.528950 0.067500 -0.497470
O17   O     O_R   0.633420 0.550490 0.071810 -0.427426
O18   O     O_R   0.664000 0.332180 0.069640 -0.509495
O19   O     O_3   0.826350 0.346390 0.019210 -0.309112
O20   O     O_R   0.694390 0.003530 0.554040 -0.501143
O21   O     O_R   0.657700 0.819660 0.549320 -0.497561
O22   O     O_R   0.501930 0.803280 0.552920 -0.483781
O23   O     O_R   0.318170 0.023580 0.549580 -0.500360
O24   O     O_R   0.303010 0.193990 0.446760 -0.432986
O25   O     O_R   0.523600 0.157450 0.450900 -0.424511
O26   O     O_R   0.695690 0.001860 0.446640 -0.535261
F1    F     F_    0.367905 0.102202 0.804776 -0.566422
C97   C     C_2   0.234673 0.320575 0.736757 0.300771
H13   H     H_    0.241461 0.371685 0.766120 0.151045
O27   O     O_2   0.255153 0.334401 0.694932 -0.492352
F2    F     F_    0.006734 0.371761 0.789816 -0.557458
C98   C     C_2   0.455777 0.380136 0.791958 0.265935
H14   H     H_    0.394668 0.434107 0.764902 0.129310
O28   O     O_2   0.438070 0.407154 0.835048 -0.443866
F3    F     F_    0.663875 0.994542 0.803224 -0.593181
F4    F     F_    0.841189 0.192677 0.785414 -0.584658
C99   C     C_2   0.876647 0.638664 0.130041 0.351133
H15   H     H_    0.960891 0.582250 0.144543 0.202224
O29   O     O_2   0.868171 0.688439 0.092105 -0.439509
C100  C     C_2   0.889491 0.550612 0.713754 0.357131
H16   H     H_    0.907046 0.482651 0.687529 0.118156
O30   O     O_2   0.963552 0.574474 0.723596 -0.444349
C101  C     C_2   0.847904 0.627559 0.394073 0.236365
H17   H     H_    0.843094 0.649173 0.432526 0.133897
O31   O     O_2   0.938982 0.552241 0.377898 -0.380407
F5    F     F_    0.922281 0.706341 0.213512 -0.528842
C102  C     C_2   0.914671 0.724040 0.313675 0.376234
H18   H     H_    0.887063 0.772795 0.347597 0.041793
O32   O     O_2   0.010299 0.694898 0.298350 -0.254916
F6    F     F_    0.486025 0.723142 0.124425 -0.545928
C103  C     C_2   0.390253 0.674747 0.201975 0.436135
H19   H     H_    0.305101 0.715102 0.217404 0.233118
O33   O     O_2   0.410642 0.613309 0.165901 -0.351120
C104  C     C_2   0.477298 0.664155 0.383304 0.311886
H20   H     H_    0.388463 0.705573 0.372460 0.162335
O34   O     O_2   0.507555 0.598995 0.417625 -0.441532
F7    F     F_    0.113135 0.029408 0.130989 -0.509827
F8    F     F_    0.240705 0.956785 0.380895 -0.657142
F9    F     F_    0.132087 0.922348 0.206333 -0.481087
C105  C     C_2   0.139260 0.902980 0.308155 0.309464
H21   H     H_    0.106394 0.916138 0.345108 0.155889
O35   O     O_2   0.161694 0.813792 0.287047 -0.378939
F10   F     F_    0.114997 0.467563 0.220045 -0.524876
F11   F     F_    0.131049 0.454377 0.317335 -0.490855
F12   F     F_    0.163594 0.342900 0.392356 -0.518026
F13   F     F_    0.480719 0.322302 0.393085 -0.617648
F14   F     F_    0.393264 0.451230 0.213733 -0.544009
C106  C     C_2   0.367401 0.440375 0.313499 0.413443
H22   H     H_    0.329309 0.416072 0.342198 0.231387
O36   O     O_2   0.319967 0.540541 0.301706 -0.374681
C107  C     C_2   0.783764 0.991575 0.122922 0.351801
H23   H     H_    0.832449 0.907473 0.138385 0.223905
O37   O     O_2   0.759798 0.996379 0.079708 -0.446861
F15   F     F_    0.462157 0.781309 0.800472 -0.519584
F16   F     F_    0.929080 0.919434 0.205079 -0.510809
F17   F     F_    0.769387 0.443659 0.777335 -0.555501
C108  C     C_2   0.097760 0.998610 0.784196 0.380873
H24   H     H_    0.087273 0.949192 0.755081 0.121880
O38   O     O_2   0.080569 0.983746 0.826372 -0.424057
F18   F     F_    0.327505 0.946201 0.730809 -0.569206

loop_
_geom_bond_atom_site_label_1
_geom_bond_atom_site_label_2
_ccdc_geom_bond_type
C66   C68   A    
C40   C41   A    
C103  H19   S    
Cr4   O13   S    
C60   C105  S    
C73   C74   A    
C68   F10   S    
C83   C87   A    
C74   C83   A    
C43   C44   A    
Cr6   O11   S    
C2    C12   S    
C20   C21   S    
C49   C50   A    
C108  O38   D    
C102  H18   S    
C42   C102  S    
C7    C8    S    
C47   C49   A    
C88   C107  S    
C85   C86   A    
C66   F11   S    
C11   C19   S    
C101  H17   S    
C46   C104  S    
C12   O21   A    
C13   C17   S    
C67   C100  S    
C19   C21   S    
Cr6   O18   S    
C73   C90   A    
C18   C19   S    
C92   O10   A    
C5    C6    S    
C86   C88   A    
C104  O34   D    
C107  O37   D    
C85   F16   S    
C65   C70   A    
C34   O25   A    
C17   C20   S    
C63   F12   S    
C26   C98   S    
Cr4   O7    S    
C41   C42   A    
C69   C71   A    
C11   H12   S    
C105  H21   S    
C29   F4    S    
C106  H22   S    
C73   F13   S    
C44   C53   A    
C40   C43   A    
C31   C32   S    
C68   C69   A    
C56   C72   S    
C91   O8    A    
C95   O17   A    
C1    C28   S    
C99   H15   S    
C31   C33   S    
C61   F7    S    
C93   O6    A    
C21   F18   S    
Cr1   O1    S    
C100  O30   D    
C55   C72   A    
C30   C33   S    
C95   O16   A    
C96   O18   A    
C5    H11   S    
Cr5   O16   S    
C61   C62   A    
C25   C32   S    
C15   C23   S    
C59   C60   A    
C103  O33   D    
C80   C88   A    
C8    C78   S    
C62   C71   A    
C67   C78   S    
C4    C7    S    
Cr6   O10   S    
C8    H6    S    
C102  O32   D    
C81   C82   A    
C39   C42   A    
C98   O28   D    
C25   C29   S    
C3    C67   S    
C94   O15   A    
Cr1   O24   S    
C108  H24   S    
C84   H9    S    
C32   C35   S    
C7    F15   S    
C18   C97   S    
C76   C77   A    
C49   H5    S    
C92   O9    A    
C9    C89   T    
C5    C7    S    
C86   C87   A    
C16   C17   S    
C57   C60   A    
C6    C8    S    
C59   F9    S    
C58   C59   A    
C40   C52   A    
C23   O1    A    
Cr2   O21   S    
C74   C77   A    
C3    C4    S    
C79   C80   A    
C96   O13   A    
Cr2   O26   S    
C16   F2    S    
C51   C53   A    
C64   C66   A    
Cr1   O5    S    
C75   C76   A    
C34   C90   S    
C4    C78   S    
C29   C30   S    
C35   H3    S    
Cr3   O3    S    
C41   F5    S    
C56   O24   A    
C11   C16   S    
Cr6   O17   S    
Cr2   O2    S    
C47   C48   A    
C38   C54   A    
C81   H10   S    
C46   C54   A    
C50   C103  S    
C50   C51   A    
C13   C21   S    
C25   H2    S    
C16   C18   S    
Cr5   O9    S    
C32   C37   S    
C84   C85   A    
C89   C92   S    
Cr2   O5    S    
C100  H16   S    
Cr4   O6    S    
C81   C90   A    
C75   C87   A    
C104  H20   S    
C93   O11   A    
C45   C54   S    
C26   C30   S    
Cr5   O19   S    
C62   C94   S    
C1    O12   A    
C31   H4    S    
C97   O27   D    
C27   C93   S    
C80   C96   S    
C1    O20   A    
C2    C10   T    
C55   F8    S    
C43   C99   S    
Cr4   O19   S    
C98   H14   S    
C45   O3    A    
C3    F17   S    
C46   C47   A    
C15   C24   T    
C79   H8    S    
C77   C106  S    
C78   H1    S    
Cr4   O14   S    
C56   O4    A    
C20   F1    S    
C23   O23   A    
C58   C70   A    
Cr5   O8    S    
C38   C101  S    
C57   C65   A    
Cr1   O12   S    
C3    C5    S    
C6    C10   S    
C53   F6    S    
C94   O14   A    
C27   C36   T    
Cr2   O20   S    
C82   C84   A    
C17   C22   S    
C13   C108  S    
C30   C36   S    
C64   C65   A    
C14   C22   T    
C55   C57   A    
C19   C24   S    
C25   C26   S    
Cr6   O19   S    
C51   C52   A    
C29   C31   S    
C44   C95   S    
C6    C67   S    
Cr3   O4    S    
C11   C13   S    
C45   O2    A    
C107  H23   S    
C38   C39   A    
C28   C37   T    
C58   C61   A    
C71   H7    S    
C34   O26   A    
C33   C35   S    
C105  O35   D    
Cr3   O22   S    
C18   C20   S    
C99   O29   D    
C69   C70   A    
C106  O36   D    
C14   C91   S    
Cr3   O5    S    
C63   C64   A    
C26   C35   S    
C48   C52   A    
C91   O7    A    
C63   C72   A    
C101  O31   D    
C82   C83   A    
C12   O22   A    
C97   H13   S    
Cr3   O23   S    
C33   F3    S    
C4    C9    S    
C75   C79   A    
Cr1   O25   S    
C76   F14   S    
C39   C48   A    
Cr5   O15   S    
