data_mof_unit_26356.cif
_audit_creation_date              2012-12-10T17:38:47-0500
_audit_creation_method            fapswitch 2.2
_symmetry_space_group_name_H-M    P1
_symmetry_Int_Tables_number       1
_space_group_crystal_system       triclinic
_cell_length_a                    12.316163
_cell_length_b                    13.157218
_cell_length_c                    23.497092
_cell_angle_alpha                 77.95346
_cell_angle_beta                  101.137109
_cell_angle_gamma                 116.568998
_cell_volume                      3308.77363789

loop_
_atom_site_label
_atom_site_type_symbol
_atom_type_description
_atom_site_fract_x
_atom_site_fract_y
_atom_site_fract_z
_atom_type_partial_charge
C1    C     C_R   0.854880 0.286516 0.504892 0.774356
C2    C     C_R   0.905128 0.295082 0.045664 -0.221473
C3    C     C_R   0.901832 0.292222 0.986163 0.160360
C4    C     C_R   0.949510 0.396231 0.947451 -0.002971
C5    C     C_R   0.000348 0.502228 0.969777 -0.127718
C6    C     C_R   0.048714 0.607230 0.932042 -0.113321
C7    C     C_R   0.101306 0.712236 0.955437 0.501204
C8    C     C_R   0.100238 0.711580 0.014942 -0.248308
C9    C     C_R   0.948704 0.398477 0.887100 0.612055
C10   C     C_R   0.044009 0.603554 0.872127 0.553612
C11   C     C_R   0.908557 0.521093 0.749034 -0.182864
C12   C     C_R   0.999309 0.499647 0.608941 0.824474
C13   C     C_R   0.909307 0.521137 0.689806 -0.221029
C14   C     C_R   0.998238 0.499639 0.671489 -0.103647
C15   C     C_R   0.086314 0.478071 0.713469 -0.297651
C16   C     C_R   0.087215 0.480152 0.772892 0.545155
C17   C     C_R   0.996684 0.499997 0.790640 0.263403
C18   C     C_R   0.894946 0.467971 0.232359 -0.100020
C19   C     C_R   0.894319 0.467358 0.291617 -0.293950
C20   C     C_R   0.004491 0.504931 0.328725 -0.136522
C21   C     C_R   0.116580 0.547114 0.305380 0.464075
C22   C     C_R   0.116135 0.545605 0.245970 -0.183166
C23   C     C_R   0.145142 0.713431 0.491137 0.795915
C24   C     C_R   0.005633 0.506309 0.209411 0.280838
C25   C     C_R   0.276082 0.020169 0.419814 -0.178828
C26   C     C_R   0.228240 0.834357 0.478259 -0.051993
C27   C     C_R   0.815439 0.084833 0.542308 -0.178186
C28   C     C_R   0.736807 0.969579 0.552988 -0.139286
C29   C     C_R   0.613606 0.931737 0.532019 -0.186111
C30   C     C_R   0.566955 0.008787 0.497661 0.081130
C31   C     C_R   0.650452 0.123463 0.480843 0.082768
C32   C     C_R   0.440360 0.975491 0.478915 0.071577
C33   C     C_R   0.400829 0.052385 0.438765 0.161440
C34   C     C_R   0.001391 0.501444 0.391188 0.821043
C35   C     C_R   0.486326 0.159615 0.417080 -0.231006
C36   C     C_R   0.609369 0.194264 0.437231 -0.194823
C37   C     C_R   0.351431 0.868408 0.499601 -0.248255
C38   C     C_R   0.190093 0.911170 0.439149 -0.198707
C39   C     C_R   0.773139 0.163352 0.507623 -0.101692
C40   C     C_R   0.345752 0.328006 0.594213 0.060272
C41   C     C_R   0.760002 0.645879 0.421425 0.062363
C42   C     C_R   0.663958 0.678668 0.404401 0.109468
C43   C     C_R   0.559953 0.622614 0.434356 -0.214498
C44   C     C_R   0.551671 0.534412 0.481618 -0.024734
C45   C     C_R   0.052597 0.607264 0.112393 0.567181
C46   C     C_R   0.653153 0.505243 0.497339 0.272184
C47   C     C_R   0.447188 0.474683 0.513999 -0.064159
C48   C     C_R   0.446832 0.387693 0.561543 0.153487
C49   C     C_R   0.547390 0.361298 0.575872 -0.258603
C50   C     C_R   0.647662 0.418808 0.544811 -0.189008
C51   C     C_R   0.342298 0.497358 0.501342 0.023164
C52   C     C_R   0.245825 0.355458 0.578864 0.023897
C53   C     C_R   0.957623 0.402498 0.127566 0.550949
C54   C     C_R   0.954825 0.399467 0.067932 -0.022182
C55   C     C_R   0.002720 0.503296 0.030066 -0.019400
C56   C     C_R   0.052397 0.608220 0.052526 -0.080409
Cu1   Cu    Cu3+1 0.098270 0.475410 0.513370 0.953294
Cu2   Cu    Cu3+1 0.901730 0.524590 0.486630 0.922599
H1    H     H_    0.868018 0.214498 0.074350 0.187051
H2    H     H_    0.807581 0.435874 0.308688 0.174265
H3    H     H_    0.201818 0.575692 0.228160 0.161222
H4    H     H_    0.094872 0.885565 0.421880 0.151483
H5    H     H_    0.457972 0.217336 0.384532 0.153285
H6    H     H_    0.245444 0.078296 0.388928 0.144806
H7    H     H_    0.375429 0.808854 0.532299 0.149629
H8    H     H_    0.909222 0.112887 0.562379 0.156661
H9    H     H_    0.558099 0.841148 0.542268 0.128439
H10   H     H_    0.770812 0.909565 0.579262 0.148025
H11   H     H_    0.671687 0.276083 0.416785 0.174034
H12   H     H_    0.167180 0.311237 0.603080 0.127274
H13   H     H_    0.549804 0.295270 0.611731 0.184934
H14   H     H_    0.334353 0.561499 0.466120 0.159904
H15   H     H_    0.840364 0.688690 0.398387 0.140225
H16   H     H_    0.487646 0.650026 0.420074 0.146873
H17   H     H_    0.719309 0.392327 0.560134 0.209293
H18   H     H_    0.137620 0.793003 0.031469 0.201192
H19   H     H_    0.839353 0.537288 0.762733 0.159152
H20   H     H_    0.840089 0.537680 0.658463 0.172305
H21   H     H_    0.154690 0.459724 0.700447 0.170878
H22   H     H_    0.809318 0.438170 0.204197 0.156337
N1    N     N_R   0.005652 0.505369 0.148493 -0.454976
N2    N     N_R   0.995619 0.500677 0.851432 -0.467096
N3    N     N_R   0.246280 0.438190 0.533650 -0.197861
N4    N     N_R   0.754320 0.561190 0.466710 -0.228304
O1    O     O_R   0.972510 0.318130 0.516820 -0.578694
O2    O     O_2   0.913346 0.303483 0.164462 -0.539979
O3    O     O_2   0.901562 0.299918 0.863762 -0.484586
O4    O     O_2   0.087851 0.701544 0.834533 -0.495611
O5    O     O_R   0.806530 0.359650 0.494230 -0.602682
O6    O     O_R   0.082990 0.479200 0.593420 -0.584558
O7    O     O_R   0.917010 0.520720 0.570830 -0.599121
O8    O     O_R   0.193470 0.640350 0.505770 -0.587522
O9    O     O_R   0.027490 0.681870 0.483180 -0.586668
O10   O     O_R   0.082990 0.479280 0.429170 -0.532749
O11   O     O_R   0.917010 0.520800 0.406580 -0.600212
O12   O     O_2   0.098365 0.707276 0.134313 -0.546066
O13   O     O_3   0.226782 0.587849 0.340478 -0.578769
C57   C     C_3   0.266002 0.706526 0.339873 -0.314134
H23   H     H_    0.352846 0.739408 0.369095 0.172766
H24   H     H_    0.198771 0.724360 0.356845 0.149737
H25   H     H_    0.284015 0.754296 0.295131 0.180151
N5    N     N_3   0.849640 0.182840 0.965791 -0.506692
H26   H     H_    0.759421 0.138731 0.975777 0.215367
H27   H     H_    0.898199 0.136165 0.988900 0.229481
N6    N     N_3   0.344963 0.240327 0.642580 -0.590217
H28   H     H_    0.406397 0.281286 0.676873 0.220982
H29   H     H_    0.259072 0.197772 0.657828 0.221438
N7    N     N_3   0.673298 0.768600 0.356321 -0.580498
H30   H     H_    0.743590 0.844595 0.369301 0.216025
H31   H     H_    0.593328 0.781204 0.347684 0.227492
O14   O     O_3   0.147725 0.816560 0.919885 -0.528286
C58   C     C_3   0.276379 0.860978 0.927497 -0.226197
H32   H     H_    0.308140 0.800176 0.917532 0.152214
H33   H     H_    0.314323 0.883088 0.972511 0.137891
H34   H     H_    0.313250 0.941151 0.896412 0.198998
O15   O     O_3   0.171714 0.455845 0.814321 -0.564233
C59   C     C_3   0.283992 0.554260 0.814161 -0.317417
H35   H     H_    0.274575 0.629299 0.823561 0.178290
H36   H     H_    0.322726 0.575294 0.771951 0.158316
H37   H     H_    0.350088 0.536521 0.849355 0.198973

loop_
_geom_bond_atom_site_label_1
_geom_bond_atom_site_label_2
_ccdc_geom_bond_type
C55   C56   A    
Cu1   O8    S    
C41   C42   A    
C54   C55   A    
C12   O7    A    
C35   C36   A    
C24   N1    S    
C8    C56   A    
C58   H33   S    
O13   C57   S    
C7    C8    A    
C53   C54   A    
O15   C59   S    
N6    H29   S    
C10   O4    S    
C18   C24   A    
C12   O6    A    
C28   C29   A    
C28   H10   S    
Cu2   O9    S    
C18   C19   A    
C59   H36   S    
C5    C6    A    
C15   C16   A    
C8    H18   S    
N7    H30   S    
C53   N1    A    
C17   N2    S    
C23   C26   S    
C11   H19   S    
C29   H9    S    
C15   H21   S    
C19   C20   A    
C45   C56   A    
C27   C39   A    
C16   C17   A    
C37   H7    S    
Cu1   N3    S    
C53   O2    S    
Cu2   O7    S    
C44   C47   A    
C9    N2    A    
C20   C34   S    
C43   H16   S    
C50   H17   S    
C21   C22   A    
C16   O15   S    
C58   H32   S    
C44   C46   A    
C1    O1    A    
Cu1   O6    S    
C34   O11   A    
C2    C54   A    
C59   H37   S    
C2    H1    S    
C26   C38   A    
C47   C51   A    
C40   C52   A    
C41   N4    A    
C10   N2    A    
C23   O9    A    
C25   H6    S    
C52   N3    A    
Cu2   O11   S    
C29   C30   A    
Cu2   N4    S    
C25   C38   A    
C21   O13   S    
C47   C48   A    
C14   C15   A    
C32   C37   A    
N5    H27   S    
C46   N4    A    
C3    N5    S    
C48   C49   A    
C12   C14   S    
C57   H23   S    
C57   H24   S    
Cu1   O10   S    
C43   C44   A    
C49   H13   S    
C22   C24   A    
C51   H14   S    
C3    C4    A    
C51   N3    A    
C36   H11   S    
C40   C48   A    
C13   H20   S    
C11   C17   A    
C1    O5    A    
O14   C58   S    
C31   C36   A    
C5    C55   A    
C45   N1    A    
C34   O10   A    
C4    C5    A    
C6    C10   A    
N7    H31   S    
C26   C37   A    
C6    C7    A    
C19   H2    S    
C57   H25   S    
N6    H28   S    
C46   C50   A    
C32   C33   A    
C2    C3    A    
C27   H8    S    
C59   H35   S    
C9    O3    S    
C22   H3    S    
C30   C32   A    
C11   C13   A    
Cu1   Cu2   S    
C30   C31   A    
C33   C35   A    
C7    O14   S    
N5    H26   S    
Cu2   O5    S    
C52   H12   S    
C1    C39   S    
C41   H15   S    
C20   C21   A    
C18   H22   S    
C49   C50   A    
C42   C43   A    
C27   C28   A    
C31   C39   A    
C23   O8    A    
C35   H5    S    
C4    C9    A    
C13   C14   A    
C45   O12   S    
C42   N7    S    
Cu1   O1    S    
C58   H34   S    
C25   C33   A    
C40   N6    S    
C38   H4    S    
