data_mof_unit_11695.cif
_audit_creation_date              2012-12-10T17:50:40-0500
_audit_creation_method            fapswitch 2.2
_symmetry_space_group_name_H-M    P1
_symmetry_Int_Tables_number       1
_space_group_crystal_system       triclinic
_cell_length_a                    14.758336
_cell_length_b                    14.76129
_cell_length_c                    15.861776
_cell_angle_alpha                 76.400856
_cell_angle_beta                  103.287936
_cell_angle_gamma                 115.002962
_cell_volume                      3010.32125023

loop_
_atom_site_label
_atom_site_type_symbol
_atom_type_description
_atom_site_fract_x
_atom_site_fract_y
_atom_site_fract_z
_atom_type_partial_charge
C1    C     C_R   0.879963 0.312442 0.510062 0.812564
C2    C     C_R   0.119732 0.687568 0.482931 0.809947
C3    C     C_R   0.782422 0.027301 0.555260 -0.163571
C4    C     C_R   0.217150 0.968492 0.477389 -0.168233
C5    C     C_R   0.847596 0.128741 0.548794 -0.213827
C6    C     C_R   0.151862 0.867552 0.479046 -0.199696
C7    C     C_R   0.706823 0.176923 0.478183 0.176907
C8    C     C_R   0.289218 0.826514 0.463853 0.194455
C9    C     C_R   0.638544 0.076243 0.500326 0.053704
C10   C     C_R   0.359461 0.923414 0.481419 0.052595
C11   C     C_R   0.677341 0.999164 0.530810 0.031276
C12   C     C_R   0.322163 0.997713 0.482286 0.025704
C13   C     C_R   0.532813 0.050644 0.492570 0.052938
C14   C     C_R   0.465553 0.948323 0.496744 0.053082
C15   C     C_R   0.505876 0.872986 0.523835 -0.227060
C16   C     C_R   0.493953 0.123731 0.490614 -0.222510
C17   C     C_R   0.609869 0.896560 0.539538 -0.034727
C18   C     C_R   0.390737 0.098832 0.486861 -0.025518
C19   C     C_R   0.708343 0.661326 0.346815 0.098826
C20   C     C_R   0.301269 0.354790 0.663630 0.090264
C21   C     C_R   0.792285 0.634395 0.372602 0.136673
C22   C     C_R   0.213941 0.375756 0.634126 0.132576
C23   C     C_R   0.000011 0.499907 0.660141 0.834220
C24   C     C_R   0.000047 0.500190 0.339861 0.808072
C25   C     C_R   0.716625 0.512615 0.490125 -0.047864
C26   C     C_R   0.280803 0.482394 0.506814 -0.044733
C27   C     C_R   0.628771 0.536303 0.467310 -0.054370
C28   C     C_R   0.372702 0.465902 0.534169 -0.036858
C29   C     C_R   0.625553 0.611336 0.393519 0.090610
C30   C     C_R   0.380533 0.398953 0.613106 0.079972
C31   C     C_R   0.544650 0.488834 0.515295 0.147105
C32   C     C_R   0.457185 0.513985 0.486591 0.145358
C33   C     C_R   0.458309 0.588676 0.412859 -0.215294
C34   C     C_R   0.545953 0.418431 0.592011 -0.194377
C35   C     C_R   0.540474 0.636457 0.368096 -0.164465
C36   C     C_R   0.466610 0.375672 0.639958 -0.154092
C37   C     C_3   0.970358 0.404681 0.042727 -0.159252
C38   C     C_3   0.029945 0.595751 0.957321 -0.155830
C39   C     C_3   0.906405 0.445382 0.963912 -0.159901
C40   C     C_3   0.093900 0.555051 0.036142 -0.157366
C41   C     C_1   0.000154 0.499874 0.750021 -0.150963
C42   C     C_1   0.999996 0.500378 0.249998 -0.155649
C43   C     C_3   0.064161 0.459368 0.994722 -0.143514
C44   C     C_3   0.936144 0.541062 0.005327 -0.145712
C45   C     C_3   0.000205 0.500066 0.917428 0.181166
C46   C     C_3   0.000095 0.500364 0.082616 0.180365
C47   C     C_1   0.000216 0.499916 0.825666 -0.061485
C48   C     C_1   0.000019 0.500446 0.174362 -0.062876
C49   C     C_R   0.810935 0.204847 0.511870 -0.105760
C50   C     C_R   0.187410 0.795266 0.474194 -0.082909
Cu1   Cu    Cu3+1 0.081740 0.475690 0.522610 0.966333
Cu2   Cu    Cu3+1 0.918260 0.524310 0.477390 0.958128
H1    H     H_    0.829430 0.400341 0.932954 0.135837
H2    H     H_    0.170858 0.600093 0.067134 0.135350
H3    H     H_    0.267867 0.529127 0.446123 0.140731
H4    H     H_    0.724077 0.455304 0.544050 0.142850
H5    H     H_    0.397460 0.614306 0.388877 0.128111
H6    H     H_    0.608448 0.395663 0.618453 0.118170
H7    H     H_    0.945876 0.326239 0.079113 0.137676
H8    H     H_    0.054420 0.674199 0.920951 0.138847
H9    H     H_    0.883597 0.574597 0.011035 0.148015
H10   H     H_    0.116702 0.425828 0.989007 0.147767
H11   H     H_    0.072991 0.846392 0.482974 0.196108
H12   H     H_    0.927240 0.147146 0.571453 0.216923
H13   H     H_    0.815073 0.971858 0.584115 0.185978
H14   H     H_    0.183920 0.021800 0.474633 0.195083
H15   H     H_    0.457022 0.794308 0.538032 0.181974
H16   H     H_    0.544332 0.199949 0.500424 0.163151
H17   H     H_    0.535894 0.694270 0.312993 0.146441
H18   H     H_    0.473849 0.322712 0.698470 0.143559
N1    N     N_R   0.795440 0.560790 0.443380 -0.242611
N2    N     N_R   0.204560 0.439210 0.556620 -0.238984
O1    O     O_R   0.977900 0.338120 0.529810 -0.554428
O2    O     O_R   0.022100 0.661880 0.470190 -0.564955
O3    O     O_R   0.839850 0.379180 0.491620 -0.599083
O4    O     O_R   0.160150 0.620820 0.508380 -0.593037
O5    O     O_R   0.069010 0.479460 0.640020 -0.563195
O6    O     O_R   0.930990 0.520540 0.359980 -0.561423
O7    O     O_R   0.930960 0.520530 0.601820 -0.585697
O8    O     O_R   0.069040 0.479470 0.398180 -0.587239
C51   C     C_2   0.135803 0.330427 0.692241 0.949062
O9    O     O_2   0.059641 0.256474 0.675566 -0.639186
O10   O     O_R   0.154536 0.366426 0.771172 -0.749967
H19   H     H_    0.097148 0.327749 0.807096 0.321477
C52   C     C_2   0.874304 0.685287 0.318408 0.945853
O11   O     O_2   0.944572 0.763327 0.336362 -0.624234
O12   O     O_R   0.864624 0.650756 0.240667 -0.757473
H20   H     H_    0.923701 0.693482 0.207316 0.320312
N3    N     N_2   0.708635 0.738244 0.272798 -0.439241
H21   H     H_    0.644719 0.719804 0.226470 0.254635
C53   C     C_3   0.743859 0.838977 0.293937 -0.620530
H22   H     H_    0.749179 0.894412 0.232460 0.219727
H23   H     H_    0.820007 0.859677 0.334061 0.261549
H24   H     H_    0.690678 0.843497 0.330700 0.239353
N4    N     N_2   0.309283 0.292455 0.746569 -0.429275
H25   H     H_    0.376715 0.319815 0.787563 0.259973
C54   C     C_3   0.272434 0.185406 0.743513 -0.641111
H26   H     H_    0.269753 0.142868 0.811269 0.225151
H27   H     H_    0.323538 0.169801 0.712642 0.245591
H28   H     H_    0.194924 0.158213 0.706064 0.254979
C55   C     C_2   0.644167 0.811282 0.561282 0.827477
O13   O     O_2   0.600983 0.734736 0.610456 -0.595610
O14   O     O_R   0.722140 0.816113 0.522026 -0.784515
H29   H     H_    0.736699 0.752421 0.540426 0.336135
C56   C     C_2   0.358592 0.181504 0.487459 0.822203
O15   O     O_2   0.396529 0.264309 0.443355 -0.592720
O16   O     O_R   0.287802 0.166327 0.540034 -0.797204
H30   H     H_    0.268993 0.226792 0.531212 0.336047
N5    N     N_2   0.317906 0.769902 0.420993 -0.444394
H31   H     H_    0.315022 0.700512 0.454961 0.261313
C57   C     C_3   0.277692 0.769303 0.328840 -0.662448
H32   H     H_    0.312783 0.732894 0.299742 0.212081
H33   H     H_    0.295399 0.848019 0.293688 0.244404
H34   H     H_    0.194529 0.726043 0.320004 0.215361
N6    N     N_2   0.672232 0.242633 0.409998 -0.430208
H35   H     H_    0.673936 0.306564 0.426943 0.276608
C58   C     C_3   0.703789 0.258512 0.326040 -0.604520
H36   H     H_    0.664613 0.301629 0.275964 0.230483
H37   H     H_    0.683529 0.184633 0.305289 0.225653
H38   H     H_    0.786651 0.302304 0.329734 0.210866

loop_
_geom_bond_atom_site_label_1
_geom_bond_atom_site_label_2
_ccdc_geom_bond_type
C38   C40   S    
O12   H20   S    
C55   O13   D    
C27   C29   A    
C26   N2    A    
N4    H25   S    
C25   H4    S    
Cu2   O3    S    
C26   H3    S    
C54   H26   S    
C20   C30   A    
C52   O11   D    
C40   C46   S    
C56   O16   S    
C21   N1    A    
C19   C21   A    
Cu2   O2    S    
N5    C57   S    
N6    H35   S    
C24   C42   S    
C15   C17   A    
C7    N6    S    
C9    C13   A    
Cu1   O8    S    
C38   C45   S    
C17   C55   S    
C2    C50   S    
C51   O10   S    
C24   O8    A    
C40   C43   S    
C31   C32   A    
C36   H18   S    
N6    C58   S    
O16   H30   S    
C16   H16   S    
N3    C53   S    
Cu2   O7    S    
C2    O2    A    
C39   C45   S    
C45   C47   S    
C55   O14   S    
C13   C14   A    
C5    C49   A    
C3    H13   S    
Cu2   O6    S    
C22   N2    A    
C54   H27   S    
C44   C46   S    
C51   O9    D    
C21   C52   S    
C52   O12   S    
C46   C48   S    
C27   C31   A    
Cu1   Cu2   S    
C1    O3    A    
C22   C51   S    
C28   C32   A    
Cu1   O4    S    
C7    C49   A    
C4    C6    A    
C10   C14   A    
C58   H38   S    
C53   H22   S    
C6    C50   A    
C5    H12   S    
C6    H11   S    
C37   C43   S    
Cu1   O5    S    
C38   C44   S    
C19   N3    S    
C53   H23   S    
C9    C11   A    
O10   H19   S    
C15   H15   S    
C41   C47   T    
C31   C34   A    
C57   H33   S    
C42   C48   T    
C23   O5    A    
C43   C45   S    
C37   H7    S    
C10   C12   A    
C25   N1    A    
C24   O6    A    
C20   N4    S    
C20   C22   A    
C40   H2    S    
C38   H8    S    
C4    C12   A    
Cu1   N2    S    
C19   C29   A    
C8    C50   A    
C54   H28   S    
C2    O4    A    
C7    C9    A    
C11   C17   A    
C33   H5    S    
C57   H32   S    
C8    C10   A    
Cu1   O1    S    
C3    C5    A    
N4    C54   S    
C39   C44   S    
C44   H9    S    
C25   C27   A    
C56   O15   D    
C29   C35   A    
C26   C28   A    
C23   C41   S    
C30   C36   A    
C1    O1    A    
C32   C33   A    
C58   H37   S    
N3    H21   S    
C18   C56   S    
C37   C39   S    
Cu2   N1    S    
C58   H36   S    
C53   H24   S    
C4    H14   S    
C39   H1    S    
C28   C30   A    
C33   C35   A    
C57   H34   S    
C34   C36   A    
C3    C11   A    
C35   H17   S    
C16   C18   A    
C13   C16   A    
C12   C18   A    
O14   H29   S    
C34   H6    S    
C14   C15   A    
C23   O7    A    
C37   C46   S    
N5    H31   S    
C1    C49   S    
C43   H10   S    
C8    N5    S    
