data_mof_unit_66740.cif
_audit_creation_date              2012-12-11T14:19:16-0500
_audit_creation_method            fapswitch 2.2
_symmetry_space_group_name_H-M    P1
_symmetry_Int_Tables_number       1
_space_group_crystal_system       triclinic
_cell_length_a                    8.431769
_cell_length_b                    12.875313
_cell_length_c                    15.143209
_cell_angle_alpha                 95.674561
_cell_angle_beta                  99.100619
_cell_angle_gamma                 97.745038
_cell_volume                      1596.28653213

loop_
_atom_site_label
_atom_site_type_symbol
_atom_type_description
_atom_site_fract_x
_atom_site_fract_y
_atom_site_fract_z
_atom_type_partial_charge
Ba1   Ba    Ba6+2 0.153570 0.551840 0.456200 1.702161
Ba2   Ba    Ba6+2 0.656590 0.448150 0.543720 1.673099
C1    C     C_3   0.299727 0.821594 0.122259 0.684416
C2    C     C_3   0.350251 0.788781 0.215454 0.379539
C3    C     C_3   0.578450 0.795935 0.709348 0.499186
C4    C     C_3   0.594003 0.905151 0.764535 0.765705
C5    C     C_3   0.011446 0.198586 0.826795 0.444789
C6    C     C_3   0.984732 0.104678 0.881555 0.368436
C7    C     C_3   0.494625 0.225280 0.791330 0.774069
C8    C     C_3   0.557950 0.190851 0.882030 0.347126
C9    C     C_R   0.079510 0.185203 0.531840 -0.305282
C10   C     C_R   0.738706 0.819440 0.465007 -0.156266
C11   C     C_R   0.693465 0.997427 0.441734 -0.068492
C12   C     C_3   0.863437 0.821113 0.230041 0.464668
C13   C     C_R   0.633488 0.889145 0.435240 -0.027058
C14   C     C_R   0.893014 0.854889 0.515974 0.122475
C15   C     C_R   0.954604 0.967347 0.525478 -0.086666
C16   C     C_R   0.854722 0.039256 0.484564 -0.103749
C17   C     C_R   0.918550 0.150755 0.489669 0.089358
C18   C     C_R   0.179888 0.115685 0.566964 -0.066314
C19   C     C_R   0.114773 0.009400 0.569941 0.347322
C20   C     C_R   0.236558 0.468729 0.766428 -0.227524
C21   C     C_R   0.135663 0.442906 0.827296 0.066473
C22   C     C_R   0.195765 0.462887 0.920086 -0.029252
C23   C     C_3   0.825017 0.906573 0.171600 0.228182
C24   C     C_R   0.364150 0.496464 0.953548 0.087520
C25   C     C_R   0.462707 0.523772 0.888961 -0.095453
C26   C     C_R   0.396349 0.514178 0.797053 0.068959
C27   C     C_R   0.593727 0.561551 0.087801 -0.151546
C28   C     C_R   0.665162 0.564664 0.178186 -0.044495
C29   C     C_R   0.412394 0.475935 0.210179 0.095254
C30   C     C_R   0.350259 0.456055 0.116508 0.012763
C31   C     C_R   0.434935 0.506165 0.053754 0.044016
C32   C     C_R   0.572128 0.525073 0.239489 0.125401
C33   C     C_3   0.762165 0.290382 0.259743 0.422188
C34   C     C_3   0.814184 0.269346 0.167987 -0.057687
C35   C     C_3   0.097120 0.698646 0.735618 0.638439
C36   C     C_3   0.120596 0.738629 0.837578 0.649874
C37   C     C_3   0.198876 0.222279 0.331468 0.437379
C38   C     C_3   0.111749 0.112664 0.288095 -0.339399
H1    H     H_    0.260836 0.719938 0.223191 0.003112
H2    H     H_    0.797133 0.338471 0.130711 0.069994
H3    H     H_    0.945079 0.262437 0.176393 0.081885
H4    H     H_    0.212451 0.678128 0.717865 -0.035925
H5    H     H_    0.053977 0.806658 0.847040 0.034016
H6    H     H_    0.110537 0.265693 0.360705 -0.000750
H7    H     H_    0.172238 0.838296 0.115079 0.008261
H8    H     H_    0.016042 0.119297 0.231231 0.091366
H9    H     H_    0.054570 0.069808 0.337910 0.040379
H10   H     H_    0.199314 0.065525 0.261996 0.151285
H11   H     H_    0.472758 0.764983 0.219660 -0.026069
H12   H     H_    0.679884 0.906038 0.829017 -0.099175
H13   H     H_    0.125292 0.248176 0.862223 0.102087
H14   H     H_    0.864436 0.058075 0.854045 0.058105
H15   H     H_    0.595002 0.274267 0.768815 0.031485
H16   H     H_    0.625638 0.261106 0.927899 0.014200
H17   H     H_    0.641198 0.132595 0.872801 -0.000313
H18   H     H_    0.954150 0.856456 0.290670 -0.049714
H19   H     H_    0.612534 0.047524 0.412128 0.127783
H20   H     H_    0.129416 0.267710 0.535384 0.060023
H21   H     H_    0.666702 0.601492 0.045467 0.118443
H22   H     H_    0.107484 0.452973 0.963835 0.100827
H23   H     H_    0.589631 0.555879 0.907773 0.072607
H24   H     H_    0.748998 0.789322 0.252117 -0.093028
H25   H     H_    0.191076 0.453774 0.694763 0.022514
H26   H     H_    0.768720 0.964740 0.210733 0.025443
H27   H     H_    0.939459 0.945721 0.153739 -0.001355
H28   H     H_    0.839394 0.364575 0.291781 0.021026
O1    O     O_2   0.168170 0.764170 0.543850 -0.410663
O2    O     O_3   0.260169 0.274191 0.264592 -0.644305
O3    O     O_3   0.928827 0.744798 0.180079 -0.601982
O4    O     O_2   0.642110 0.235770 0.456130 -0.458400
O5    O     O_3   0.911620 0.370210 0.454030 -0.510583
O6    O     O_3   0.444310 0.304480 0.619110 -0.513839
O7    O     O_3   0.783760 0.208176 0.312287 -0.655533
O8    O     O_3   0.400800 0.556680 0.607590 -0.503788
O9    O     O_3   0.875770 0.359510 0.664420 -0.457456
O10   O     O_2   0.806970 0.443358 0.820744 -0.463361
O11   O     O_3   0.879940 0.255696 0.824942 -0.662514
O12   O     O_3   0.898670 0.629780 0.545890 -0.468349
O13   O     O_3   0.409490 0.443300 0.392340 -0.431920
O14   O     O_2   0.674250 0.555830 0.719690 -0.410411
O15   O     O_3   0.515378 0.721561 0.762104 -0.650124
O16   O     O_2   0.516838 0.115761 0.569274 -0.466594
O17   O     O_3   0.433822 0.134848 0.728688 -0.564139
O18   O     O_3   0.365980 0.695510 0.380810 -0.499539
O19   O     O_2   0.303135 0.883387 0.445667 -0.476390
O20   O     O_3   0.052361 0.781692 0.688394 -0.588490
O21   O     O_3   0.350911 0.873270 0.281695 -0.620336
O22   O     O_2   0.136040 0.444100 0.280280 -0.496720
O23   O     O_3   0.934510 0.640480 0.335500 -0.465666
O24   O     O_2   0.995064 0.554646 0.177847 -0.507264
P1    P     P_3+3 0.998660 0.747790 0.570900 1.098345
P2    P     P_3+3 0.306970 0.411860 0.294270 1.007254
P3    P     P_3+3 0.880187 0.622900 0.217747 0.963179
P4    P     P_3+3 0.811620 0.252200 0.429030 0.970377
P5    P     P_3+3 0.926793 0.377058 0.783529 0.984953
P6    P     P_3+3 0.415658 0.834725 0.387421 0.932130
P7    P     P_3+3 0.499668 0.587165 0.720420 0.948136
P8    P     P_3+3 0.394902 0.168429 0.618240 0.961468
N1    N     N_3   0.716431 0.175079 0.115147 -0.492644
H29   H     H_    0.742216 0.172850 0.050063 0.173164
H30   H     H_    0.755875 0.109268 0.140961 0.193713
O25   O     O_3   0.974194 0.611140 0.716071 -0.730932
H31   H     H_    0.008465 0.558702 0.673752 0.290116
O26   O     O_3   0.284497 0.775962 0.872355 -0.665125
H32   H     H_    0.338583 0.713520 0.882943 0.336896
O27   O     O_3   0.061462 0.659772 0.887244 -0.755965
H33   H     H_    0.942865 0.660390 0.883119 0.302474
N2    N     N_3   0.334445 0.211163 0.400093 -0.446433
H34   H     H_    0.343866 0.270832 0.453228 0.189034
H35   H     H_    0.317278 0.138232 0.424516 0.148480
O28   O     O_3   0.311482 0.739889 0.056367 -0.698241
H36   H     H_    0.220503 0.682490 0.057069 0.294813
N3    N     N_3   0.738765 0.778599 0.694321 -0.556138
H37   H     H_    0.800729 0.760933 0.754934 0.168318
H38   H     H_    0.726175 0.712908 0.646462 0.184469
N4    N     N_3   0.469604 0.794598 0.623783 -0.404608
H39   H     H_    0.473777 0.728144 0.580035 0.166262
H40   H     H_    0.513234 0.857507 0.591341 0.157115
O29   O     O_3   0.652808 0.986140 0.717128 -0.734698
H41   H     H_    0.762295 0.973816 0.706906 0.259608
O30   O     O_3   0.440763 0.921763 0.782705 -0.600707
H42   H     H_    0.457835 0.960596 0.844107 0.338080
O31   O     O_3   0.402271 0.913110 0.112095 -0.683454
H43   H     H_    0.356998 0.935593 0.053671 0.324788
O32   O     O_3   0.716876 0.861951 0.092881 -0.661759
H44   H     H_    0.704361 0.920008 0.055045 0.313103
N5    N     N_3   0.027862 0.162780 0.734523 -0.531226
H45   H     H_    0.110506 0.109392 0.735346 0.238505
H46   H     H_    0.915711 0.124889 0.698747 0.185262
O33   O     O_3   0.104587 0.039642 0.875090 -0.678847
H47   H     H_    0.077183 0.979121 0.908513 0.302592
N6    N     N_3   0.988811 0.143533 0.975986 -0.526233
H48   H     H_    0.110058 0.168458 0.005831 0.218839
H49   H     H_    0.947876 0.079578 0.008371 0.135823
O34   O     O_3   0.373720 0.286063 0.805062 -0.781235
H50   H     H_    0.297618 0.281648 0.747826 0.270014
O35   O     O_3   0.427318 0.146262 0.919867 -0.667486
H51   H     H_    0.474214 0.111711 0.971424 0.302340
O36   O     O_3   0.201161 0.949322 0.623745 -0.645546
H52   H     H_    0.317307 0.965797 0.620089 0.361007
N7    N     N_3   0.694880 0.709699 0.436127 -0.428472
H53   H     H_    0.608996 0.676974 0.471996 0.206749
H54   H     H_    0.650501 0.701835 0.367242 0.190075
N8    N     N_3   0.216473 0.373268 0.084633 -0.513276
H55   H     H_    0.115633 0.390706 0.111844 0.203425
H56   H     H_    0.249466 0.303239 0.105590 0.200525
O37   O     O_3   0.638754 0.524013 0.328026 -0.721248
H57   H     H_    0.742934 0.497810 0.330779 0.311389
N9    N     N_3   0.591999 0.301158 0.245648 -0.522281
H58   H     H_    0.523116 0.228599 0.216697 0.227839
H59   H     H_    0.564225 0.314068 0.309870 0.206137

loop_
_geom_bond_atom_site_label_1
_geom_bond_atom_site_label_2
_ccdc_geom_bond_type
N1    H29   S    
C12   O3    S    
C35   O20   S    
C34   H2    S    
C33   C34   S    
C23   H27   S    
N4    H40   S    
C5    C6    S    
O8    P7    S    
C9    C17   A    
C14   P1    S    
Ba1   O22   S    
C11   C16   A    
O2    P2    S    
C35   C36   S    
C22   C24   A    
C16   C17   A    
O1    P1    D    
C3    C4    S    
C3    O15   S    
C30   N8    S    
O26   H32   S    
Ba1   O13   S    
N3    H37   S    
C27   C31   A    
O27   H33   S    
C28   P3    S    
N7    H54   S    
Ba1   Ba2   S    
O14   P7    D    
N2    H34   S    
C36   H5    S    
C7    O17   S    
N4    H39   S    
C7    O34   S    
C37   N2    S    
C10   C14   A    
Ba1   P2    S    
N3    H38   S    
C6    O33   S    
C21   C22   A    
O9    P5    S    
C7    H15   S    
C8    H16   S    
C7    C8    S    
Ba2   O6    S    
O19   P6    D    
Ba1   O1    S    
Ba1   O23   S    
O15   P7    S    
C9    H20   S    
C3    N3    S    
C36   O27   S    
C33   N9    S    
C4    O30   S    
Ba2   O4    S    
O25   H31   S    
C32   O37   S    
O7    P4    S    
O22   P2    D    
N8    H56   S    
C12   H18   S    
C27   H21   S    
C9    C18   A    
C28   C32   A    
C2    H11   S    
C6    N6    S    
O16   P8    D    
O30   H42   S    
C8    H17   S    
O28   H36   S    
C1    O28   S    
C6    H14   S    
C37   C38   S    
C14   C15   A    
N6    H49   S    
O24   P3    D    
C15   C19   A    
C34   N1    S    
C36   O26   S    
C20   H25   S    
C27   C28   A    
C24   C31   S    
C29   C30   A    
C18   P8    S    
C10   C13   A    
N9    H58   S    
C12   H24   S    
O10   P5    D    
C15   C16   A    
C24   C25   A    
C29   C32   A    
O29   H41   S    
Ba2   O5    S    
C25   H23   S    
C37   H6    S    
C26   P7    S    
Ba1   P1    S    
C21   P5    S    
C11   C13   A    
O31   H43   S    
Ba2   O14   S    
C8    O35   S    
C5    H13   S    
C13   P6    S    
O32   H44   S    
Ba2   O8    S    
C5    O11   S    
C2    O21   S    
Ba1   O18   S    
C38   H8    S    
O20   P1    S    
C22   H22   S    
Ba1   O8    S    
O11   P5    S    
C23   H26   S    
C33   O7    S    
C34   H3    S    
C35   O25   S    
O6    P8    S    
O35   H51   S    
C1    O31   S    
N6    H48   S    
C11   H19   S    
C29   P2    S    
O34   H50   S    
C3    N4    S    
O5    P4    S    
C10   N7    S    
O21   P6    S    
Ba1   O5    S    
C30   C31   A    
C35   H4    S    
Ba2   P4    S    
N7    H53   S    
N5    H45   S    
C19   O36   S    
Ba2   O9    S    
O37   H57   S    
O13   P2    S    
C38   H9    S    
C33   H28   S    
C38   H10   S    
C1    H7    S    
C37   O2    S    
O33   H47   S    
N8    H55   S    
N9    H59   S    
C12   C23   S    
C23   O32   S    
O18   P6    S    
N2    H35   S    
C5    N5    S    
Ba2   O12   S    
O23   P3    S    
O4    P4    D    
O3    P3    S    
C18   C19   A    
N1    H30   S    
C2    H1    S    
C25   C26   A    
O17   P8    S    
Ba1   O12   S    
C20   C21   A    
Ba2   O13   S    
C20   C26   A    
C4    O29   S    
C4    H12   S    
O12   P1    S    
O36   H52   S    
C17   P4    S    
C1    C2    S    
N5    H46   S    
