data_mof_unit_60894.cif
_audit_creation_date              2012-12-10T21:39:35-0500
_audit_creation_method            fapswitch 2.2
_symmetry_space_group_name_H-M    P1
_symmetry_Int_Tables_number       1
_space_group_crystal_system       triclinic
_cell_length_a                    16.084085
_cell_length_b                    16.903782
_cell_length_c                    23.448481
_cell_angle_alpha                 90.176114
_cell_angle_beta                  92.210055
_cell_angle_gamma                 86.495607
_cell_volume                      6358.56096915

loop_
_atom_site_label
_atom_site_type_symbol
_atom_type_description
_atom_site_fract_x
_atom_site_fract_y
_atom_site_fract_z
_atom_type_partial_charge
C1    C     C_R   0.487842 0.652736 0.499028 0.927531
C2    C     C_R   0.512158 0.347263 0.500968 0.927954
C3    C     C_R   0.573519 0.503643 0.764127 -0.125621
C4    C     C_R   0.577143 0.501499 0.240442 -0.123471
C5    C     C_R   0.574073 0.503228 0.705078 -0.181142
C6    C     C_R   0.576625 0.501921 0.299523 -0.200926
C7    C     C_R   0.499010 0.500427 0.672950 -0.138049
C8    C     C_R   0.501004 0.499574 0.327050 -0.137820
C9    C     C_R   0.423341 0.498111 0.700579 -0.189747
C10   C     C_R   0.425906 0.496738 0.294820 -0.170331
C11   C     C_R   0.422001 0.498509 0.759861 0.519467
C12   C     C_R   0.425630 0.496283 0.235518 0.515845
C13   C     C_R   0.498250 0.501286 0.791631 0.173417
C14   C     C_R   0.502385 0.498732 0.208384 0.173725
C15   C     C_R   0.478042 0.738336 0.499876 -0.129865
C16   C     C_R   0.521958 0.261663 0.500097 -0.129927
C17   C     C_R   0.536802 0.779108 0.531906 -0.274048
C18   C     C_R   0.463185 0.220906 0.468068 -0.273290
C19   C     C_R   0.532069 0.860875 0.532281 -0.130973
C20   C     C_R   0.467925 0.139138 0.467665 -0.130279
C21   C     C_R   0.468720 0.902933 0.499773 0.261113
C22   C     C_R   0.531297 0.097064 0.500143 0.260710
C23   C     C_R   0.499671 0.500096 0.610770 0.914380
C24   C     C_R   0.500326 0.499905 0.389230 0.913956
C25   C     C_R   0.407871 0.862501 0.469925 -0.208383
C26   C     C_R   0.592158 0.137483 0.529988 -0.208801
C27   C     C_R   0.412170 0.780177 0.469264 0.369433
C28   C     C_R   0.587853 0.219806 0.530676 0.369971
C29   C     C_R   0.763902 0.462028 0.472206 0.030414
C30   C     C_R   0.236105 0.537907 0.527840 0.035100
C31   C     C_R   0.851072 0.464142 0.473816 -0.246898
C32   C     C_R   0.148935 0.535793 0.526229 -0.241433
C33   C     C_R   0.890703 0.516148 0.511883 0.330221
C34   C     C_R   0.109297 0.483854 0.488114 0.326905
C35   C     C_R   0.840408 0.564315 0.547148 -0.275319
C36   C     C_R   0.159587 0.435751 0.452805 -0.270393
C37   C     C_R   0.753498 0.560288 0.544133 0.018900
C38   C     C_R   0.246496 0.439777 0.455821 0.023976
C39   C     C_R   0.513371 0.427887 0.119864 0.552048
C40   C     C_R   0.494486 0.572382 0.880347 0.552162
C41   C     C_R   0.498981 0.569490 0.119971 0.546535
C42   C     C_R   0.509140 0.430789 0.880246 0.546829
C43   C     C_R   0.499120 0.571318 0.060580 -0.069360
C44   C     C_R   0.511454 0.429047 0.939684 -0.069149
C45   C     C_R   0.506113 0.499357 0.030198 -0.063343
C46   C     C_R   0.504794 0.501019 0.970072 -0.063041
C47   C     C_R   0.513998 0.425960 0.059831 -0.112999
C48   C     C_R   0.496507 0.574403 0.940432 -0.112790
C49   C     C_R   0.491762 0.643581 0.031359 -0.176423
C50   C     C_R   0.520055 0.356828 0.968928 -0.176589
C51   C     C_R   0.490394 0.646053 0.972067 0.423820
C52   C     C_R   0.521472 0.354358 0.028220 0.424101
H1    H     H_    0.486642 0.699046 0.054636 0.228533
H2    H     H_    0.525533 0.301376 0.945658 0.228538
H3    H     H_    0.266401 0.577740 0.557017 0.141804
H4    H     H_    0.733610 0.422142 0.443067 0.139606
H5    H     H_    0.113420 0.574368 0.554483 0.167007
H6    H     H_    0.886592 0.425512 0.445601 0.165247
H7    H     H_    0.868495 0.604903 0.576914 0.159809
H8    H     H_    0.131494 0.395214 0.423003 0.161245
H9    H     H_    0.715174 0.597615 0.571504 0.130882
H10   H     H_    0.284815 0.402500 0.428414 0.133086
H11   H     H_    0.631685 0.505745 0.788790 0.167147
H12   H     H_    0.635698 0.503374 0.219321 0.166138
H13   H     H_    0.633207 0.505075 0.684679 0.183972
H14   H     H_    0.635332 0.504054 0.323544 0.177427
H15   H     H_    0.364879 0.496017 0.676221 0.186447
H16   H     H_    0.367020 0.494871 0.315574 0.192562
H17   H     H_    0.413251 0.252410 0.443470 0.177011
H18   H     H_    0.586720 0.747614 0.556526 0.176165
H19   H     H_    0.421377 0.108952 0.442765 0.171289
H20   H     H_    0.578604 0.891073 0.557185 0.170793
H21   H     H_    0.358950 0.895317 0.445282 0.185413
H22   H     H_    0.641095 0.104655 0.554609 0.185061
N1    N     N_R   0.505287 0.498701 0.147832 -0.376277
N2    N     N_R   0.500373 0.501491 0.852331 -0.376452
N3    N     N_2   0.465705 0.985873 0.494743 -0.171890
N4    N     N_2   0.534312 0.014123 0.505159 -0.172388
N5    N     N_R   0.716910 0.509720 0.507000 -0.091360
N6    N     N_R   0.283090 0.490280 0.493000 -0.093051
N7    N     N_2   0.979352 0.522209 0.516342 -0.170499
N8    N     N_2   0.020648 0.477795 0.483654 -0.170805
O1    O     O_R   0.422540 0.612660 0.497490 -0.573837
O2    O     O_R   0.577460 0.387340 0.502510 -0.574187
O3    O     O_R   0.561840 0.618900 0.501990 -0.633165
O4    O     O_R   0.438160 0.381100 0.498010 -0.632452
O5    O     O_R   0.430330 0.496900 0.581600 -0.634419
O6    O     O_R   0.569670 0.503100 0.418400 -0.631604
O7    O     O_R   0.569640 0.503140 0.586090 -0.612298
O8    O     O_R   0.430360 0.496860 0.413910 -0.615412
O9    O     O_2   0.520082 0.360411 0.150606 -0.458572
O10   O     O_2   0.486497 0.639814 0.849580 -0.458497
O11   O     O_2   0.492003 0.637761 0.149943 -0.516461
O12   O     O_2   0.515319 0.362488 0.850260 -0.516150
Zn1   Zn    Zn3+2 0.406980 0.495830 0.497000 0.994736
Zn2   Zn    Zn3+2 0.593020 0.504170 0.503000 0.992229
Cl1   Cl    Cl    0.337595 0.732917 0.426305 -0.561302
Cl2   Cl    Cl    0.662453 0.267043 0.573629 -0.566266
Cl3   Cl    Cl    0.480637 0.741584 0.941366 -0.456027
Cl4   Cl    Cl    0.532647 0.258880 0.058949 -0.456313
O13   O     O_3   0.345683 0.496116 0.784667 -0.732307
H23   H     H_    0.353451 0.496764 0.826717 0.345549
O14   O     O_3   0.349762 0.493484 0.206123 -0.728773
H24   H     H_    0.358208 0.493343 0.164562 0.344967

loop_
_geom_bond_atom_site_label_1
_geom_bond_atom_site_label_2
_ccdc_geom_bond_type
C16   C28   A    
O6    Zn2   S    
O13   H23   S    
C2    O2    A    
N7    N8    D    
O8    Zn1   S    
C45   C46   A    
C37   N5    A    
C50   H2    S    
C31   H6    S    
C19   C21   A    
C25   H21   S    
C33   C35   A    
O3    Zn2   S    
C49   H1    S    
C28   Cl2   S    
C35   H7    S    
O2    Zn2   S    
C40   C48   A    
C26   H22   S    
C48   C51   A    
C41   O11   S    
C49   C51   A    
O5    Zn1   S    
C50   C52   A    
C23   O7    A    
C20   H19   S    
C1    C15   S    
C39   N1    A    
C2    C16   S    
C34   C36   A    
C3    C13   A    
C30   N6    A    
C18   H17   S    
C17   H18   S    
C23   O5    A    
C1    O3    A    
C41   C43   A    
C19   H20   S    
C42   C44   A    
C32   H5    S    
C39   O9    S    
C44   C46   A    
C45   C47   A    
C51   Cl3   S    
C46   C48   A    
C22   N4    S    
C12   O14   S    
C5    H13   S    
C5    C7    A    
C43   C49   A    
C6    C8    A    
C3    C5    A    
N3    N4    D    
C52   Cl4   S    
C40   N2    A    
C32   C34   A    
C9    H15   S    
C41   N1    A    
C43   C45   A    
C15   C27   A    
C29   N5    A    
C13   N2    S    
O1    Zn1   S    
C31   C33   A    
C11   O13   S    
C40   O10   S    
N6    Zn1   S    
C9    C11   A    
C10   C12   A    
C4    C6    A    
C20   C22   A    
C10   H16   S    
C1    O1    A    
C17   C19   A    
C39   C47   A    
C44   C50   A    
C15   C17   A    
C21   C25   A    
C27   Cl1   S    
C35   C37   A    
C42   O12   S    
C42   N2    A    
C24   O6    A    
C8    C10   A    
C12   C14   A    
C36   H8    S    
C24   O8    A    
C37   H9    S    
C47   C52   A    
C29   H4    S    
C3    H11   S    
C25   C27   A    
C30   H3    S    
C4    H12   S    
C26   C28   A    
C14   N1    S    
O7    Zn2   S    
C36   C38   A    
N5    Zn2   S    
C29   C31   A    
C30   C32   A    
C11   C13   A    
C38   N6    A    
C7    C23   S    
C8    C24   S    
C2    O4    A    
C18   C20   A    
C4    C14   A    
O4    Zn1   S    
C7    C9    A    
C6    H14   S    
C16   C18   A    
C22   C26   A    
C21   N3    S    
O14   H24   S    
C34   N8    S    
C33   N7    S    
C38   H10   S    
