data_mof_unit_28867.cif
_audit_creation_date              2012-12-10T17:56:42-0500
_audit_creation_method            fapswitch 2.2
_symmetry_space_group_name_H-M    P1
_symmetry_Int_Tables_number       1
_space_group_crystal_system       triclinic
_cell_length_a                    10.793422
_cell_length_b                    9.538874
_cell_length_c                    10.862021
_cell_angle_alpha                 89.831249
_cell_angle_beta                  90.248655
_cell_angle_gamma                 90.612567
_cell_volume                      1118.24295694

loop_
_atom_site_label
_atom_site_type_symbol
_atom_type_description
_atom_site_fract_x
_atom_site_fract_y
_atom_site_fract_z
_atom_type_partial_charge
C1    C     C_R   0.262380 0.499370 0.496816 0.836709
C2    C     C_R   0.737734 0.500551 0.497230 0.832819
C3    C     C_R   0.936084 0.584957 0.406329 0.223796
C4    C     C_R   0.065705 0.582979 0.405169 0.240147
C5    C     C_R   0.435312 0.073865 0.412870 -0.008412
C6    C     C_R   0.564930 0.074830 0.586977 -0.020199
C7    C     C_R   0.435471 0.925257 0.412791 -0.011608
C8    C     C_R   0.564970 0.926180 0.586935 -0.023664
C9    C     C_R   0.509819 0.501158 0.262267 0.870917
C10   C     C_R   0.487869 0.500408 0.737523 0.827715
C11   C     C_R   0.554392 0.763152 0.112853 -0.076538
C12   C     C_R   0.444434 0.761211 0.882145 -0.112596
C13   C     C_R   0.536812 0.888157 0.049879 -0.149819
C14   C     C_R   0.479088 0.887244 0.935930 -0.166680
C15   C     C_R   0.476906 0.632133 0.937363 0.054004
C16   C     C_R   0.516101 0.633320 0.061249 0.064582
C17   C     C_R   0.519299 0.504834 0.127177 -0.301093
C18   C     C_R   0.474230 0.503171 0.872624 -0.320331
C19   C     C_R   0.514790 0.377338 0.062208 0.376881
C20   C     C_R   0.480638 0.376165 0.938759 0.377541
C21   C     C_R   0.063587 0.412024 0.572829 -0.224685
C22   C     C_R   0.935499 0.413249 0.573369 -0.208530
C23   C     C_R   0.871668 0.501190 0.492423 -0.123714
C24   C     C_R   0.128668 0.498362 0.490991 -0.120250
Cu1   Cu    Cu3+1 0.500000 0.640660 0.500000 0.972892
Cu2   Cu    Cu3+1 0.500000 0.359340 0.500000 0.958466
H1    H     H_    0.603985 0.770847 0.198772 0.194501
H2    H     H_    0.391371 0.767304 0.797826 0.156977
H3    H     H_    0.566288 0.985601 0.090825 0.182083
H4    H     H_    0.463605 0.983560 0.887193 0.187286
H5    H     H_    0.112129 0.345778 0.637971 0.148125
H6    H     H_    0.885995 0.347417 0.638624 0.157141
H7    H     H_    0.383278 0.129217 0.343020 0.152498
H8    H     H_    0.617133 0.130999 0.656691 0.145077
H9    H     H_    0.383952 0.869244 0.342643 0.172738
H10   H     H_    0.617288 0.870821 0.656551 0.137338
N1    N     N_R   0.500000 0.852070 0.500000 -0.167004
N2    N     N_R   0.500000 0.147940 0.500000 -0.173978
O1    O     O_R   0.319640 0.618740 0.499990 -0.557301
O2    O     O_R   0.680360 0.618740 0.500010 -0.548879
O3    O     O_R   0.319620 0.381170 0.499990 -0.594350
O4    O     O_R   0.680380 0.381170 0.500010 -0.594634
O5    O     O_R   0.500000 0.618810 0.319650 -0.581681
O6    O     O_R   0.500000 0.618810 0.680350 -0.603708
O7    O     O_R   0.499970 0.381240 0.319640 -0.557244
O8    O     O_R   0.500030 0.381240 0.680360 -0.554689
O9    O     O_3   0.544304 0.250704 0.117339 -0.607719
C25   C     C_3   0.673289 0.247314 0.143767 0.085176
H11   H     H_    0.689807 0.157181 0.206516 0.170523
H12   H     H_    0.706319 0.342087 0.194336 0.147216
C26   C     C_3   0.750588 0.227522 0.026844 -0.374082
H13   H     H_    0.720348 0.130523 0.978421 0.235890
H14   H     H_    0.737451 0.317858 0.963514 0.218200
C27   C     C_3   0.888043 0.218267 0.057899 -0.878354
H15   H     H_    0.919361 0.312570 0.109693 0.273328
H16   H     H_    0.941437 0.213122 0.971206 0.256717
H17   H     H_    0.906448 0.122900 0.113697 0.274485
O10   O     O_3   0.465993 0.247668 0.881685 -0.601229
C28   C     C_3   0.339095 0.223793 0.853448 0.072786
H18   H     H_    0.335694 0.146125 0.777384 0.171627
H19   H     H_    0.291485 0.318385 0.816665 0.108875
C29   C     C_3   0.268608 0.166068 0.965867 -0.375215
H20   H     H_    0.332980 0.112520 0.030200 0.265512
H21   H     H_    0.226354 0.254545 0.016494 0.211219
C30   C     C_3   0.167362 0.061810 0.927728 -0.873449
H22   H     H_    0.104218 0.110224 0.859137 0.243214
H23   H     H_    0.113366 0.028942 0.009838 0.282531
H24   H     H_    0.209226 0.967102 0.886479 0.260520
Br1   Br    Br    0.848545 0.694384 0.285138 -0.533205
Br2   Br    Br    0.155498 0.687186 0.280695 -0.503213

loop_
_geom_bond_atom_site_label_1
_geom_bond_atom_site_label_2
_ccdc_geom_bond_type
C10   O8    A    
C15   C18   A    
C29   H21   S    
C6    N2    A    
C9    O7    A    
C29   H20   S    
C26   H13   S    
C21   H5    S    
C11   C16   A    
C3    C23   A    
C19   C20   A    
Cu2   O7    S    
C12   C15   A    
C11   H1    S    
C26   C27   S    
Cu1   N1    S    
Cu1   O5    S    
C25   H12   S    
C7    N1    A    
C19   O9    S    
C28   H18   S    
Cu1   Cu2   S    
C13   C14   A    
Cu1   O1    S    
C1    O3    A    
C11   C13   A    
Cu2   O4    S    
C22   H6    S    
C2    O4    A    
C4    C24   A    
Cu1   O6    S    
C4    Br2   S    
C25   H11   S    
C3    Br1   S    
C14   H4    S    
C18   C20   A    
C22   C23   A    
Cu1   O2    S    
C10   C18   S    
C27   H16   S    
C9    O5    A    
C28   H19   S    
C8    N1    A    
C13   H3    S    
C26   H14   S    
C10   O6    A    
C15   C16   A    
O9    C25   S    
C2    O2    A    
C30   H24   S    
C5    N2    A    
C12   H2    S    
C1    C24   S    
C30   H22   S    
C8    H10   S    
C21   C24   A    
C9    C17   S    
C2    C23   S    
C5    C7    A    
C20   O10   S    
C1    O1    A    
C27   H15   S    
Cu2   N2    S    
C28   C29   S    
C6    C8    A    
C29   C30   S    
C17   C19   A    
O10   C28   S    
C21   C22   A    
Cu2   O8    S    
C7    H9    S    
C25   C26   S    
C3    C4    A    
C6    H8    S    
Cu2   O3    S    
C12   C14   A    
C16   C17   A    
C30   H23   S    
C27   H17   S    
C5    H7    S    
