data_mof_unit_51321.cif
_audit_creation_date              2012-12-10T20:45:34-0500
_audit_creation_method            fapswitch 2.2
_symmetry_space_group_name_H-M    P1
_symmetry_Int_Tables_number       1
_space_group_crystal_system       triclinic
_cell_length_a                    10.67389
_cell_length_b                    10.732989
_cell_length_c                    9.891882
_cell_angle_alpha                 88.011302
_cell_angle_beta                  91.104571
_cell_angle_gamma                 89.043194
_cell_volume                      1132.1770698

loop_
_atom_site_label
_atom_site_type_symbol
_atom_type_description
_atom_site_fract_x
_atom_site_fract_y
_atom_site_fract_z
_atom_type_partial_charge
C1    C     C_R   0.504342 0.259608 0.501876 0.959274
C2    C     C_R   0.832210 0.095035 0.724994 -0.046514
C3    C     C_R   0.812411 0.016965 0.616713 0.052187
C4    C     C_R   0.260381 0.506386 0.498485 0.982841
C5    C     C_R   0.826293 0.062929 0.484118 -0.146329
C6    C     C_R   0.858353 0.187285 0.459516 -0.207970
C7    C     C_R   0.878673 0.265976 0.567963 0.118997
C8    C     C_R   0.433882 0.060028 0.599884 0.078941
C9    C     C_R   0.499546 0.126656 0.501587 -0.025174
C10   C     C_R   0.540433 0.065857 0.386651 -0.249325
C11   C     C_R   0.531931 0.937961 0.380830 -0.178076
C12   C     C_R   0.203633 0.946606 0.280189 0.012119
C13   C     C_R   0.482509 0.870987 0.490504 -0.068320
C14   C     C_R   0.423044 0.933414 0.592880 -0.000170
C15   C     C_3   0.428411 0.911709 0.742425 -0.473722
C16   C     C_R   0.495838 0.739555 0.497613 0.907445
C17   C     C_3   0.448723 0.050140 0.750420 0.444170
C18   C     C_R   0.584844 0.430618 0.075994 0.230418
C19   C     C_R   0.421640 0.578154 0.067198 -0.116564
C20   C     C_R   0.421094 0.577848 0.923418 -0.112574
C21   C     C_R   0.584885 0.430787 0.933337 0.159772
C22   C     C_3   0.595207 0.293052 0.935434 -0.377210
C23   C     C_R   0.928563 0.604896 0.459668 0.619093
C24   C     C_3   0.597767 0.292869 0.087842 -0.526783
C25   C     C_R   0.739362 0.495556 0.501321 0.971812
C26   C     C_R   0.161325 0.942620 0.413702 -0.349239
C27   C     C_R   0.117986 0.831534 0.472498 0.675592
C28   C     C_R   0.115148 0.722974 0.397528 0.033350
C29   C     C_R   0.155174 0.727194 0.263461 -0.262743
C30   C     C_R   0.200117 0.837861 0.205388 -0.126556
C31   C     C_2   0.250358 0.064596 0.220109 0.403949
C32   C     C_2   0.144951 0.276852 0.580961 0.375922
C33   C     C_R   0.871489 0.495571 0.503543 -0.220485
C34   C     C_R   0.939994 0.387262 0.542785 -0.160328
C35   C     C_R   0.070279 0.390964 0.541477 -0.015043
C36   C     C_R   0.127523 0.501633 0.495898 -0.189707
C37   C     C_R   0.057419 0.608310 0.453105 -0.098015
C38   C     C_R   0.864937 0.219327 0.700857 -0.202909
F1    F     F_    0.570438 0.071762 0.791334 -0.697489
F2    F     F_    0.077117 0.830233 0.601607 -0.684650
F3    F     F_    0.857958 0.707082 0.420036 -0.682749
H1    H     H_    0.787485 0.920649 0.635541 0.172167
H2    H     H_    0.161793 0.025356 0.472761 0.195248
H3    H     H_    0.356940 0.639069 0.865764 0.153002
H4    H     H_    0.507643 0.253934 0.894604 0.254212
H5    H     H_    0.684040 0.259560 0.892430 0.225469
H6    H     H_    0.513886 0.248486 0.131998 0.246494
H7    H     H_    0.689475 0.262165 0.133869 0.189738
H8    H     H_    0.149212 0.645088 0.203198 0.168781
H9    H     H_    0.230465 0.838805 0.101532 0.177049
H10   H     H_    0.885575 0.277556 0.785419 0.132483
H11   H     H_    0.823882 0.058748 0.827813 0.166384
H12   H     H_    0.813474 0.001809 0.400401 0.178017
H13   H     H_    0.250537 0.148229 0.278434 0.129057
H14   H     H_    0.116914 0.216114 0.664427 0.087060
H15   H     H_    0.872707 0.220814 0.356535 0.142659
H16   H     H_    0.586752 0.115581 0.305704 0.166550
H17   H     H_    0.572993 0.891447 0.296421 0.191307
H18   H     H_    0.336660 0.882029 0.782676 0.182252
H19   H     H_    0.510621 0.854500 0.779609 0.242826
H20   H     H_    0.374995 0.100828 0.805465 0.109863
H21   H     H_    0.359042 0.640156 0.117555 0.140475
N1    N     N_R   0.499160 0.499140 0.142800 -0.106397
N2    N     N_R   0.499160 0.499180 0.857150 -0.113146
O1    O     O_R   0.500020 0.316790 0.614690 -0.602733
O2    O     O_2   0.235618 0.246932 0.516182 -0.652538
O3    O     O_R   0.500000 0.316760 0.385350 -0.633192
O4    O     O_R   0.316770 0.500030 0.614670 -0.616143
O5    O     O_R   0.316750 0.499990 0.385330 -0.612262
O6    O     O_R   0.500000 0.683240 0.614650 -0.629934
O7    O     O_R   0.499980 0.683210 0.385310 -0.619992
O8    O     O_R   0.683250 0.500010 0.614670 -0.617463
O9    O     O_R   0.683230 0.499970 0.385330 -0.605610
O10   O     O_2   0.289782 0.069898 0.105033 -0.603835
Zn1   Zn    Zn3+2 0.500010 0.500020 0.653130 0.976218
Zn2   Zn    Zn3+2 0.499990 0.499980 0.346870 0.978698

loop_
_geom_bond_atom_site_label_1
_geom_bond_atom_site_label_2
_ccdc_geom_bond_type
C4    C36   S    
C3    H1    S    
C18   C21   A    
C15   H19   S    
C35   C36   A    
C29   H8    S    
O4    Zn1   S    
C26   C27   A    
C18   C24   S    
C5    H12   S    
C36   C37   A    
C5    C6    A    
C18   N1    A    
N1    Zn2   S    
C19   H21   S    
O5    Zn2   S    
C34   C35   A    
C17   F1    S    
C21   N2    A    
C17   H20   S    
C7    C38   A    
C19   C20   A    
C19   N1    A    
C8    C9    A    
C23   C33   A    
C1    O1    A    
C11   H17   S    
C9    C10   A    
C32   H14   S    
C30   H9    S    
C21   C22   S    
C16   O7    A    
O8    Zn1   S    
C4    O5    A    
C20   H3    S    
C26   H2    S    
C24   H7    S    
C32   C35   S    
C10   H16   S    
C16   O6    A    
C4    O4    A    
C31   O10   D    
C38   H10   S    
C23   C37   A    
C12   C26   A    
C20   N2    A    
C29   C30   A    
C2    C38   A    
C27   F2    S    
C33   C34   A    
C1    C9    S    
C25   O8    A    
C2    H11   S    
C22   H5    S    
C12   C31   S    
C7    C34   S    
C22   C24   S    
C27   C28   A    
C32   O2    D    
C15   C17   S    
C28   C29   A    
C8    C14   A    
C12   C30   A    
C24   H6    S    
C15   H18   S    
C6    H15   S    
C3    C5    A    
O1    Zn1   S    
C6    C7    A    
C8    C17   S    
C23   F3    S    
C2    C3    A    
C11   C13   A    
O7    Zn2   S    
C28   C37   S    
C1    O3    A    
N2    Zn1   S    
C25   O9    A    
C31   H13   S    
C10   C11   A    
C22   H4    S    
O9    Zn2   S    
C13   C16   S    
O6    Zn1   S    
C14   C15   S    
O3    Zn2   S    
C13   C14   A    
C25   C33   S    
