data_mof_unit_12963.cif
_audit_creation_date              2012-12-10T18:14:27-0500
_audit_creation_method            fapswitch 2.2
_symmetry_space_group_name_H-M    P1
_symmetry_Int_Tables_number       1
_space_group_crystal_system       triclinic
_cell_length_a                    12.837372
_cell_length_b                    13.084109
_cell_length_c                    19.110587
_cell_angle_alpha                 94.661545
_cell_angle_beta                  104.761214
_cell_angle_gamma                 81.177132
_cell_volume                      3064.26102546

loop_
_atom_site_label
_atom_site_type_symbol
_atom_type_description
_atom_site_fract_x
_atom_site_fract_y
_atom_site_fract_z
_atom_type_partial_charge
C1    C     C_R   0.439109 0.691960 0.491261 0.972274
C2    C     C_R   0.439742 0.567110 0.137994 -0.272813
C3    C     C_R   0.734550 0.048422 0.569951 0.231937
C4    C     C_R   0.504038 0.499293 0.635079 0.896239
C5    C     C_R   0.599743 0.201624 0.537730 -0.151198
C6    C     C_R   0.298843 0.840101 0.503227 -0.215129
C7    C     C_R   0.275622 0.940620 0.531075 0.112445
C8    C     C_R   0.360087 0.003258 0.553243 0.456305
C9    C     C_R   0.458489 0.972337 0.530174 -0.110845
C10   C     C_R   0.475074 0.874872 0.494888 -0.100257
C11   C     C_R   0.542311 0.034192 0.539986 0.078213
C12   C     C_R   0.504445 0.515461 0.712187 -0.160179
C13   C     C_R   0.649509 0.988071 0.540775 0.065067
C14   C     C_R   0.661741 0.894029 0.499230 0.080187
C15   C     C_R   0.566667 0.850757 0.465108 0.437659
C16   C     C_R   0.561729 0.309639 0.515386 0.829797
C17   C     C_R   0.517815 0.139629 0.531195 -0.144540
C18   C     C_R   0.709564 0.157990 0.569374 0.147405
C19   C     C_R   0.401401 0.804126 0.491244 -0.048367
C20   C     C_R   0.076389 0.385469 0.372397 0.415709
C21   C     C_R   0.812367 0.624739 0.594279 0.480530
C22   C     C_R   0.918895 0.651385 0.608349 0.003762
C23   C     C_R   0.426556 0.573607 0.059647 0.439961
C24   C     C_R   0.976384 0.628455 0.555712 0.143534
C25   C     C_R   0.957238 0.540262 0.510123 -0.013116
C26   C     C_R   0.854953 0.500160 0.500099 0.067027
C27   C     C_R   0.038844 0.489473 0.475795 -0.073656
C28   C     C_R   0.493094 0.505761 0.364478 0.951245
C29   C     C_R   0.010218 0.416638 0.419913 -0.167132
C30   C     C_R   0.936451 0.355258 0.427134 0.435150
C31   C     C_R   0.848620 0.400618 0.456489 0.041253
C32   C     C_R   0.151294 0.497287 0.499884 -0.032377
C33   C     C_R   0.186887 0.390469 0.398870 0.215855
C34   C     C_R   0.441750 0.558913 0.920959 0.351927
C35   C     C_R   0.419637 0.587735 0.726788 -0.176151
C36   C     C_R   0.402975 0.601936 0.795512 -0.189400
C37   C     C_R   0.467068 0.540458 0.850759 -0.092662
C38   C     C_R   0.554215 0.465320 0.838750 0.353786
C39   C     C_R   0.578241 0.458052 0.769240 0.268794
C40   C     C_3   0.766904 0.852268 0.478487 -0.755613
C41   C     C_3   0.847440 0.997875 0.606567 -0.849620
C42   C     C_3   0.162600 0.973852 0.541416 -0.694257
C43   C     C_3   0.262954 0.329931 0.356917 -0.620734
C44   C     C_3   0.050975 0.703858 0.546882 -0.912693
C45   C     C_R   0.348973 0.563511 0.166667 0.293019
C46   C     C_3   0.977625 0.699062 0.679908 -0.666554
C47   C     C_3   0.762090 0.330596 0.435886 -0.687927
C48   C     C_3   0.656470 0.430872 0.278822 -0.685009
C49   C     C_3   0.798614 0.221736 0.607770 -0.710750
C50   C     C_R   0.366351 0.564088 0.242816 0.321020
C51   C     C_R   0.472206 0.525482 0.285463 -0.237813
C52   C     C_R   0.558936 0.508677 0.251253 0.036717
C53   C     C_R   0.545820 0.550734 0.183896 0.342547
H1    H     H_    0.364803 0.633437 0.684065 0.160341
H2    H     H_    0.879727 0.037913 0.659233 0.268487
H3    H     H_    0.845883 0.918526 0.621037 0.276936
H4    H     H_    0.461042 0.170095 0.712400 0.409386
H5    H     H_    0.101630 0.951733 0.492089 0.229339
H6    H     H_    0.152124 0.934885 0.588175 0.227709
H7    H     H_    0.144966 0.058884 0.549893 0.317499
H8    H     H_    0.603374 0.860256 0.282849 0.414195
H9    H     H_    0.251105 0.362838 0.303372 0.269605
H10   H     H_    0.348648 0.324911 0.383568 0.240267
H11   H     H_    0.247264 0.248272 0.348830 0.250824
H12   H     H_    0.433093 0.171121 0.512885 0.213188
H13   H     H_    0.924718 0.086100 0.459031 0.373626
H14   H     H_    0.031107 0.200895 0.215864 0.406722
H15   H     H_    0.743182 0.819791 0.730751 0.410778
H16   H     H_    0.127473 0.696536 0.590311 0.232827
H17   H     H_    0.069359 0.693840 0.492863 0.252026
H18   H     H_    0.010947 0.784751 0.550579 0.243007
H19   H     H_    0.948729 0.678915 0.726228 0.291310
H20   H     H_    0.065379 0.667257 0.692865 0.213486
H21   H     H_    0.970872 0.784134 0.677180 0.247365
H22   H     H_    0.681121 0.366842 0.415193 0.239601
H23   H     H_    0.238666 0.787799 0.495605 0.181791
H24   H     H_    0.766272 0.281238 0.386585 0.232428
H25   H     H_    0.772174 0.274984 0.477635 0.270286
H26   H     H_    0.712216 0.223075 0.913349 0.402702
H27   H     H_    0.589878 0.276809 0.678467 0.340510
H28   H     H_    0.049812 0.557685 0.111731 0.415450
H29   H     H_    0.135491 0.604560 0.326818 0.376859
H30   H     H_    0.629048 0.362841 0.295970 0.185375
H31   H     H_    0.695732 0.399305 0.234858 0.277180
H32   H     H_    0.715891 0.466409 0.322972 0.282676
H33   H     H_    0.702698 0.433716 0.105428 0.380948
H34   H     H_    0.336960 0.659196 0.805159 0.179044
H35   H     H_    0.779505 0.305039 0.600410 0.283320
H36   H     H_    0.818629 0.210638 0.666808 0.295652
H37   H     H_    0.873728 0.196094 0.589432 0.264153
H38   H     H_    0.184652 0.539849 0.548978 0.163912
H39   H     H_    0.758423 0.786976 0.437700 0.285120
H40   H     H_    0.798252 0.914158 0.456640 0.253528
H41   H     H_    0.827085 0.819269 0.525704 0.213868
H42   H     H_    0.903975 0.997815 0.571264 0.234647
N1    N     N_R   0.478157 0.638643 0.965462 -0.093934
N2    N     N_R   0.469684 0.646307 0.033642 -0.056825
N3    N     N_R   0.384582 0.497603 0.013539 -0.058431
N4    N     N_R   0.389856 0.491510 0.944805 -0.080754
N5    N     N_R   0.222200 0.444680 0.463280 -0.118845
N6    N     N_R   0.776960 0.554780 0.536340 -0.173965
O1    O     O_R   0.366740 0.627160 0.482470 -0.604542
O2    O     O_2   0.287104 0.074051 0.671171 -0.272336
O3    O     O_3   0.474712 0.122033 0.671907 -0.525880
O4    O     O_2   0.586452 0.705256 0.360104 -0.312796
O5    O     O_2   0.425441 0.837898 0.334327 -0.217229
O6    O     O_3   0.611038 0.889348 0.333119 -0.533877
O7    O     O_2   0.916069 0.175966 0.344643 -0.230114
O8    O     O_2   0.094322 0.188147 0.427135 -0.259528
O9    O     O_3   0.939689 0.155021 0.481352 -0.616170
O10   O     O_2   0.898138 0.356452 0.265683 -0.280830
O11   O     O_2   0.052010 0.406218 0.230059 -0.210945
O12   O     O_R   0.544830 0.662520 0.505920 -0.572598
O13   O     O_3   0.066467 0.217680 0.267063 -0.479525
O14   O     O_2   0.614479 0.704593 0.631797 -0.293774
O15   O     O_2   0.762673 0.616776 0.722163 -0.238804
O16   O     O_3   0.773173 0.800224 0.687885 -0.597040
O17   O     O_2   0.737089 0.421727 0.943463 -0.189529
O18   O     O_2   0.575193 0.372887 0.967970 -0.285247
O19   O     O_3   0.656644 0.260226 0.874393 -0.455066
O20   O     O_2   0.740275 0.415314 0.698105 -0.282462
O21   O     O_2   0.784950 0.356111 0.818664 -0.141560
O22   O     O_3   0.652481 0.259160 0.720092 -0.505719
O23   O     O_R   0.410920 0.482320 0.590130 -0.625056
O24   O     O_2   0.188055 0.645795 0.057874 -0.251967
O25   O     O_2   0.219550 0.456900 0.062883 -0.249974
O26   O     O_3   0.117459 0.558907 0.150672 -0.400594
O27   O     O_2   0.316862 0.691015 0.350639 -0.295100
O28   O     O_2   0.197675 0.717981 0.231868 -0.169770
O29   O     O_3   0.183333 0.559257 0.300387 -0.502986
O30   O     O_2   0.643020 0.691967 0.138716 -0.204268
O31   O     O_2   0.762913 0.567097 0.220116 -0.226618
O32   O     O_3   0.684066 0.504713 0.087389 -0.449801
O33   O     O_R   0.589010 0.517690 0.613590 -0.491291
O34   O     O_R   0.455170 0.337480 0.494080 -0.620576
O35   O     O_R   0.633260 0.372840 0.517530 -0.633267
O36   O     O_R   0.410990 0.482310 0.386410 -0.598279
O37   O     O_R   0.589080 0.517680 0.409870 -0.587525
O38   O     O_2   0.293208 0.202524 0.586660 -0.294860
S1    S     S_3+6 0.350524 0.103568 0.621534 0.025139
S2    S     S_3+6 0.662435 0.580775 0.158850 0.104878
S3    S     S_3+6 0.544293 0.817076 0.371075 0.040080
S4    S     S_3+6 0.973707 0.215848 0.418122 0.046670
S5    S     S_3+6 0.019900 0.342976 0.281270 0.097407
S6    S     S_3+6 0.735202 0.683805 0.658050 0.049566
S7    S     S_3+6 0.631500 0.381063 0.909341 0.117249
S8    S     S_3+6 0.693575 0.373394 0.752101 0.095113
S9    S     S_3+6 0.216593 0.556828 0.107494 0.124307
S10   S     S_3+6 0.264827 0.636663 0.282144 0.133674
Zn1   Zn    Zn3+2 0.381090 0.476390 0.484340 0.991262
Zn2   Zn    Zn3+2 0.618910 0.523610 0.515660 1.056364

loop_
_geom_bond_atom_site_label_1
_geom_bond_atom_site_label_2
_ccdc_geom_bond_type
O19   S7    S    
C27   C29   A    
C34   C37   S    
O12   Zn2   S    
C35   C36   A    
C40   H40   S    
C42   H5    S    
C43   H10   S    
C7    C8    A    
C41   H42   S    
O18   S7    D    
C6    C19   A    
C29   C30   A    
C44   H18   S    
C36   C37   A    
H14   O13   S    
C34   N1    A    
C10   C15   A    
C26   N6    A    
O15   S6    D    
C28   C51   S    
C32   H38   S    
C5    C17   A    
C45   S9    S    
C4    O23   A    
C3    C18   A    
O16   S6    S    
C7    C42   S    
C20   S5    S    
C38   S7    S    
C5    C16   S    
C3    C41   S    
C8    C9    A    
O20   S8    D    
C44   H17   S    
C40   H41   S    
C4    C12   S    
C9    C10   A    
C49   H37   S    
C46   H19   S    
O30   S2    D    
O26   S9    S    
C21   N6    A    
C26   C31   A    
C2    C45   A    
C31   C47   S    
C21   C22   A    
N1    N2    A    
C35   H1    S    
C49   H35   S    
C1    O12   A    
C43   H11   S    
C50   C51   A    
C20   C29   A    
C36   H34   S    
C38   C39   A    
C32   N5    A    
C1    C19   S    
C51   C52   A    
C33   C43   S    
O17   S7    D    
C28   O37   A    
C24   C25   A    
C42   H7    S    
O4    S3    D    
O25   S9    D    
C5    C18   A    
N5    Zn1   S    
C25   C26   A    
N6    Zn2   S    
H13   O9    S    
C30   S4    S    
O3    S1    S    
O6    S3    S    
O13   S5    S    
C41   H3    S    
O28   S10   D    
C37   C38   A    
H15   O16   S    
C15   S3    S    
H33   O32   S    
C10   C19   A    
H26   O19   S    
O29   S10   S    
C34   N4    A    
C44   H16   S    
O8    S4    D    
O21   S8    D    
C40   H39   S    
C12   C35   A    
C9    C11   A    
O10   S5    D    
O1    Zn1   S    
C20   C33   A    
C22   C46   S    
O22   S8    S    
C24   C44   S    
C22   C24   A    
O36   Zn1   S    
H29   O29   S    
C47   H24   S    
C16   O35   A    
C46   H21   S    
O35   Zn2   S    
C52   C53   A    
C4    O33   A    
O31   S2    D    
H4    O3    S    
O23   Zn1   S    
C11   C17   A    
O5    S3    D    
C23   N2    A    
C27   C32   A    
C14   C15   A    
O32   S2    S    
C28   O36   A    
C49   H36   S    
C2    C53   A    
C3    C13   A    
C42   H6    S    
O38   S1    D    
C6    H23   S    
C6    C7    A    
O37   Zn2   S    
C25   C27   A    
O34   Zn1   S    
O14   S6    D    
C17   H12   S    
O24   S9    D    
C48   H30   S    
C8    S1    S    
C33   N5    A    
O11   S5    D    
C12   C39   A    
C47   H22   S    
O2    S1    D    
C11   C13   A    
C50   S10   S    
C30   C31   A    
C45   C50   A    
C41   H2    S    
O33   Zn2   S    
C53   S2    S    
O7    S4    D    
O9    S4    S    
H8    O6    S    
C14   C40   S    
C48   H31   S    
O27   S10   D    
C48   C52   S    
C23   N3    A    
C43   H9    S    
N3    N4    A    
C39   S8    S    
C2    C23   S    
C48   H32   S    
C47   H25   S    
C13   C14   A    
C16   O34   A    
C1    O1    A    
C46   H20   S    
H28   O26   S    
C18   C49   S    
C21   S6    S    
H27   O22   S    
