data_mof_unit_22582.cif
_audit_creation_date              2013-03-05T16:44:04-0500
_audit_creation_method            fapswitch 2.2
_symmetry_space_group_name_H-M    P1
_symmetry_Int_Tables_number       1
_space_group_crystal_system       triclinic
_cell_length_a                    19.196407
_cell_length_b                    10.777956
_cell_length_c                    9.886947
_cell_angle_alpha                 89.16647
_cell_angle_beta                  90.126881
_cell_angle_gamma                 90.965414
_cell_volume                      2045.07908402

loop_
_atom_site_label
_atom_site_type_symbol
_atom_site_description
_atom_site_fract_x
_atom_site_fract_y
_atom_site_fract_z
_atom_type_partial_charge
O1    O     O_R   0.500010 0.316790 0.614690 -0.565002
O2    O     O_R   0.500000 0.316760 0.385350 -0.591924
C1    C     C_R   0.503195 0.260367 0.500478 0.906599
O3    O     O_R   0.398140 0.500000 0.614710 -0.617685
O4    O     O_R   0.398130 0.499970 0.385370 -0.623911
C2    C     C_R   0.365730 0.498133 0.500005 0.921337
Zn1   Zn    Zn3+2 0.500000 0.500020 0.653130 1.042062
Zn2   Zn    Zn3+2 0.500000 0.499980 0.346870 1.018388
O5    O     O_R   0.500000 0.683240 0.614650 -0.604539
O6    O     O_R   0.499990 0.683210 0.385310 -0.587995
O7    O     O_R   0.601870 0.500030 0.614630 -0.578012
O8    O     O_R   0.601860 0.500000 0.385290 -0.598849
C3    C     C_R   0.502088 0.739324 0.499068 0.950652
C4    C     C_R   0.634661 0.495169 0.500329 0.923517
C5    C     C_R   0.252282 0.541792 0.603580 -0.239785
H1    H     H_    0.279009 0.591778 0.683235 0.212241
C6    C     C_R   0.179751 0.534255 0.602929 0.269407
C7    C     C_R   0.145759 0.470795 0.496498 -0.153642
C8    C     C_R   0.183965 0.418207 0.391055 0.523179
C9    C     C_R   0.256624 0.425359 0.395933 -0.290272
H2    H     H_    0.286971 0.377284 0.321939 0.161237
C10   C     C_R   0.290367 0.489219 0.499604 -0.141563
N1    N     N_R   0.034734 0.488185 0.380456 -0.112947
N2    N     N_R   0.965754 0.479958 0.378692 -0.106547
C11   C     C_R   0.930453 0.439995 0.489979 0.372121
N3    N     N_R   0.966436 0.407816 0.603015 -0.161564
N4    N     N_R   0.035481 0.415946 0.604857 -0.124517
C12   C     C_R   0.070455 0.457543 0.493966 0.414907
C13   C     C_R   0.821752 0.467706 0.614768 -0.326663
H3    H     H_    0.852178 0.478959 0.706320 0.192899
C14   C     C_R   0.749648 0.479106 0.621228 0.527609
C15   C     C_R   0.710383 0.476938 0.500398 -0.203523
C16   C     C_R   0.743290 0.447409 0.378420 -0.341141
H4    H     H_    0.712533 0.432956 0.288184 0.212679
C17   C     C_R   0.815533 0.431040 0.373048 0.543317
C18   C     C_R   0.854618 0.443602 0.492368 -0.078099
C19   C     C_R   0.512992 0.059328 0.618361 -0.046455
C20   C     C_R   0.511549 0.129000 0.498845 -0.203939
C21   C     C_R   0.517780 0.065384 0.374106 0.493262
C22   C     C_R   0.514259 0.936191 0.374073 -0.245776
H5    H     H_    0.514741 0.889007 0.278051 0.217419
C23   C     C_R   0.509335 0.870111 0.496806 -0.122073
C24   C     C_R   0.512700 0.934844 0.615918 -0.083737
C25   C     C_3   0.508772 0.916576 0.765029 0.016982
C26   C     C_3   0.510333 0.060767 0.770672 0.676229
H6    H     H_    0.554902 0.868305 0.807112 0.150057
C27   C     C_R   0.439021 0.494634 0.070282 0.216801
N5    N     N_R   0.499530 0.499140 0.142800 -0.166891
C28   C     C_R   0.558349 0.534859 0.070247 0.297221
C29   C     C_R   0.558551 0.529218 0.926481 -0.128547
H7    H     H_    0.604705 0.555959 0.870532 0.227881
N6    N     N_R   0.499530 0.499180 0.857150 -0.122195
C30   C     C_R   0.438911 0.496610 0.928892 0.300884
C31   C     C_3   0.379929 0.405841 0.922021 -0.494263
C32   C     C_3   0.380775 0.402078 0.076597 -0.540201
H8    H     H_    0.332184 0.448773 0.879766 0.225365
H9    H     H_    0.394474 0.318744 0.872926 0.258328
H10   H     H_    0.333333 0.442915 0.120096 0.212483
H11   H     H_    0.396448 0.312081 0.122219 0.218916
N7    N     N_R   0.442349 0.859158 0.807256 0.244442
O9    O     O_R   0.440914 0.783614 0.910960 -0.421538
O10   O     O_R   0.384564 0.883048 0.743428 -0.327979
O11   O     O_3   0.448274 0.112827 0.819751 -0.608618
C33   C     C_3   0.446518 0.105199 0.962687 -0.147998
H12   H     H_    0.476441 0.184339 0.005596 0.198018
H13   H     H_    0.467174 0.016849 0.004810 0.194047
H14   H     H_    0.391636 0.111587 0.996293 0.185122
N8    N     N_R   0.574100 0.116582 0.827924 0.143312
O12   O     O_R   0.619037 0.049377 0.893436 -0.450795
O13   O     O_R   0.582561 0.236471 0.824987 -0.431637
N9    N     N_R   0.616481 0.594347 0.134641 0.219305
O14   O     O_R   0.605542 0.690245 0.209368 -0.360684
O15   O     O_R   0.678662 0.580290 0.086035 -0.461027
N10   N     N_R   0.141736 0.594977 0.707608 0.226407
O16   O     O_R   0.086577 0.658566 0.678014 -0.352801
O17   O     O_R   0.167601 0.601718 0.829132 -0.383548
O18   O     O_3   0.149096 0.349041 0.293482 -0.594837
C34   C     C_3   0.171896 0.382624 0.162019 -0.189019
H15   H     H_    0.219052 0.330145 0.135211 0.156332
H16   H     H_    0.181535 0.484454 0.149606 0.172160
H17   H     H_    0.130446 0.356371 0.088980 0.219289
O19   O     O_3   0.717976 0.495417 0.745144 -0.596806
C35   C     C_3   0.725635 0.386155 0.824269 -0.165116
H18   H     H_    0.779667 0.378364 0.863362 0.133676
H19   H     H_    0.711131 0.301252 0.766963 0.194506
H20   H     H_    0.690555 0.390011 0.912855 0.211470
O20   O     O_3   0.848243 0.390543 0.256904 -0.607213
C36   C     C_3   0.832705 0.467943 0.145048 -0.177209
H21   H     H_    0.874026 0.457550 0.067976 0.192608
H22   H     H_    0.831464 0.568057 0.171636 0.188158
H23   H     H_    0.782917 0.437606 0.098397 0.182423
O21   O     O_3   0.522840 0.127452 0.251204 -0.631072
C37   C     C_3   0.594053 0.144559 0.220093 -0.216440
H24   H     H_    0.622385 0.195720 0.301074 0.140430
H25   H     H_    0.598458 0.201544 0.126080 0.217839
H26   H     H_    0.619176 0.054103 0.201488 0.203069

loop_
_geom_bond_atom_site_label_1
_geom_bond_atom_site_label_2
_geom_bond_distance
_ccdc_geom_bond_type
O20   C36   1.409962 S    
C37   H24   1.114315 S    
C32   H11   1.109662 S    
C36   H22   1.114956 S    
C8    C9    1.396386 A    
O18   C34   1.412615 S    
C25   C26   1.555678 S    
Zn1   O7    1.993064 S    
C13   C18   1.395739 A    
N3    N4    1.326941 A    
C19   C20   1.391292 A    
C14   O19   1.383722 S    
N10   O17   1.301576 A    
C35   H18   1.110176 S    
Zn1   N6    2.017063 S    
C20   C21   1.425984 A    
O7    C4    1.296948 A    
C34   H16   1.114977 S    
C5    H1    1.083940 S    
C2    C10   1.448276 S    
N7    O10   1.302609 A    
C7    C8    1.407337 A    
C8    O18   1.391272 S    
O5    C3    1.285368 A    
C17   O20   1.389388 S    
C5    C10   1.395201 A    
C14   C15   1.411416 A    
C1    C20   1.427921 S    
N8    O12   1.301242 A    
C29   N6    1.359783 A    
N1    N2    1.325736 A    
C27   C30   1.397761 A    
C22   C23   1.400621 A    
C37   H25   1.109202 S    
O3    Zn1   1.991074 S    
C3    C23   1.413992 S    
C25   H6    1.111550 S    
C6    C7    1.415548 A    
C31   H8    1.111591 S    
N10   O16   1.301431 A    
C33   H14   1.108932 S    
C7    C12   1.450401 S    
N2    C11   1.354638 A    
O3    C2    1.292573 A    
C21   C22   1.392944 A    
N9    O15   1.299789 A    
C34   H15   1.110081 S    
C11   N3    1.356384 A    
C30   C31   1.485910 S    
C26   O11   1.415108 S    
N7    O9    1.300016 A    
O1    C1    1.292362 A    
C17   C18   1.403666 A    
C33   H13   1.112604 S    
C19   C24   1.342171 A    
C24   C25   1.486412 S    
Zn2   N5    2.017781 S    
C13   H3    1.083347 S    
C27   N5    1.364205 A    
C36   H23   1.106806 S    
Zn2   O8    1.991072 S    
C26   N8    1.470624 S    
C29   H7    1.078409 S    
N1    C12   1.353580 A    
C9    H2    1.079871 S    
Zn2   O6    2.016508 S    
C22   H5    1.083621 S    
C35   H19   1.114313 S    
C9    C10   1.395163 A    
C28   C29   1.423615 A    
C37   H26   1.112820 S    
C6    N10   1.439153 S    
C23   C24   1.378352 A    
C19   C26   1.507182 S    
C21   O21   1.381366 S    
N6    C30   1.363822 A    
C27   C32   1.486653 S    
C5    C6    1.393341 A    
C31   C32   1.528288 S    
N5    C28   1.385120 A    
O1    Zn1   2.016508 S    
O2    Zn2   2.005609 S    
C4    C15   1.470070 S    
O6    C3    1.284973 A    
O4    Zn2   1.993066 S    
C33   H12   1.109248 S    
O2    C1    1.284392 A    
O8    C4    1.299631 A    
N9    O14   1.299409 A    
C13   C14   1.393333 A    
C15   C16   1.405734 A    
C34   H17   1.109271 S    
O4    C2    1.293771 A    
C25   N7    1.466768 S    
O21   C37   1.410360 S    
C16   C17   1.402153 A    
C16   H4    1.080475 S    
C11   C18   1.457196 S    
O11   C33   1.414837 S    
Zn1   O5    2.005611 S    
C35   H20   1.107662 S    
C36   H21   1.109281 S    
N8    O13   1.299523 A    
O19   C35   1.413827 S    
C28   N9    1.430505 S    
C32   H10   1.108525 S    
N4    C12   1.353732 A    
C31   H9    1.103398 S    
