data_mof_unit_15525.cif
_audit_creation_date              2013-03-05T15:50:22-0500
_audit_creation_method            fapswitch 2.2
_symmetry_space_group_name_H-M    P1
_symmetry_Int_Tables_number       1
_space_group_crystal_system       triclinic
_cell_length_a                    18.416565
_cell_length_b                    25.678864
_cell_length_c                    18.250258
_cell_angle_alpha                 89.808684
_cell_angle_beta                  90.000182
_cell_angle_gamma                 89.999634
_cell_volume                      8630.79943792

loop_
_atom_site_label
_atom_site_type_symbol
_atom_site_description
_atom_site_fract_x
_atom_site_fract_y
_atom_site_fract_z
_atom_type_partial_charge
Zn1   Zn    Zn3+2 0.249990 0.293780 0.913250 1.114635
Zn2   Zn    Zn3+2 0.249990 0.706220 0.086750 1.108146
Zn3   Zn    Zn3+2 0.249990 0.706220 0.913250 1.076621
Zn4   Zn    Zn3+2 0.249990 0.293780 0.086750 1.078073
Zn5   Zn    Zn3+2 0.749990 0.793780 0.413250 1.108168
Zn6   Zn    Zn3+2 0.749990 0.206220 0.586750 1.114572
Zn7   Zn    Zn3+2 0.749990 0.206220 0.413250 1.078061
Zn8   Zn    Zn3+2 0.749990 0.793780 0.586750 1.076606
Zn9   Zn    Zn3+2 0.336760 0.206240 0.000000 1.002145
Zn10  Zn    Zn3+2 0.336760 0.793760 0.000000 1.000159
Zn11  Zn    Zn3+2 0.836760 0.706240 0.500000 1.000164
Zn12  Zn    Zn3+2 0.836760 0.293760 0.500000 1.002109
Zn13  Zn    Zn3+2 0.163250 0.206230 0.000000 1.126592
Zn14  Zn    Zn3+2 0.163250 0.793770 0.000000 1.136673
Zn15  Zn    Zn3+2 0.663250 0.706230 0.500000 1.136677
Zn16  Zn    Zn3+2 0.663250 0.293770 0.500000 1.126617
O1    O     O_3   0.249990 0.250010 0.000000 -0.539018
O2    O     O_3   0.249990 0.749990 0.000000 -0.538779
O3    O     O_3   0.749990 0.750010 0.500000 -0.538778
O4    O     O_3   0.749990 0.249990 0.500000 -0.539019
O5    O     O_R   0.335430 0.280650 0.146160 -0.619347
O6    O     O_R   0.335430 0.719350 0.853840 -0.619804
O7    O     O_R   0.335430 0.719350 0.146160 -0.606644
O8    O     O_R   0.335430 0.280650 0.853840 -0.597206
O9    O     O_R   0.835430 0.780650 0.646160 -0.619820
O10   O     O_R   0.835430 0.219350 0.353840 -0.619339
O11   O     O_R   0.835430 0.219350 0.646160 -0.597175
O12   O     O_R   0.835430 0.780650 0.353840 -0.606635
O13   O     O_R   0.164550 0.280640 0.853840 -0.634418
O14   O     O_R   0.164550 0.719360 0.146160 -0.638143
O15   O     O_R   0.164550 0.719360 0.853840 -0.669106
O16   O     O_R   0.164550 0.280640 0.146160 -0.667803
O17   O     O_R   0.664550 0.780640 0.353840 -0.638161
O18   O     O_R   0.664550 0.219360 0.646160 -0.634640
O19   O     O_R   0.664550 0.219360 0.353840 -0.667803
O20   O     O_R   0.664550 0.780640 0.646160 -0.669115
O21   O     O_R   0.396160 0.219380 0.914560 -0.654608
O22   O     O_R   0.396160 0.780620 0.085440 -0.672368
O23   O     O_R   0.396160 0.780620 0.914560 -0.668176
O24   O     O_R   0.396160 0.219380 0.085440 -0.661054
O25   O     O_R   0.896160 0.719380 0.414560 -0.672373
O26   O     O_R   0.896160 0.280620 0.585440 -0.654544
O27   O     O_R   0.896160 0.280620 0.414560 -0.661044
O28   O     O_R   0.896160 0.719380 0.585440 -0.668184
O29   O     O_R   0.103840 0.219370 0.085450 -0.588208
O30   O     O_R   0.103840 0.780630 0.914550 -0.587697
O31   O     O_R   0.103840 0.780630 0.085450 -0.592822
O32   O     O_R   0.103840 0.219370 0.914550 -0.590926
O33   O     O_R   0.603840 0.719370 0.585450 -0.587691
O34   O     O_R   0.603840 0.280630 0.414550 -0.588194
O35   O     O_R   0.603840 0.280630 0.585450 -0.590889
O36   O     O_R   0.603840 0.719370 0.414550 -0.592821
O37   O     O_R   0.310730 0.133160 0.000000 -0.669626
O38   O     O_R   0.310730 0.866840 0.000000 -0.658059
O39   O     O_R   0.810730 0.633160 0.500000 -0.658075
O40   O     O_R   0.810730 0.366840 0.500000 -0.669608
O41   O     O_R   0.249970 0.366860 0.060720 -0.601050
O42   O     O_R   0.249970 0.633140 0.939280 -0.602360
O43   O     O_R   0.249970 0.633140 0.060720 -0.624457
O44   O     O_R   0.249970 0.366860 0.939280 -0.621842
O45   O     O_R   0.749970 0.866860 0.560720 -0.602392
O46   O     O_R   0.749970 0.133140 0.439280 -0.601112
O47   O     O_R   0.749970 0.133140 0.560720 -0.621715
O48   O     O_R   0.749970 0.866860 0.439280 -0.624427
O49   O     O_R   0.189290 0.133150 0.000000 -0.593032
O50   O     O_R   0.189290 0.866850 0.000000 -0.588857
O51   O     O_R   0.689290 0.633150 0.500000 -0.588848
O52   O     O_R   0.689290 0.366850 0.500000 -0.592986
C1    C     C_R   0.393488 0.253376 0.137095 0.834606
C2    C     C_R   0.393468 0.746571 0.862891 0.831630
C3    C     C_R   0.389760 0.750616 0.140584 0.868478
C4    C     C_R   0.387086 0.248377 0.856837 0.819035
C5    C     C_R   0.893468 0.753428 0.637108 0.831659
C6    C     C_R   0.893487 0.246624 0.362904 0.834591
C7    C     C_R   0.887105 0.251603 0.643150 0.818790
C8    C     C_R   0.889760 0.749384 0.359416 0.868507
C9    C     C_R   0.109542 0.251459 0.860055 0.877077
C10   C     C_R   0.110203 0.749701 0.140269 0.892953
C11   C     C_R   0.106563 0.746039 0.863303 0.864081
C12   C     C_R   0.106490 0.253983 0.136604 0.861329
C13   C     C_R   0.610203 0.750298 0.359731 0.892959
C14   C     C_R   0.609540 0.248542 0.639950 0.877189
C15   C     C_R   0.606489 0.246016 0.363397 0.861328
C16   C     C_R   0.606564 0.753960 0.636700 0.864114
C17   C     C_R   0.250223 0.108970 0.007812 0.864439
C18   C     C_R   0.250223 0.890872 0.991422 0.863410
C19   C     C_R   0.750224 0.609128 0.508575 0.863455
C20   C     C_R   0.750222 0.391030 0.492186 0.864316
C21   C     C_R   0.248705 0.391296 0.999973 1.085841
C22   C     C_R   0.248751 0.608693 0.000083 1.088729
C23   C     C_R   0.748752 0.891306 0.499917 1.088750
C24   C     C_R   0.748709 0.108704 0.500027 1.085889
C25   C     C_3   0.210445 0.469866 0.070749 0.445441
C26   C     C_3   0.206575 0.530116 0.931813 0.451233
C27   C     C_3   0.210181 0.529842 0.070513 0.446892
C28   C     C_3   0.206230 0.470112 0.932176 0.442110
C29   C     C_3   0.706623 0.969884 0.568213 0.451073
C30   C     C_3   0.710384 0.030135 0.429287 0.445355
C31   C     C_3   0.706306 0.029887 0.567865 0.442170
C32   C     C_3   0.710140 0.970158 0.429511 0.446846
H1    H     H_    0.240675 0.456380 0.120006 0.175133
H2    H     H_    0.234057 0.543583 0.880891 0.174277
H3    H     H_    0.240388 0.543376 0.119613 0.165217
H4    H     H_    0.233580 0.456457 0.881458 0.172642
H5    H     H_    0.734123 0.956405 0.619119 0.174326
H6    H     H_    0.740556 0.043631 0.380000 0.175125
H7    H     H_    0.733727 0.043528 0.618550 0.172772
H8    H     H_    0.740326 0.956634 0.380394 0.165233
C33   C     C_3   0.327437 0.469713 0.997278 0.871566
C34   C     C_3   0.327485 0.530208 0.998526 0.870788
C35   C     C_3   0.827490 0.969789 0.501422 0.870782
C36   C     C_3   0.827446 0.030285 0.502646 0.871559
C37   C     C_3   0.247982 0.448999 0.000126 -0.637741
C38   C     C_3   0.248001 0.550975 0.000158 -0.641505
C39   C     C_3   0.748004 0.949025 0.499841 -0.641413
C40   C     C_3   0.747988 0.051001 0.499874 -0.637722
C41   C     C_R   0.065476 0.350951 0.785818 -0.173001
C42   C     C_R   0.091476 0.659967 0.243168 -0.138871
C43   C     C_R   0.100588 0.665520 0.743346 -0.182145
C44   C     C_R   0.099807 0.335080 0.255419 -0.184918
C45   C     C_R   0.591478 0.840030 0.256829 -0.138896
C46   C     C_R   0.565671 0.149055 0.714424 -0.172977
C47   C     C_R   0.599800 0.164914 0.244590 -0.184935
C48   C     C_R   0.600618 0.834458 0.756689 -0.182282
C49   C     C_R   0.042732 0.397285 0.751756 0.373003
C50   C     C_R   0.102903 0.628195 0.304869 0.373093
C51   C     C_R   0.117630 0.641847 0.676332 0.325823
C52   C     C_R   0.116994 0.359122 0.322116 0.307688
C53   C     C_R   0.602906 0.871801 0.195127 0.373101
C54   C     C_R   0.543057 0.102741 0.748641 0.372815
C55   C     C_R   0.616986 0.140868 0.177896 0.307696
C56   C     C_R   0.617670 0.858113 0.823712 0.325858
C57   C     C_R   0.574226 0.855983 0.128099 -0.163387
C58   C     C_R   0.481259 0.103176 0.792444 -0.165685
C59   C     C_R   0.588167 0.161607 0.113274 -0.133400
C60   C     C_R   0.588778 0.836968 0.888049 -0.145880
C61   C     C_R   0.980962 0.396835 0.707916 -0.165702
C62   C     C_R   0.074225 0.644015 0.371898 -0.163367
C63   C     C_R   0.088750 0.662988 0.611987 -0.145914
C64   C     C_R   0.088173 0.338380 0.386736 -0.133338
C65   C     C_R   0.527592 0.813445 0.124992 -0.185622
C66   C     C_R   0.444765 0.149446 0.805181 -0.172760
C67   C     C_R   0.537956 0.202102 0.116080 -0.174344
C68   C     C_R   0.538404 0.796614 0.884636 -0.182212
C69   C     C_R   0.944607 0.350532 0.695000 -0.172753
C70   C     C_R   0.027592 0.686553 0.375006 -0.185617
C71   C     C_R   0.038391 0.703354 0.615383 -0.182235
C72   C     C_R   0.037959 0.297889 0.383925 -0.174331
C73   C     C_R   0.507737 0.785856 0.189588 0.087534
C74   C     C_R   0.470697 0.197312 0.776820 0.087825
C75   C     C_R   0.514876 0.223020 0.183844 0.075298
C76   C     C_R   0.515200 0.776310 0.816570 0.086219
C77   C     C_R   0.970636 0.302661 0.723257 0.087821
C78   C     C_R   0.007736 0.714143 0.310411 0.087530
C79   C     C_R   0.015192 0.723673 0.683441 0.086217
C80   C     C_R   0.014877 0.276975 0.316158 0.075285
C81   C     C_R   0.030970 0.302373 0.771299 0.019127
C82   C     C_R   0.051651 0.707209 0.248749 0.025545
C83   C     C_R   0.054417 0.709606 0.746721 0.010401
C84   C     C_R   0.053911 0.290825 0.252651 0.012755
C85   C     C_R   0.551653 0.792790 0.251249 0.025553
C86   C     C_R   0.531048 0.197614 0.728799 0.019084
C87   C     C_R   0.553907 0.209172 0.247354 0.012767
C88   C     C_R   0.554432 0.790381 0.753297 0.010419
C89   C     C_R   0.445275 0.753123 0.197765 -0.037569
C90   C     C_R   0.433913 0.244230 0.791407 -0.025167
C91   C     C_R   0.455422 0.258034 0.189543 -0.031602
C92   C     C_R   0.455305 0.741758 0.810352 -0.031980
C93   C     C_R   0.933960 0.255716 0.708561 -0.025137
C94   C     C_R   0.945274 0.746876 0.302234 -0.037553
C95   C     C_R   0.955307 0.758237 0.689647 -0.031967
C96   C     C_R   0.955420 0.241965 0.310454 -0.031605
C97   C     C_R   0.438826 0.721792 0.261810 -0.165905
C98   C     C_R   0.448692 0.288973 0.747651 -0.150128
C99   C     C_R   0.447412 0.288086 0.254478 -0.163439
C100  C     C_R   0.446861 0.712271 0.744895 -0.163316
C101  C     C_R   0.948847 0.210933 0.752208 -0.150114
C102  C     C_R   0.938824 0.778207 0.238189 -0.165903
C103  C     C_R   0.946872 0.787735 0.755095 -0.163345
C104  C     C_R   0.947405 0.211918 0.245514 -0.163417
C105  C     C_R   0.018152 0.206849 0.783370 -0.144457
C106  C     C_R   0.003240 0.789910 0.201700 -0.138702
C107  C     C_R   0.981910 0.770109 0.819314 -0.134364
C108  C     C_R   0.982098 0.229298 0.180962 -0.135542
C109  C     C_R   0.503243 0.710088 0.298300 -0.138689
C110  C     C_R   0.517997 0.293113 0.716507 -0.144420
C111  C     C_R   0.482101 0.270708 0.319034 -0.135552
C112  C     C_R   0.481907 0.729900 0.680682 -0.134373
C113  C     C_R   0.054540 0.253562 0.801869 0.008492
C114  C     C_R   0.055287 0.749198 0.197622 -0.005360
C115  C     C_R   0.044559 0.738705 0.811893 -0.010226
C116  C     C_R   0.044340 0.261244 0.187867 -0.010550
C117  C     C_R   0.555288 0.750801 0.302377 -0.005354
C118  C     C_R   0.554516 0.246425 0.698126 0.008323
C119  C     C_R   0.544339 0.238757 0.312134 -0.010567
C120  C     C_R   0.544564 0.761294 0.688113 -0.010238
C121  C     C_R   0.373475 0.699802 0.289773 0.123058
C122  C     C_R   0.398257 0.329973 0.733576 0.115004
C123  C     C_R   0.406535 0.335103 0.257870 0.098525
C124  C     C_R   0.405262 0.665607 0.740551 0.096036
C125  C     C_R   0.898520 0.169847 0.766170 0.114956
C126  C     C_R   0.873472 0.800196 0.210225 0.123059
C127  C     C_R   0.905287 0.834406 0.759424 0.096040
C128  C     C_R   0.906520 0.164906 0.242111 0.098504
C129  C     C_R   0.378045 0.654397 0.332955 0.562246
C130  C     C_R   0.424670 0.378990 0.711989 0.567892
C131  C     C_R   0.384998 0.354305 0.326520 0.543477
C132  C     C_R   0.383825 0.647064 0.671492 0.550094
C133  C     C_R   0.925060 0.120836 0.787627 0.567796
C134  C     C_R   0.878041 0.845601 0.167045 0.562244
C135  C     C_R   0.883857 0.852964 0.828478 0.550138
C136  C     C_R   0.884984 0.145710 0.173457 0.543462
C137  C     C_R   0.999015 0.113432 0.799060 0.535234
C138  C     C_R   0.945645 0.867284 0.150882 0.579384
C139  C     C_R   0.904169 0.826742 0.892022 0.547581
C140  C     C_R   0.904795 0.171549 0.109447 0.549831
C141  C     C_R   0.445649 0.632715 0.349120 0.579339
C142  C     C_R   0.498612 0.386483 0.700579 0.535453
C143  C     C_R   0.404802 0.328470 0.390535 0.549848
C144  C     C_R   0.404150 0.673290 0.607955 0.547581
C145  C     C_R   0.046611 0.156118 0.797753 0.115702
C146  C     C_R   0.009604 0.839952 0.168418 0.132365
C147  C     C_R   0.953138 0.784913 0.888647 0.135453
C148  C     C_R   0.953411 0.213632 0.111932 0.135187
C149  C     C_R   0.509607 0.660047 0.331583 0.132357
C150  C     C_R   0.546328 0.343867 0.702033 0.115817
C151  C     C_R   0.453414 0.286383 0.388060 0.135209
C152  C     C_R   0.453133 0.715110 0.611344 0.135440
H9    H     H_    0.109875 0.354957 0.823442 0.214032
H10   H     H_    0.112586 0.646646 0.191403 0.211909
H11   H     H_    0.121071 0.647757 0.792933 0.224723
H12   H     H_    0.120136 0.352586 0.205584 0.225945
H13   H     H_    0.612588 0.853353 0.308593 0.211894
H14   H     H_    0.610077 0.145049 0.676811 0.214326
H15   H     H_    0.620128 0.147410 0.294428 0.225902
H16   H     H_    0.621104 0.852229 0.707109 0.224716
H17   H     H_    0.586483 0.877154 0.078207 0.213687
H18   H     H_    0.461221 0.067612 0.817304 0.190766
H19   H     H_    0.603130 0.145796 0.060470 0.227608
H20   H     H_    0.603752 0.852388 0.941063 0.204233
H21   H     H_    0.960854 0.432415 0.683156 0.190682
H22   H     H_    0.086483 0.622843 0.421790 0.213712
H23   H     H_    0.103719 0.647555 0.558979 0.204312
H24   H     H_    0.103138 0.354188 0.439541 0.227612
H25   H     H_    0.510758 0.802250 0.070851 0.186302
H26   H     H_    0.394728 0.146758 0.835893 0.182493
H27   H     H_    0.519246 0.217710 0.064361 0.197356
H28   H     H_    0.519457 0.780666 0.936039 0.176894
H29   H     H_    0.894592 0.353196 0.664247 0.182399
H30   H     H_    0.010758 0.697747 0.429147 0.186307
H31   H     H_    0.019455 0.719298 0.563974 0.176916
H32   H     H_    0.019247 0.282279 0.435642 0.197352
C153  C     C_R   0.385364 0.046694 0.035387 -0.335650
C154  C     C_R   0.385015 0.952749 0.960661 -0.331630
C155  C     C_R   0.885026 0.547247 0.539293 -0.331648
C156  C     C_R   0.885352 0.453304 0.464565 -0.335580
C157  C     C_R   0.450948 0.022702 0.017660 0.609559
C158  C     C_R   0.450761 0.976746 0.977626 0.598145
C159  C     C_R   0.950766 0.523251 0.522303 0.598062
C160  C     C_R   0.950941 0.477296 0.482268 0.609727
C161  C     C_R   0.318115 0.974549 0.983690 -0.005208
C162  C     C_R   0.318179 0.025066 0.012773 -0.012629
C163  C     C_R   0.818175 0.474932 0.487199 -0.012672
C164  C     C_R   0.818118 0.525448 0.516283 -0.005241
C165  C     C_R   0.251335 0.947587 0.977839 0.020411
C166  C     C_R   0.251267 0.051997 0.019251 0.025729
C167  C     C_R   0.751262 0.448001 0.480739 0.025733
C168  C     C_R   0.751339 0.552411 0.522152 0.020426
C169  C     C_R   0.185190 0.975571 0.980159 -0.144807
C170  C     C_R   0.184967 0.024084 0.015461 -0.143274
C171  C     C_R   0.684963 0.475915 0.484540 -0.143231
C172  C     C_R   0.685192 0.524429 0.519841 -0.144848
C173  C     C_R   0.119096 0.956596 0.949736 0.140709
C174  C     C_R   0.118260 0.043046 0.044508 0.122054
C175  C     C_R   0.618252 0.456954 0.455501 0.122081
C176  C     C_R   0.619102 0.543405 0.550272 0.140558
C177  C     C_R   0.053234 0.979716 0.970964 0.618511
C178  C     C_R   0.052752 0.020640 0.020806 0.572596
C179  C     C_R   0.552748 0.479361 0.479211 0.572816
C180  C     C_R   0.553237 0.520286 0.529052 0.618737
H33   H     H_    0.387858 0.081443 0.068590 0.222640
H34   H     H_    0.387029 0.917736 0.927940 0.220588
H35   H     H_    0.887050 0.582258 0.572018 0.220601
H36   H     H_    0.887834 0.418552 0.431364 0.222620
N1    N     N_R   0.305578 0.727548 0.284878 0.272544
O53   O     O_R   0.305144 0.778056 0.278517 -0.337725
O54   O     O_R   0.244069 0.703308 0.292865 -0.302198
N2    N     N_R   0.321667 0.319635 0.726652 0.282855
O55   O     O_R   0.299296 0.274273 0.704375 -0.306246
O56   O     O_R   0.274022 0.355951 0.739261 -0.237840
N3    N     N_R   0.395349 0.366885 0.193701 0.289253
O57   O     O_R   0.443170 0.367267 0.141184 -0.298849
O58   O     O_R   0.340324 0.398523 0.189830 -0.227068
N4    N     N_R   0.393298 0.633375 0.804100 0.293826
O59   O     O_R   0.441044 0.631965 0.856658 -0.292789
O60   O     O_R   0.337346 0.602547 0.807471 -0.214457
N5    N     N_R   0.821912 0.180079 0.773173 0.282911
O61   O     O_R   0.799446 0.225366 0.795648 -0.306298
O62   O     O_R   0.774347 0.143730 0.760446 -0.237645
N6    N     N_R   0.805576 0.772447 0.215118 0.272538
O63   O     O_R   0.805146 0.721941 0.221500 -0.337750
O64   O     O_R   0.744067 0.796683 0.207099 -0.302185
N7    N     N_R   0.893332 0.866629 0.695864 0.293826
O65   O     O_R   0.941077 0.868023 0.643305 -0.292806
O66   O     O_R   0.837392 0.897470 0.692486 -0.214470
N8    N     N_R   0.895321 0.133120 0.306274 0.289287
O67   O     O_R   0.943134 0.132731 0.358800 -0.298837
O68   O     O_R   0.840287 0.101489 0.310135 -0.226932
F1    F     F_    0.879183 0.080219 0.798918 -0.464357
F2    F     F_    0.817342 0.869363 0.141201 -0.488644
F3    F     F_    0.843376 0.896893 0.834669 -0.463923
F4    F     F_    0.844857 0.101555 0.168093 -0.471107
F5    F     F_    0.317346 0.630637 0.358800 -0.488648
F6    F     F_    0.378688 0.419529 0.700575 -0.464344
F7    F     F_    0.344878 0.398464 0.331875 -0.471100
F8    F     F_    0.343326 0.603145 0.665288 -0.463990
N9    N     N_R   0.123595 0.147009 0.803394 0.240580
O69   O     O_R   0.148614 0.109387 0.844131 -0.323980
O70   O     O_R   0.168451 0.172664 0.761621 -0.351329
N10   N     N_R   0.079007 0.865559 0.161969 0.259826
O71   O     O_R   0.088431 0.903558 0.115617 -0.325030
O72   O     O_R   0.131206 0.854278 0.207420 -0.343199
N11   N     N_R   0.966990 0.754354 0.953667 0.249674
O73   O     O_R   0.960378 0.774805 0.018443 -0.325691
O74   O     O_R   0.978894 0.704525 0.948690 -0.365283
N12   N     N_R   0.966952 0.243488 0.046202 0.248806
O75   O     O_R   0.961286 0.222081 0.981922 -0.284599
O76   O     O_R   0.978070 0.293466 0.049973 -0.373130
N13   N     N_R   0.579010 0.634440 0.338033 0.259823
O77   O     O_R   0.588436 0.596442 0.384386 -0.325057
O78   O     O_R   0.631210 0.645720 0.292583 -0.343206
N14   N     N_R   0.623294 0.353079 0.696455 0.240683
O79   O     O_R   0.648251 0.390716 0.655706 -0.323914
O80   O     O_R   0.668181 0.327504 0.738290 -0.351672
N15   N     N_R   0.466948 0.256532 0.453796 0.248839
O81   O     O_R   0.461284 0.277945 0.518071 -0.284791
O82   O     O_R   0.478061 0.206553 0.450034 -0.373084
N16   N     N_R   0.466998 0.745674 0.546331 0.249666
O83   O     O_R   0.460388 0.725231 0.481551 -0.325686
O84   O     O_R   0.478912 0.795501 0.551321 -0.365304
F9    F     F_    0.987897 0.038456 0.045647 -0.462979
F10   F     F_    0.988918 0.962238 0.944287 -0.452657
F11   F     F_    0.488925 0.537766 0.555736 -0.452604
F12   F     F_    0.487889 0.461545 0.454380 -0.462926
F13   F     F_    0.514693 0.044733 0.038170 -0.585167
F14   F     F_    0.514301 0.954586 0.956739 -0.594245
F15   F     F_    0.014312 0.545412 0.543169 -0.594402
F16   F     F_    0.014680 0.455266 0.461736 -0.585153
F17   F     F_    0.140209 0.450717 0.076660 -0.495864
F18   F     F_    0.136157 0.549314 0.929901 -0.490027
F19   F     F_    0.139787 0.548748 0.075886 -0.494503
F20   F     F_    0.135607 0.451261 0.931178 -0.503884
F21   F     F_    0.636197 0.950702 0.570154 -0.490152
F22   F     F_    0.640135 0.049273 0.423459 -0.495878
F23   F     F_    0.635692 0.048755 0.568957 -0.503947
F24   F     F_    0.639748 0.951241 0.424170 -0.494571
N17   N     N_R   0.119194 0.918179 0.892227 0.266540
O85   O     O_R   0.173707 0.915092 0.847057 -0.369025
O86   O     O_R   0.062441 0.889202 0.880571 -0.303812
N18   N     N_R   0.117251 0.080419 0.103359 0.265923
O87   O     O_R   0.170711 0.082473 0.149912 -0.368874
O88   O     O_R   0.060560 0.109548 0.114534 -0.308966
N19   N     N_R   0.617235 0.419581 0.396651 0.265911
O89   O     O_R   0.670689 0.417526 0.350093 -0.368876
O90   O     O_R   0.560541 0.390454 0.385482 -0.308982
N20   N     N_R   0.619207 0.581823 0.607780 0.266500
O91   O     O_R   0.673725 0.584910 0.652944 -0.369102
O92   O     O_R   0.562456 0.610801 0.619440 -0.303811
F25   F     F_    0.366474 0.450720 0.056543 -0.538404
F26   F     F_    0.363242 0.549127 0.937188 -0.531995
F27   F     F_    0.364875 0.547839 0.059677 -0.579278
F28   F     F_    0.361381 0.452084 0.934104 -0.572307
F29   F     F_    0.863279 0.950880 0.562747 -0.532008
F30   F     F_    0.866421 0.049264 0.443333 -0.538384
F31   F     F_    0.861458 0.047926 0.565776 -0.572259
F32   F     F_    0.864846 0.952145 0.440257 -0.579225
F33   F     F_    0.023779 0.064707 0.813755 -0.523224
F34   F     F_    0.948321 0.914203 0.116514 -0.477757
F35   F     F_    0.876862 0.843078 0.957107 -0.497343
F36   F     F_    0.877390 0.154570 0.044742 -0.497863
F37   F     F_    0.448325 0.585796 0.383489 -0.477793
F38   F     F_    0.523248 0.435226 0.685778 -0.523158
F39   F     F_    0.377397 0.345456 0.455237 -0.497862
F40   F     F_    0.376839 0.656969 0.542865 -0.497391
N21   N     N_R   0.083113 0.444656 0.761012 0.263607
O93   O     O_R   0.052345 0.489653 0.750094 -0.286637
O94   O     O_R   0.152962 0.442844 0.771019 -0.275438
N22   N     N_R   0.146225 0.581669 0.300314 0.262257
O95   O     O_R   0.152868 0.550847 0.356687 -0.205089
O96   O     O_R   0.180125 0.569955 0.240101 -0.309092
N23   N     N_R   0.164678 0.597086 0.673665 0.267010
O97   O     O_R   0.181392 0.575839 0.611245 -0.182392
O98   O     O_R   0.190004 0.576443 0.733669 -0.257891
N24   N     N_R   0.164272 0.403780 0.324211 0.261144
O99   O     O_R   0.181673 0.425067 0.386410 -0.177466
O100  O     O_R   0.189494 0.424094 0.263940 -0.272587
N25   N     N_R   0.646231 0.918325 0.199680 0.262252
O101  O     O_R   0.652855 0.949156 0.143316 -0.205130
O102  O     O_R   0.680161 0.930026 0.259882 -0.309138
N26   N     N_R   0.583592 0.055412 0.739586 0.263751
O103  O     O_R   0.553117 0.010400 0.751225 -0.286673
O104  O     O_R   0.653359 0.057323 0.729042 -0.275451
N27   N     N_R   0.664260 0.096207 0.175805 0.261144
O105  O     O_R   0.681665 0.074919 0.113608 -0.177482
O106  O     O_R   0.689474 0.075891 0.236079 -0.272699
N28   N     N_R   0.664740 0.902861 0.826397 0.267114
O107  O     O_R   0.681438 0.924106 0.888823 -0.182326
O108  O     O_R   0.690106 0.923493 0.766402 -0.257749

loop_
_geom_bond_atom_site_label_1
_geom_bond_atom_site_label_2
_geom_bond_distance
_ccdc_geom_bond_type
N17   O85   1.301600 A    
C124  N4    1.439549 S    
C122  C130  1.404582 A    
N13   O78   1.301727 A    
C170  C174  1.424476 A    
N3    O57   1.301664 A    
C127  C135  1.405387 A    
C148  N12   1.443204 S    
C135  F3    1.357157 S    
N7    O66   1.300766 A    
C163  C167  1.418191 A    
O26   C7    1.298856 A    
C123  N3    1.440001 S    
C94   C102  1.421726 A    
N27   O106  1.301521 A    
C78   C82   1.397688 A    
N25   O102  1.300034 A    
O30   C11   1.292988 A    
Zn3   O2    1.944668 S    
C171  C172  1.404414 A    
C78   C94   1.432209 A    
C159  F15   1.356429 S    
C125  C133  1.404577 A    
Zn12  O26   1.933507 S    
C138  C146  1.407473 A    
C176  C180  1.405464 A    
C154  C161  1.417592 A    
C66   H26   1.080680 S    
C7    C93   1.477051 S    
N12   O75   1.301382 A    
C29   C39   1.558588 S    
C71   C79   1.414880 A    
N13   O77   1.300902 A    
C43   H11   1.080089 S    
C19   C168  1.476669 S    
C140  F36   1.357484 S    
C29   H5    1.112331 S    
C67   C75   1.415315 A    
C124  C132  1.405383 A    
C11   C115  1.490257 S    
C58   H18   1.083183 S    
C54   C58   1.390882 A    
C32   C39   1.556791 S    
C143  F39   1.357483 S    
O11   C7    1.262690 A    
C153  H33   1.081286 S    
O34   C15   1.292084 A    
C100  C112  1.411132 A    
C122  N2    1.440915 S    
C21   C37   1.481814 S    
C72   H32   1.080633 S    
C105  C145  1.427713 A    
N11   O73   1.300879 A    
Zn1   O44   1.937344 S    
C25   H1    1.111708 S    
C31   C40   1.555144 S    
C32   F24   1.387931 S    
Zn2   O43   1.937344 S    
C97   C121  1.423348 A    
C34   F27   1.388549 S    
C133  C137  1.390852 A    
Zn5   O48   1.937344 S    
C64   H24   1.082618 S    
Zn6   O47   1.937344 S    
C140  C148  1.404223 A    
Zn7   O46   1.934268 S    
O16   C12   1.281841 A    
C47   C87   1.417346 A    
N7    O65   1.301659 A    
C70   C78   1.421198 A    
Zn16  O4    1.953381 S    
C71   H31   1.080263 S    
Zn12  O4    1.953700 S    
Zn1   O13   1.941088 S    
N8    O67   1.301666 A    
C8    C94   1.462507 S    
C24   C40   1.481822 S    
C102  C106  1.392780 A    
C53   C57   1.394169 A    
C46   H14   1.072872 S    
C28   H4    1.111563 S    
N28   O108  1.301500 A    
C42   C82   1.421528 A    
C53   N25   1.439261 S    
C54   N26   1.436328 S    
N6    O63   1.301795 A    
C4    C90   1.477098 S    
C30   H6    1.111719 S    
C33   F25   1.386003 S    
Zn10  O22   1.933507 S    
C142  F38   1.357652 S    
N1    O54   1.300508 A    
O25   C8    1.270894 A    
Zn13  O29   1.935581 S    
Zn6   O4    1.938546 S    
Zn10  O2    1.953700 S    
C75   C91   1.420819 A    
O29   C12   1.292092 A    
Zn15  O33   1.935581 S    
C15   C119  1.490399 S    
N24   O99   1.301621 A    
C13   C117  1.455504 S    
N15   O81   1.301383 A    
C48   H16   1.080084 S    
C26   H2    1.112335 S    
C43   C83   1.417343 A    
C155  H35   1.081649 S    
C44   C84   1.417347 A    
O37   C17   1.283484 A    
C106  C114  1.420479 A    
O48   C23   1.274314 A    
C142  C150  1.403680 A    
C104  C108  1.411316 A    
N2    O56   1.301531 A    
C35   F32   1.388551 S    
N21   O94   1.300100 A    
C35   C36   1.553691 S    
Zn16  O35   1.933767 S    
C44   H12   1.080143 S    
C22   C38   1.482211 S    
C139  F35   1.357605 S    
C129  C141  1.395003 A    
Zn7   O10   1.939792 S    
O33   C16   1.293004 A    
C69   H29   1.080681 S    
N3    O58   1.300598 A    
C130  F6    1.357461 S    
C82   C114  1.425141 A    
C161  C162  1.403241 A    
O40   C20   1.283494 A    
C74   C90   1.408353 A    
C129  F5    1.357362 S    
C48   C56   1.403131 A    
C158  F14   1.356429 S    
C157  C158  1.390044 A    
C173  N17   1.442801 S    
C147  N11   1.443175 S    
C30   C40   1.559119 S    
C168  C172  1.415022 A    
C67   H27   1.080634 S    
N22   O95   1.301691 A    
Zn5   O17   1.941088 S    
C36   F31   1.388708 S    
C29   F21   1.387812 S    
C63   H23   1.082356 S    
C134  F2    1.357359 S    
C59   C67   1.392591 A    
Zn15  O51   1.936916 S    
C25   C27   1.540125 S    
C177  C178  1.392206 A    
N5    O62   1.301527 A    
C95   C103  1.425005 A    
C137  C145  1.403656 A    
C93   C101  1.423377 A    
N18   O87   1.301624 A    
C27   H3    1.111442 S    
C32   H8    1.111437 S    
Zn8   O3    1.944666 S    
C79   C83   1.408282 A    
C80   C84   1.408489 A    
C73   C89   1.432211 A    
N14   O79   1.301390 A    
O38   C18   1.283122 A    
C80   C96   1.420823 A    
O5    C1    1.289150 A    
N11   O74   1.301659 A    
N10   O72   1.301727 A    
O32   C9    1.293697 A    
C138  F34   1.357355 S    
C56   N28   1.440361 S    
C56   C60   1.397264 A    
C109  C149  1.424333 A    
C132  F8    1.357160 S    
C85   C117  1.425140 A    
Zn11  O28   1.935326 S    
Zn12  O40   1.936873 S    
C99   C123  1.424324 A    
C154  H34   1.081652 S    
C103  C127  1.424674 A    
N16   O84   1.301659 A    
C101  C125  1.426658 A    
C156  C163  1.418169 A    
C36   C40   1.557793 S    
O8    C4    1.262732 A    
C91   C99   1.424006 A    
N23   O98   1.301499 A    
C177  F10   1.357549 S    
C157  F13   1.356390 S    
C17   C166  1.477250 S    
C110  C118  1.415941 A    
C149  N13   1.442020 S    
N26   O103  1.301736 A    
C30   F22   1.387885 S    
O50   C18   1.289833 A    
C88   C120  1.418460 A    
Zn1   O1    1.938547 S    
C46   C86   1.425650 A    
Zn13  O1    1.953393 S    
Zn2   O14   1.941090 S    
C9    C113  1.468419 S    
C68   H28   1.080264 S    
C111  C151  1.425298 A    
C52   C64   1.397160 A    
C61   H21   1.083190 S    
C68   C76   1.414879 A    
N25   O101  1.301689 A    
C126  N6    1.441804 S    
C62   C70   1.390834 A    
C101  C105  1.401103 A    
C156  C160  1.394408 A    
C41   H9    1.072931 S    
O9    C5    1.288082 A    
O39   C19   1.283117 A    
O36   C13   1.280677 A    
C99   C111  1.411312 A    
C153  C157  1.394413 A    
O13   C9    1.264961 A    
O7    C3    1.286682 A    
C107  C147  1.424644 A    
C3    C89   1.462506 S    
Zn2   O7    1.941044 S    
Zn3   O6    1.939792 S    
N12   O76   1.301658 A    
O18   C14   1.264977 A    
O31   C10   1.280675 A    
C41   C49   1.404468 A    
O6    C2    1.288065 A    
O51   C19   1.289840 A    
C141  C149  1.407471 A    
C43   C51   1.403130 A    
C12   C116  1.490400 S    
C121  C129  1.407632 A    
C163  C164  1.403238 A    
Zn14  O30   1.935579 S    
Zn15  O3    1.953393 S    
Zn11  O3    1.953689 S    
O41   C21   1.272288 A    
C61   C69   1.385457 A    
Zn16  O34   1.935579 S    
N4    O59   1.301658 A    
C27   C38   1.556794 S    
C125  N5    1.440884 S    
C144  C152  1.404037 A    
C92   C100  1.425013 A    
Zn8   O20   1.939834 S    
C178  F9    1.357506 S    
N9    O70   1.301640 A    
C165  C169  1.415011 A    
N20   O91   1.301599 A    
C25   F17   1.387888 S    
C105  C113  1.415863 A    
C27   F19   1.387931 S    
N8    O68   1.300601 A    
N19   O89   1.301623 A    
C108  C116  1.415447 A    
C50   N22   1.439267 S    
C81   C113  1.437379 A    
C96   C104  1.424021 A    
N17   O86   1.300923 A    
C169  C170  1.404412 A    
C36   F30   1.385988 S    
Zn8   O9    1.939783 S    
C100  C124  1.424681 A    
C76   C92   1.420408 A    
N6    O64   1.300507 A    
C74   C86   1.415416 A    
C146  N10   1.442018 S    
C106  C146  1.424329 A    
C90   C98   1.423292 A    
C83   C115  1.418443 A    
C136  F4    1.357219 S    
C84   C116  1.418427 A    
C123  C131  1.405093 A    
C167  C171  1.417652 A    
O19   C15   1.281846 A    
C49   C61   1.390852 A    
Zn9   O24   1.935326 S    
C173  C177  1.405460 A    
Zn6   O18   1.941090 S    
C107  C115  1.414420 A    
Zn10  O23   1.935331 S    
C28   F20   1.387944 S    
C175  C179  1.405454 A    
C1    C91   1.494083 S    
C161  C165  1.415568 A    
N1    O53   1.301791 A    
C2    C92   1.494130 S    
C58   C66   1.385385 A    
C87   C119  1.418433 A    
C172  C176  1.424500 A    
C97   C109  1.392780 A    
C174  N18   1.442843 S    
Zn15  O36   1.933760 S    
O15   C11   1.280788 A    
O42   C22   1.273300 A    
N24   O100  1.301524 A    
C176  N20   1.442805 S    
Zn4   O1    1.944666 S    
C150  N14   1.440597 S    
C45   H13   1.078339 S    
C179  F12   1.357508 S    
C28   C37   1.555157 S    
C73   C85   1.397684 A    
O12   C8    1.286676 A    
Zn11  O39   1.936879 S    
N15   O82   1.301656 A    
N21   O93   1.301680 A    
C26   F18   1.387812 S    
C52   N24   1.440470 S    
C47   C55   1.402862 A    
C131  C143  1.390292 A    
C41   C81   1.425593 A    
C45   C53   1.404220 A    
C104  C128  1.424336 A    
C44   C52   1.402857 A    
C20   C167  1.477245 S    
C55   N27   1.440468 S    
Zn5   O3    1.938547 S    
C145  N9    1.440580 S    
C31   H7    1.111552 S    
C34   F26   1.385340 S    
C57   C65   1.390832 A    
C169  C173  1.424497 A    
C66   C74   1.415106 A    
C179  C180  1.392201 A    
C60   C68   1.392411 A    
C33   C34   1.553681 S    
N10   O71   1.300903 A    
C23   C39   1.482200 S    
C77   C81   1.415405 A    
O28   C5    1.289025 A    
C180  F11   1.357548 S    
C14   C118  1.468577 S    
C57   H17   1.082734 S    
Zn3   O42   1.934268 S    
C155  C164  1.417596 A    
N22   O96   1.300032 A    
Zn7   O4    1.944668 S    
O21   C4    1.298818 A    
C77   C93   1.408390 A    
N28   O107  1.301651 A    
C72   C80   1.415314 A    
C18   C165  1.476668 S    
C143  C151  1.404229 A    
C48   C88   1.417348 A    
C153  C162  1.418174 A    
C132  C144  1.390329 A    
C135  C139  1.390332 A    
Zn2   O2    1.938546 S    
N5    O61   1.301929 A    
Zn14  O2    1.953381 S    
N27   O105  1.301622 A    
C10   C114  1.455512 S    
C133  F1    1.357459 S    
C64   C72   1.392597 A    
N18   O88   1.300829 A    
C26   C38   1.558598 S    
C65   C73   1.421202 A    
N23   O97   1.301650 A    
Zn13  O49   1.936916 S    
O44   C21   1.275091 A    
C130  C142  1.390869 A    
C171  C175  1.424472 A    
C63   C71   1.392413 A    
C131  F7    1.357218 S    
C70   H30   1.075628 S    
C16   C120  1.490258 S    
Zn12  O27   1.935331 S    
C128  N8    1.440003 S    
C154  C158  1.393885 A    
C89   C97   1.421728 A    
C49   N21   1.436197 S    
C136  C140  1.390285 A    
O46   C24   1.272289 A    
O47   C24   1.275092 A    
Zn16  O52   1.936921 S    
C5    C95   1.494132 S    
C6    C96   1.494088 S    
C62   H22   1.082732 S    
C33   C37   1.557785 S    
Zn8   O45   1.934268 S    
C35   F29   1.385347 S    
C69   C77   1.415136 A    
O27   C6    1.287924 A    
C45   C85   1.421528 A    
C141  F37   1.357356 S    
N19   O90   1.300828 A    
C128  C136  1.405095 A    
C51   C63   1.397266 A    
C126  C134  1.407642 A    
C29   C31   1.540820 S    
C103  C107  1.411128 A    
C155  C159  1.393885 A    
C98   C122  1.426653 A    
O24   C1    1.287912 A    
C156  H36   1.081291 S    
C127  N7    1.439552 S    
N26   O104  1.300095 A    
C166  C170  1.417658 A    
C25   C37   1.559129 S    
C134  C138  1.395006 A    
O43   C22   1.274316 A    
Zn4   O41   1.934268 S    
C26   C28   1.540845 S    
C137  F33   1.357651 S    
Zn5   O12   1.941047 S    
C55   C59   1.397160 A    
C65   H25   1.075626 S    
Zn6   O11   1.941044 S    
C110  C150  1.427714 A    
C164  C168  1.415585 A    
C86   C118  1.437534 A    
Zn9   O21   1.933517 S    
Zn14  O50   1.936921 S    
Zn4   O16   1.939834 S    
O35   C14   1.293761 A    
C76   C88   1.408281 A    
Zn1   O8    1.941047 S    
C144  F40   1.357605 S    
Zn9   O1    1.953689 S    
C51   N23   1.440361 S    
C75   C87   1.408491 A    
C102  C126  1.423350 A    
O52   C20   1.290166 A    
C47   H15   1.080144 S    
C112  C152  1.424650 A    
C159  C160  1.390047 A    
C108  C148  1.425295 A    
C34   C38   1.558240 S    
O22   C3    1.270897 A    
C50   C62   1.394172 A    
C33   F28   1.388707 S    
C111  C119  1.415452 A    
C174  C178  1.405455 A    
Zn7   O19   1.939825 S    
C31   F23   1.387948 S    
O20   C16   1.280775 A    
C109  C117  1.420478 A    
C139  C147  1.404037 A    
C162  C166  1.418213 A    
Zn13  O32   1.933760 S    
C121  N1    1.441792 S    
O49   C17   1.290179 A    
Zn14  O31   1.933767 S    
C30   C32   1.540140 S    
N2    O55   1.301930 A    
C60   H20   1.082355 S    
C98   C110  1.401093 A    
Zn3   O15   1.939825 S    
N4    O60   1.300768 A    
Zn4   O5    1.939783 S    
C42   H10   1.078338 S    
C152  N16   1.443175 S    
O10   C6    1.289145 A    
O23   C2    1.289044 A    
C59   H19   1.082618 S    
Zn11  O25   1.933517 S    
N9    O69   1.301383 A    
Zn10  O38   1.936873 S    
N20   O92   1.300923 A    
O14   C10   1.272722 A    
C79   C95   1.420422 A    
N14   O80   1.301637 A    
Zn9   O37   1.936879 S    
C112  C120  1.414420 A    
N16   O83   1.300880 A    
C35   C39   1.558240 S    
C42   C50   1.404225 A    
O17   C13   1.272726 A    
C46   C54   1.404582 A    
O45   C23   1.273297 A    
C151  N15   1.443203 S    
C160  F16   1.356391 S    
C175  N19   1.442840 S    
