data_mof_unit_36990.cif
_audit_creation_date              2012-12-10T17:32:19-0500
_audit_creation_method            fapswitch 2.2
_symmetry_space_group_name_H-M    P1
_symmetry_Int_Tables_number       1
_space_group_crystal_system       triclinic
_cell_length_a                    12.355829
_cell_length_b                    13.197614
_cell_length_c                    15.051693
_cell_angle_alpha                 75.573165
_cell_angle_beta                  101.237354
_cell_angle_gamma                 116.873509
_cell_volume                      2110.70581868

loop_
_atom_site_label
_atom_site_type_symbol
_atom_type_description
_atom_site_fract_x
_atom_site_fract_y
_atom_site_fract_z
_atom_type_partial_charge
C1    C     C_R   0.854650 0.285935 0.515084 0.938817
C2    C     C_R   0.978839 0.583015 0.070500 0.095159
C3    C     C_R   0.106173 0.369222 0.091722 0.205427
C4    C     C_R   0.109491 0.371794 0.998427 0.364098
C5    C     C_R   0.056658 0.435000 0.929012 -0.048229
C6    C     C_R   0.011851 0.504353 0.953702 0.049059
C7    C     C_R   0.966837 0.574489 0.884786 0.143788
C8    C     C_R   0.928995 0.647969 0.908959 -0.183319
C9    C     C_R   0.937046 0.653869 0.000816 -0.131638
C10   C     C_R   0.050002 0.433134 0.835366 -0.166420
C11   C     C_R   0.002993 0.500996 0.767760 -0.045656
C12   C     C_R   0.000965 0.500825 0.670919 0.811799
C13   C     C_R   0.961448 0.571277 0.792410 -0.206868
C14   C     C_R   0.297901 0.009032 0.350587 -0.075298
C15   C     C_R   0.229789 0.837019 0.467325 -0.163792
C16   C     C_R   0.793715 0.092688 0.616206 0.093124
C17   C     C_R   0.717896 0.975958 0.634304 -0.166002
C18   C     C_R   0.609360 0.929700 0.580041 0.270594
C19   C     C_R   0.569068 0.003911 0.510853 -0.025232
C20   C     C_R   0.658562 0.115934 0.478090 -0.073286
C21   C     C_R   0.445763 0.971254 0.472029 -0.018731
C22   C     C_R   0.419034 0.040915 0.390183 -0.016802
C23   C     C_R   0.145367 0.714067 0.487573 0.796338
C24   C     C_R   0.512267 0.142485 0.349403 0.311130
C25   C     C_R   0.633414 0.177024 0.390823 0.320470
C26   C     C_R   0.346444 0.877693 0.516285 0.420324
C27   C     C_R   0.205080 0.906489 0.387440 -0.225760
C28   C     C_R   0.771357 0.162155 0.533502 -0.093403
C29   C     C_R   0.292708 0.274622 0.584136 0.339608
C30   C     C_R   0.769743 0.662343 0.387126 0.611567
C31   C     C_R   0.671300 0.691014 0.353168 -0.334902
C32   C     C_R   0.556819 0.621703 0.382938 0.143675
C33   C     C_R   0.540647 0.524975 0.454134 -0.045542
C34   C     C_R   0.001185 0.501233 0.328722 0.908976
C35   C     C_R   0.640182 0.490866 0.482340 0.122104
C36   C     C_R   0.428831 0.458358 0.497540 -0.024026
C37   C     C_R   0.401193 0.342445 0.540079 0.009436
C38   C     C_R   0.488428 0.300704 0.547293 -0.253954
C39   C     C_R   0.609881 0.378548 0.539062 0.194449
C40   C     C_R   0.346036 0.503177 0.504640 0.080799
C41   C     C_R   0.221219 0.327125 0.593450 0.095962
C42   C     C_R   0.990959 0.590958 0.162993 0.080967
C43   C     C_R   0.004511 0.502265 0.231806 -0.161070
C44   C     C_R   0.026089 0.416359 0.208081 0.150451
C45   C     C_R   0.048380 0.428321 0.116641 -0.087626
C46   C     C_R   0.012323 0.504509 0.047043 -0.030580
Cu1   Cu    Cu3+1 0.098270 0.475420 0.521130 1.008433
Cu2   Cu    Cu3+1 0.901730 0.524580 0.478870 1.043668
H1    H     H_    0.274867 0.060497 0.288391 0.232277
H2    H     H_    0.743349 0.920411 0.691872 0.186729
H3    H     H_    0.138568 0.275269 0.626015 0.179771
H4    H     H_    0.469491 0.213000 0.582376 0.186175
H5    H     H_    0.360684 0.590222 0.473398 0.183522
H6    H     H_    0.682934 0.766090 0.299453 0.183299
H7    H     H_    0.079147 0.377845 0.813839 0.183866
H8    H     H_    0.927049 0.625053 0.739521 0.161073
H9    H     H_    0.894550 0.702115 0.856667 0.162620
H10   H     H_    0.906446 0.711767 0.016470 0.187262
H11   H     H_    0.114946 0.879477 0.351375 0.223900
N1    N     N_R   0.246280 0.438190 0.553160 -0.235264
N2    N     N_R   0.754320 0.561190 0.447410 -0.211570
O1    O     O_R   0.972510 0.318130 0.526570 -0.584749
O2    O     O_R   0.806530 0.359650 0.490890 -0.552296
O3    O     O_R   0.082980 0.479210 0.647590 -0.581932
O4    O     O_R   0.917000 0.520730 0.611900 -0.571427
O5    O     O_R   0.193470 0.640350 0.509110 -0.566920
O6    O     O_R   0.027490 0.681870 0.473430 -0.519019
O7    O     O_R   0.083000 0.479270 0.388100 -0.560519
O8    O     O_R   0.917020 0.520790 0.352410 -0.519272
I1    I     I_    0.014527 0.748097 0.195504 -0.316459
O9    O     O_3   0.482137 0.208794 0.270734 -0.703168
H12   H     H_    0.540446 0.290887 0.269317 0.347412
O10   O     O_3   0.361856 0.835717 0.609406 -0.696490
H13   H     H_    0.281341 0.783967 0.632818 0.323524
I2    I     I_    0.929167 0.154916 0.724561 -0.313237
I3    I     I_    0.539643 0.748004 0.592702 -0.338635
O11   O     O_3   0.729185 0.264643 0.344349 -0.727097
H14   H     H_    0.705985 0.270359 0.277082 0.345230
O12   O     O_3   0.254282 0.158348 0.620338 -0.700669
H15   H     H_    0.275428 0.122845 0.579578 0.331421
I4    I     I_    0.982878 0.254260 0.302485 -0.258540
O13   O     O_3   0.881929 0.734037 0.356188 -0.689024
H16   H     H_    0.880514 0.806891 0.318640 0.315363
I5    I     I_    0.413587 0.654473 0.294603 -0.308901
I6    I     I_    0.696450 0.329881 0.668621 -0.301113
I7    I     I_    0.228844 0.310262 0.186163 -0.179661
O14   O     O_3   0.168350 0.314218 0.977860 -0.663491
H17   H     H_    0.213534 0.361129 0.923411 0.333922

loop_
_geom_bond_atom_site_label_1
_geom_bond_atom_site_label_2
_ccdc_geom_bond_type
C16   C28   A    
C21   C26   A    
C40   N1    A    
C16   I2    S    
O10   H13   S    
C19   C20   A    
Cu2   O8    S    
O14   H17   S    
C1    O1    A    
C33   C36   A    
Cu1   O1    S    
C7    C8    A    
C4    O14   S    
O11   H14   S    
C2    C46   A    
C25   O11   S    
C23   O5    A    
C36   C37   A    
C19   C21   A    
C18   C19   A    
C30   C31   A    
C12   O3    A    
C14   H1    S    
C38   H4    S    
C20   C25   A    
C42   I1    S    
C26   O10   S    
C9    H10   S    
C23   O6    A    
Cu1   N1    S    
C31   C32   A    
C8    C9    A    
C1    C28   S    
C14   C27   A    
Cu1   O5    S    
C13   H8    S    
C15   C23   S    
Cu2   O6    S    
C21   C22   A    
C3    I7    S    
C1    O2    A    
C38   C39   A    
C32   I5    S    
C36   C40   A    
C24   C25   A    
C44   I4    S    
C34   O7    A    
Cu1   O3    S    
C16   C17   A    
C15   C26   A    
C20   C28   A    
C45   C46   A    
C3    C45   A    
C30   O13   S    
C35   C39   A    
C43   C44   A    
C37   C38   A    
C8    H9    S    
C15   C27   A    
Cu1   Cu2   S    
C29   O12   S    
C17   C18   A    
C35   N2    A    
C10   H7    S    
C34   O8    A    
O13   H16   S    
Cu2   O4    S    
C22   C24   A    
C42   C43   A    
C39   I6    S    
C3    C4    A    
Cu1   O7    S    
C44   C45   A    
C18   I3    S    
C6    C46   A    
C29   C41   A    
C34   C43   S    
C41   N1    A    
C4    C5    A    
Cu2   O2    S    
C17   H2    S    
C11   C12   S    
C6    C7    A    
C12   O4    A    
C32   C33   A    
C14   C22   A    
C5    C10   A    
C27   H11   S    
C11   C13   A    
Cu2   N2    S    
C5    C6    A    
C2    C42   A    
C33   C35   A    
C31   H6    S    
C10   C11   A    
O12   H15   S    
C7    C13   A    
O9    H12   S    
C40   H5    S    
C30   N2    A    
C29   C37   A    
C2    C9    A    
C41   H3    S    
C24   O9    S    
