data_mof_unit_58298.cif
_audit_creation_date              2012-12-11T17:47:35-0500
_audit_creation_method            fapswitch 2.2
_symmetry_space_group_name_H-M    P1
_symmetry_Int_Tables_number       1
_space_group_crystal_system       triclinic
_cell_length_a                    14.84393
_cell_length_b                    14.898374
_cell_length_c                    15.133036
_cell_angle_alpha                 110.427896
_cell_angle_beta                  109.34232
_cell_angle_gamma                 108.709393
_cell_volume                      2573.72953774

loop_
_atom_site_label
_atom_site_type_symbol
_atom_type_description
_atom_site_fract_x
_atom_site_fract_y
_atom_site_fract_z
_atom_type_partial_charge
C1    C     C_R   0.908669 0.194597 0.993251 -0.146483
C2    C     C_R   0.023465 0.748689 0.935940 -0.121414
C3    C     C_R   0.294408 0.872615 0.295740 0.067135
C4    C     C_R   0.674571 0.210710 0.671884 0.052130
C5    C     C_R   0.326779 0.500058 0.048599 0.062356
C6    C     C_R   0.700250 0.496905 0.070552 0.053678
C7    C     C_R   0.040105 0.497496 0.321537 0.045332
C8    C     C_R   0.055871 0.499697 0.695778 0.062277
C9    C     C_R   0.937723 0.860036 0.837733 -0.236911
C10   C     C_R   0.832093 0.959524 0.916796 -0.229856
C11   C     C_R   0.069783 0.055764 0.685966 -0.120244
C12   C     C_R   0.748259 0.893566 0.139568 -0.131911
C13   C     C_R   0.994249 0.999786 0.709496 -0.186985
C14   C     C_R   0.815163 0.908403 0.093599 -0.199598
C15   C     C_R   0.678502 0.308556 0.195108 -0.115633
C16   C     C_R   0.375022 0.762695 0.909971 -0.116340
C17   C     C_R   0.784107 0.377676 0.285826 -0.112207
C18   C     C_R   0.305481 0.668830 0.806139 -0.165775
C19   C     C_R   0.853751 0.334911 0.313612 0.113713
C20   C     C_R   0.249151 0.677629 0.717143 0.116111
C21   C     C_R   0.816091 0.222147 0.249798 -0.197481
C22   C     C_R   0.273243 0.783214 0.732288 -0.158288
C23   C     C_R   0.294435 0.806385 0.204714 -0.133503
C24   C     C_R   0.683866 0.240391 0.774467 -0.129463
C25   C     C_R   0.710533 0.153397 0.158898 -0.110055
C26   C     C_R   0.348288 0.877244 0.835163 -0.114983
C27   C     C_R   0.641802 0.196616 0.131572 -0.117022
C28   C     C_R   0.397858 0.866828 0.924331 -0.092905
C29   C     C_R   0.978061 0.408779 0.503784 -0.245302
C30   C     C_R   0.148409 0.571791 0.515675 -0.250289
C31   C     C_R   0.068795 0.494714 0.604399 0.069637
C32   C     C_R   0.053112 0.490265 0.416426 0.073231
C33   C     C_R   0.156330 0.578164 0.612068 0.026659
C34   C     C_R   0.965814 0.408707 0.410283 0.012308
C35   C     C_R   0.031222 0.005454 0.810331 0.116590
C36   C     C_R   0.772531 0.839268 0.981938 0.119444
C37   C     C_R   0.219714 0.109957 0.856716 -0.144213
C38   C     C_R   0.595238 0.744140 0.962486 -0.133571
C39   C     C_R   0.078489 0.977780 0.376112 -0.124051
C40   C     C_R   0.757333 0.966807 0.473267 -0.127704
C41   C     C_R   0.183684 0.024617 0.389705 -0.142657
C42   C     C_R   0.677548 0.992088 0.484571 -0.127773
C43   C     C_R   0.271256 0.030555 0.469982 0.123289
C44   C     C_R   0.662133 0.071399 0.461773 0.107797
C45   C     C_R   0.224813 0.407847 0.974954 -0.164819
C46   C     C_R   0.790077 0.589711 0.098972 -0.161396
C47   C     C_R   0.253467 0.994783 0.540272 -0.197129
C48   C     C_R   0.725958 0.123469 0.425483 -0.185410
C49   C     C_R   0.147448 0.944495 0.523673 -0.125863
C50   C     C_R   0.809337 0.101674 0.419678 -0.131648
C51   C     C_R   0.059957 0.935290 0.441254 -0.123201
C52   C     C_R   0.824445 0.022957 0.442689 -0.111215
C53   C     C_R   0.474486 0.135135 0.562504 -0.240003
C54   C     C_R   0.474041 0.026607 0.371437 -0.225870
C55   C     C_R   0.573651 0.147114 0.566021 0.068537
C56   C     C_R   0.376526 0.990101 0.374323 0.049417
C57   C     C_R   0.572639 0.091886 0.467677 0.017364
C58   C     C_R   0.374574 0.054194 0.467419 0.028763
C59   C     C_R   0.182461 0.109918 0.758975 -0.119246
C60   C     C_R   0.637942 0.812394 0.073891 -0.089118
C61   C     C_R   0.833262 0.872209 0.929686 0.025846
C62   C     C_R   0.952352 0.958356 0.841757 0.022768
C63   C     C_R   0.144371 0.058780 0.883000 -0.145245
C64   C     C_R   0.662493 0.756448 0.916755 -0.145423
C65   C     C_R   0.896616 0.828241 0.899374 0.058003
C66   C     C_R   0.905115 0.014080 0.890481 0.057406
C67   C     C_R   0.058019 0.591508 0.314466 -0.142460
C68   C     C_R   0.002637 0.408472 0.700430 -0.162389
C69   C     C_3   0.492753 0.390126 0.017905 -0.259353
C70   C     C_3   0.543667 0.601887 0.137393 -0.245560
C71   C     C_3   0.447445 0.454233 0.975656 0.269481
C72   C     C_3   0.590337 0.537778 0.179804 0.262365
C73   C     C_3   0.429002 0.498483 0.071921 0.073977
C74   C     C_3   0.606895 0.493638 0.082836 0.053363
C75   C     C_3   0.475095 0.434876 0.117004 -0.215536
C76   C     C_3   0.559680 0.556158 0.038505 -0.198197
C77   C     C_R   0.316466 0.592469 0.064647 -0.123417
C78   C     C_R   0.700042 0.406920 0.004990 -0.108938
C79   C     C_R   0.976090 0.407199 0.218541 -0.103954
C80   C     C_R   0.085189 0.591550 0.787801 -0.140240
C81   C     C_R   0.206189 0.805225 0.297750 -0.143423
C82   C     C_R   0.779490 0.248828 0.686903 -0.120658
C83   C     C_R   0.000749 0.197790 0.903823 -0.143263
C84   C     C_R   0.928646 0.745881 0.024197 -0.141477
C85   C     C_R   0.940052 0.131546 0.930149 0.067529
C86   C     C_R   0.942957 0.772067 0.948113 0.058883
H1    H     H_    0.849515 0.166457 0.017441 0.097547
H2    H     H_    0.059056 0.762135 0.887414 0.093083
H3    H     H_    0.040996 0.057800 0.611537 0.125631
H4    H     H_    0.781234 0.946745 0.225310 0.121570
H5    H     H_    0.306727 0.150925 0.912874 0.106811
H6    H     H_    0.510756 0.678915 0.911744 0.129638
H7    H     H_    0.560239 0.143540 0.061015 0.094006
H8    H     H_    0.452877 0.939174 0.004737 0.098168
H9    H     H_    0.625115 0.341738 0.174012 0.124178
H10   H     H_    0.409916 0.754377 0.979648 0.101539
H11   H     H_    0.811798 0.464375 0.334234 0.117180
H12   H     H_    0.288810 0.588789 0.796851 0.128506
H13   H     H_    0.869799 0.188530 0.268199 0.108730
H14   H     H_    0.230708 0.792745 0.665566 0.106735
H15   H     H_    0.682350 0.066844 0.109210 0.125390
H16   H     H_    0.365186 0.957912 0.846358 0.102788
H17   H     H_    0.908624 0.348660 0.498619 0.131801
H18   H     H_    0.213667 0.634200 0.518221 0.131029
H19   H     H_    0.907340 0.958347 0.653122 0.117092
H20   H     H_    0.899025 0.975720 0.143848 0.113772
H21   H     H_    0.439559 0.386932 0.150432 0.128641
H22   H     H_    0.598085 0.598675 0.003628 0.148996
H23   H     H_    0.340691 0.832325 0.167888 0.085196
H24   H     H_    0.618465 0.224534 0.793507 0.090845
H25   H     H_    0.173870 0.062102 0.960441 0.113368
H26   H     H_    0.627693 0.705032 0.829949 0.118186
H27   H     H_    0.977754 0.894717 0.427678 0.098092
H28   H     H_    0.887257 0.004633 0.435345 0.095536
H29   H     H_    0.010641 0.970735 0.312548 0.105538
H30   H     H_    0.766600 0.903277 0.487535 0.105429
H31   H     H_    0.195808 0.050958 0.334317 0.111601
H32   H     H_    0.626349 0.948577 0.509064 0.113173
H33   H     H_    0.319416 0.996979 0.601391 0.114622
H34   H     H_    0.713359 0.183003 0.405282 0.129437
H35   H     H_    0.132728 0.910392 0.573216 0.128480
H36   H     H_    0.862147 0.145039 0.396859 0.111901
H37   H     H_    0.473976 0.181682 0.635419 0.126119
H38   H     H_    0.476857 0.985587 0.298640 0.123584
H39   H     H_    0.973939 0.818877 0.799711 0.127272
H40   H     H_    0.783299 0.992124 0.940777 0.130230
H41   H     H_    0.473361 0.304443 0.968065 0.114816
H42   H     H_    0.564502 0.687840 0.188573 0.126357
H43   H     H_    0.205610 0.322872 0.941863 0.116831
H44   H     H_    0.817922 0.673988 0.156525 0.102282
H45   H     H_    0.102488 0.676071 0.380200 0.102866
H46   H     H_    0.980375 0.324531 0.647933 0.109804
H47   H     H_    0.380832 0.677619 0.114064 0.091080
H48   H     H_    0.646571 0.321782 0.976394 0.087712
H49   H     H_    0.949679 0.322147 0.194823 0.110982
H50   H     H_    0.133762 0.676676 0.813875 0.118035
H51   H     H_    0.173682 0.827063 0.350161 0.133224
H52   H     H_    0.805379 0.249782 0.629066 0.120737
H53   H     H_    0.023125 0.175520 0.842712 0.129124
H54   H     H_    0.873059 0.751468 0.053825 0.122074
H55   H     H_    0.240798 0.151237 0.739464 0.127737
H56   H     H_    0.585912 0.802201 0.109516 0.096981
N1    N     N_R   0.947560 0.293820 0.002910 -0.040589
N2    N     N_R   0.052440 0.706180 0.997090 -0.041863
N3    N     N_R   0.208960 0.706170 0.152110 -0.039323
N4    N     N_R   0.791040 0.293830 0.847890 -0.040687
N5    N     N_R   0.154330 0.443160 0.946140 -0.038431
N6    N     N_R   0.845670 0.556840 0.053860 -0.038535
N7    N     N_R   0.002190 0.556820 0.208880 -0.040129
N8    N     N_R   0.997810 0.443180 0.791120 -0.038808
N9    N     N_R   0.210550 0.556810 0.002910 -0.040401
N10   N     N_R   0.789450 0.443190 0.997090 -0.040121
N11   N     N_R   0.945970 0.443180 0.152110 -0.041369
N12   N     N_R   0.054030 0.556820 0.847890 -0.039186
N13   N     N_R   0.151530 0.706170 0.208880 -0.041467
N14   N     N_R   0.848470 0.293830 0.791120 -0.043278
N15   N     N_R   0.004980 0.293810 0.946140 -0.040823
N16   N     N_R   0.995020 0.706190 0.053860 -0.040526
Ni1   Ni    Ni4+2 0.869690 0.369690 0.000000 0.217162
Ni2   Ni    Ni4+2 0.130310 0.630310 0.000000 0.211614
Ni3   Ni    Ni4+2 0.001390 0.369680 0.869810 0.215321
Ni4   Ni    Ni4+2 0.998610 0.630320 0.130190 0.214469
N17   N     N_2   0.369712 0.410002 0.862804 -0.115632
H57   H     H_    0.294317 0.346403 0.835137 0.166038
C87   C     C_3   0.410761 0.384224 0.788361 -0.957150
H58   H     H_    0.346092 0.352801 0.704838 0.256335
H59   H     H_    0.433451 0.319916 0.787915 0.245337
H60   H     H_    0.483288 0.459131 0.811632 0.259512
N18   N     N_2   0.673614 0.582864 0.290329 -0.119171
H61   H     H_    0.749195 0.641170 0.311068 0.155876
C88   C     C_3   0.641737 0.617826 0.371114 -0.943916
H62   H     H_    0.708722 0.646232 0.452206 0.251791
H63   H     H_    0.566668 0.548167 0.351700 0.260989
H64   H     H_    0.626296 0.686882 0.374641 0.246561

loop_
_geom_bond_atom_site_label_1
_geom_bond_atom_site_label_2
_ccdc_geom_bond_type
C16   C28   A    
C39   C51   A    
C88   H62   S    
C75   H21   S    
C87   H58   S    
C67   N7    A    
C72   C74   S    
C2    N2    A    
N18   H61   S    
C3    C23   A    
N17   H57   S    
C50   H36   S    
C17   H11   S    
C77   N9    A    
C66   C85   S    
C83   H53   S    
C78   N10   A    
C65   C86   S    
C39   C41   A    
C81   H51   S    
C88   H63   S    
C73   C75   S    
C51   H27   S    
C42   C44   A    
C12   H4    S    
N17   C87   S    
C84   C86   A    
C13   C35   A    
C80   N12   A    
C15   H9    S    
C71   C76   S    
C21   H13   S    
C6    C78   A    
C38   H6    S    
C29   H17   S    
C28   H8    S    
C2    C86   A    
C1    H1    S    
C69   C71   S    
N7    N11   A    
C14   C36   A    
C21   C25   A    
C43   C58   S    
C60   H56   S    
C46   N6    A    
C49   C51   A    
C3    C81   A    
C50   C52   A    
C31   C33   A    
N1    N15   A    
N2    Ni2   S    
C82   N14   A    
C36   C64   A    
C10   C66   A    
N10   Ni1   S    
C76   H22   S    
C5    C73   S    
C41   C43   A    
C77   H47   S    
C72   C75   S    
C11   C59   A    
C47   C49   A    
C37   C63   A    
C6    C74   S    
C38   C64   A    
C53   C55   A    
N13   Ni4   S    
C1    C85   A    
C23   H23   S    
C88   H64   S    
C54   C56   A    
C16   H10   S    
C22   H14   S    
C37   H5    S    
C9    C62   A    
C62   C66   A    
C24   H24   S    
C48   H34   S    
C53   H37   S    
C71   C73   S    
N3    Ni2   S    
C84   N16   A    
C42   H32   S    
N4    Ni1   S    
C40   C52   A    
C5    C45   A    
C29   C34   A    
C9    H39   S    
C68   H46   S    
N11   Ni1   S    
N5    N9    A    
N12   Ni2   S    
C1    N1    A    
C79   N11   A    
C23   N3    A    
C3    C56   S    
C11   H3    S    
C15   C27   A    
C83   N15   A    
C44   C57   S    
C69   H41   S    
C49   H35   S    
C70   C73   S    
N4    N14   A    
C69   C74   S    
C16   C18   A    
C2    H2    S    
C48   C50   A    
C78   H48   S    
C59   H55   S    
C37   C59   A    
C22   C26   A    
C71   N17   S    
C38   C60   A    
C20   C33   S    
C12   C60   A    
C13   H19   S    
C83   C85   A    
C12   C14   A    
N14   Ni3   S    
C8    C68   A    
C87   H60   S    
C39   H29   S    
C55   C57   A    
C4    C55   S    
N5    Ni3   S    
C27   H7    S    
C10   C61   A    
C74   C76   S    
C70   C76   S    
C5    C77   A    
C36   C61   S    
N15   Ni3   S    
C47   H33   S    
C7    C79   A    
N18   C88   S    
C70   H42   S    
C15   C17   A    
N8    Ni3   S    
C54   H38   S    
C7    C32   S    
C6    C46   A    
C30   C33   A    
C19   C21   A    
C45   N5    A    
C8    C31   S    
C67   H45   S    
N6    N10   A    
C20   C22   A    
C19   C34   S    
C81   N13   A    
C46   H44   S    
C70   C72   S    
C53   C58   A    
N1    Ni1   S    
C52   H28   S    
C25   C27   A    
C79   H49   S    
C26   C28   A    
C80   H50   S    
N6    Ni4   S    
N9    Ni2   S    
C29   C31   A    
C24   N4    A    
C72   N18   S    
C30   C32   A    
C11   C13   A    
C25   H15   S    
C40   H30   S    
C43   C47   A    
C4    C24   A    
C45   H43   S    
C40   C42   A    
C17   C19   A    
C56   C58   A    
C82   H52   S    
C69   C75   S    
C35   C62   S    
C18   C20   A    
C63   H25   S    
C9    C65   A    
C64   H26   S    
C68   N8    A    
N16   Ni4   S    
C7    C67   A    
N3    N13   A    
C61   C65   A    
C14   H20   S    
C4    C82   A    
C84   H54   S    
C87   H59   S    
N8    N12   A    
C30   H18   S    
C8    C80   A    
C35   C63   A    
N7    Ni4   S    
C18   H12   S    
C41   H31   S    
C10   H40   S    
N2    N16   A    
C26   H16   S    
C44   C48   A    
C32   C34   A    
C54   C57   A    
