data_mof_unit_15897.cif
_audit_creation_date              2012-10-26T19:45:06-0400
_audit_creation_method            fapswitch 2.2
_symmetry_space_group_name_H-M    P1
_symmetry_Int_Tables_number       1
_space_group_crystal_system       triclinic
_cell_length_a                    9.601922
_cell_length_b                    10.857964
_cell_length_c                    13.834836
_cell_angle_alpha                 91.114892
_cell_angle_beta                  83.364489
_cell_angle_gamma                 88.770764
_cell_volume                      1432.04172097

loop_
_atom_site_label
_atom_site_type_symbol
_atom_type_description
_atom_site_fract_x
_atom_site_fract_y
_atom_site_fract_z
_atom_type_partial_charge
C1    C     C_R   0.500051 0.737397 0.495921 0.544120
C2    C     C_R   0.942659 0.438824 0.427988 0.096245
C3    C     C_1   0.539990 0.501924 0.213152 -0.024514
C4    C     C_1   0.460010 0.498076 0.786848 -0.024514
C5    C     C_2   0.558333 0.503796 0.021723 -0.125885
C6    C     C_2   0.441667 0.496204 0.978277 -0.125885
C7    C     C_1   0.449974 0.496994 0.874166 -0.065140
C8    C     C_1   0.550026 0.503006 0.125834 -0.065140
C9    C     C_R   0.621722 0.935756 0.458008 -0.028564
C10   C     C_R   0.378278 0.064244 0.541992 -0.028564
C11   C     C_R   0.619889 0.063228 0.467650 -0.158777
C12   C     C_R   0.499948 0.262603 0.504079 0.544120
C13   C     C_R   0.380111 0.936772 0.532350 -0.158777
C14   C     C_R   0.103914 0.630961 0.654316 0.072526
C15   C     C_R   0.100049 0.760003 0.653287 -0.108416
C16   C     C_R   0.122320 0.829189 0.736224 -0.125153
C17   C     C_R   0.142144 0.769859 0.822400 -0.105330
C18   C     C_R   0.135859 0.641657 0.826245 -0.119602
C19   C     C_R   0.113887 0.572787 0.743120 -0.078031
C20   C     C_R   0.896086 0.369038 0.345684 0.072526
C21   C     C_R   0.886113 0.427213 0.256880 -0.078031
C22   C     C_R   0.864141 0.358343 0.173755 -0.119602
C23   C     C_R   0.499574 0.128516 0.507331 -0.003617
C24   C     C_R   0.857856 0.230141 0.177600 -0.105329
C25   C     C_R   0.877680 0.170811 0.263776 -0.125153
C26   C     C_R   0.899951 0.239996 0.346713 -0.108416
C27   C     C_R   0.747614 0.875509 0.403874 0.057549
C28   C     C_R   0.738897 0.819400 0.312583 -0.070111
C29   C     C_R   0.859765 0.771683 0.257449 -0.125464
C30   C     C_R   0.989429 0.777259 0.293876 -0.110911
C31   C     C_R   0.998746 0.832423 0.384922 -0.117124
C32   C     C_R   0.878413 0.882350 0.439601 -0.104383
C33   C     C_R   0.252386 0.124491 0.596127 0.057549
C34   C     C_R   0.500426 0.871484 0.492669 -0.003617
C35   C     C_R   0.121587 0.117650 0.560399 -0.104383
C36   C     C_R   0.001254 0.167577 0.615078 -0.117124
C37   C     C_R   0.010571 0.222741 0.706124 -0.110910
C38   C     C_R   0.140235 0.228317 0.742551 -0.125464
C39   C     C_R   0.261103 0.180599 0.687417 -0.070111
C40   C     C_R   0.475907 0.499584 0.683092 0.547388
C41   C     C_R   0.524093 0.500416 0.316908 0.547387
C42   C     C_R   0.910133 0.561029 0.570783 0.007066
C43   C     C_R   0.089866 0.438971 0.429217 0.007066
C44   C     C_R   0.057340 0.561176 0.572012 0.096245
Cu1   Cu    Cu3+1 0.359340 0.499980 0.500000 0.952754
Cu2   Cu    Cu3+1 0.640660 0.500020 0.500000 0.952754
H1    H     H_    0.841959 0.610407 0.627058 0.124039
H2    H     H_    0.145982 0.595739 0.893906 0.100656
H3    H     H_    0.103828 0.474371 0.747941 0.112080
H4    H     H_    0.896172 0.525629 0.252059 0.112080
H5    H     H_    0.854018 0.404261 0.106094 0.100656
H6    H     H_    0.841512 0.176682 0.113206 0.108827
H7    H     H_    0.878825 0.071241 0.265759 0.126371
H8    H     H_    0.924361 0.193063 0.411072 0.086309
H9    H     H_    0.639172 0.815110 0.283347 0.096023
H10   H     H_    0.852843 0.730239 0.186423 0.095980
H11   H     H_    0.082741 0.739342 0.251342 0.108516
H12   H     H_    0.158041 0.389593 0.372942 0.124039
H13   H     H_    0.099496 0.837655 0.412482 0.110049
H14   H     H_    0.886924 0.926753 0.509364 0.093114
H15   H     H_    0.113076 0.073247 0.490636 0.093114
H16   H     H_    0.900504 0.162346 0.587518 0.110049
H17   H     H_    0.917259 0.260658 0.748658 0.108516
H18   H     H_    0.147158 0.269761 0.813577 0.095980
H19   H     H_    0.360828 0.184890 0.716653 0.096023
H20   H     H_    0.339561 0.489514 0.020583 0.124429
H21   H     H_    0.660439 0.510486 0.979417 0.124429
H22   H     H_    0.711278 0.111958 0.440150 0.131126
H23   H     H_    0.288722 0.888042 0.559849 0.131126
H24   H     H_    0.075639 0.806937 0.588929 0.086309
H25   H     H_    0.121175 0.928759 0.734241 0.126371
H26   H     H_    0.158488 0.823318 0.886794 0.108827
N1    N     N_R   0.147930 0.499970 0.499980 -0.234851
N2    N     N_R   0.852070 0.500030 0.500020 -0.234852
O1    O     O_R   0.381260 0.680340 0.500000 -0.505061
O2    O     O_R   0.618740 0.319660 0.500000 -0.505062
O3    O     O_R   0.618830 0.680370 0.500010 -0.489281
O4    O     O_R   0.381170 0.319630 0.499990 -0.489281
O5    O     O_R   0.364420 0.499960 0.637840 -0.486415
O6    O     O_R   0.635580 0.500040 0.362160 -0.486415
O7    O     O_R   0.601990 0.499990 0.637850 -0.508538
O8    O     O_R   0.398010 0.500010 0.362150 -0.508538

loop_
_geom_bond_atom_site_label_1
_geom_bond_atom_site_label_2
_ccdc_geom_bond_type
C43   N1    A    
C24   H6    S    
C1    O3    A    
C35   C36   A    
C5    H21   S    
C41   O6    A    
Cu2   O2    S    
Cu1   Cu2   S    
C12   C23   S    
C33   C39   A    
C20   C26   A    
C36   C37   A    
C37   C38   A    
C25   H7    S    
C5    C6    D    
Cu1   O8    S    
C15   C16   A    
C30   H11   S    
Cu1   N1    S    
C18   C19   A    
C31   H13   S    
C43   H12   S    
C3    C41   S    
C4    C40   S    
C16   C17   A    
C12   O4    A    
Cu1   O4    S    
C2    N2    A    
C21   C22   A    
C39   H19   S    
C16   H25   S    
C42   C44   A    
C4    C7    T    
C36   H16   S    
C26   H8    S    
C21   H4    S    
C37   H17   S    
C28   H9    S    
C1    C34   S    
C38   H18   S    
C38   C39   A    
C42   N2    A    
C2    C20   S    
C1    O1    A    
C24   C25   A    
Cu1   O5    S    
C3    C8    T    
C14   C19   A    
C25   C26   A    
C29   C30   A    
C5    C8    S    
Cu2   O7    S    
C19   H3    S    
C31   C32   A    
C2    C43   A    
C17   C18   A    
C40   O5    A    
C35   H15   S    
C9    C11   A    
C12   O2    A    
C9    C34   A    
C22   C24   A    
C32   H14   S    
Cu2   N2    S    
C11   H22   S    
C9    C27   S    
C14   C44   S    
C15   H24   S    
C28   C29   A    
C27   C32   A    
C40   O7    A    
C10   C13   A    
C18   H2    S    
Cu2   O3    S    
C6    C7    S    
C29   H10   S    
C10   C23   A    
Cu1   O1    S    
C13   C34   A    
Cu2   O6    S    
C30   C31   A    
C13   H23   S    
C41   O8    A    
C11   C23   A    
C33   C35   A    
C10   C33   S    
C42   H1    S    
C44   N1    A    
C6    H20   S    
C20   C21   A    
C17   H26   S    
C27   C28   A    
C14   C15   A    
C22   H5    S    
