data_mof_unit_39382.cif
_audit_creation_date              2012-12-11T15:24:40-0500
_audit_creation_method            fapswitch 2.2
_symmetry_space_group_name_H-M    P1
_symmetry_Int_Tables_number       1
_space_group_crystal_system       triclinic
_cell_length_a                    22.945697
_cell_length_b                    6.975016
_cell_length_c                    20.769248
_cell_angle_alpha                 89.860999
_cell_angle_beta                  93.218758
_cell_angle_gamma                 90.340838
_cell_volume                      3318.73769636

loop_
_atom_site_label
_atom_site_type_symbol
_atom_type_description
_atom_site_fract_x
_atom_site_fract_y
_atom_site_fract_z
_atom_type_partial_charge
O1    O     O_R   0.188030 0.379840 0.189340 -0.539389
O2    O     O_R   0.811970 0.620160 0.810660 -0.536706
O3    O     O_R   0.311970 0.879840 0.310660 -0.537126
O4    O     O_R   0.688030 0.120160 0.689340 -0.537614
O5    O     O_R   0.307090 0.708420 0.185790 -0.532530
O6    O     O_R   0.692910 0.291580 0.814210 -0.533715
O7    O     O_R   0.192910 0.208420 0.314210 -0.530380
O8    O     O_R   0.807090 0.791580 0.685790 -0.529378
C1    C     C_R   0.328265 0.541549 0.172551 0.767264
C2    C     C_R   0.673015 0.458913 0.828772 0.759239
C3    C     C_R   0.171928 0.040303 0.327636 0.761188
C4    C     C_R   0.827201 0.960047 0.671573 0.759963
O9    O     O_R   0.188180 0.709480 0.181650 -0.523510
O10   O     O_R   0.811820 0.290520 0.818350 -0.539690
O11   O     O_R   0.311820 0.209480 0.318350 -0.523838
O12   O     O_R   0.688180 0.790520 0.681650 -0.538293
O13   O     O_R   0.192210 0.880960 0.306500 -0.535925
O14   O     O_R   0.807790 0.119040 0.693500 -0.533208
O15   O     O_R   0.307790 0.380960 0.193500 -0.534385
O16   O     O_R   0.692210 0.619040 0.806500 -0.531631
C5    C     C_R   0.169218 0.540312 0.164305 0.767187
C6    C     C_R   0.831937 0.459623 0.834438 0.789318
C7    C     C_R   0.330868 0.040819 0.335585 0.757948
C8    C     C_R   0.668038 0.959050 0.665575 0.787345
O17   O     O_3   0.251460 0.546730 0.290970 -0.371839
O18   O     O_3   0.748540 0.453270 0.709030 -0.371911
O19   O     O_3   0.248540 0.046730 0.209030 -0.373596
O20   O     O_3   0.751460 0.953270 0.790970 -0.373613
V1    V     V_3+5 0.249730 0.821120 0.242400 1.545664
V2    V     V_3+5 0.750270 0.178880 0.757600 1.561107
V3    V     V_3+5 0.250270 0.321120 0.257600 1.549272
V4    V     V_3+5 0.749730 0.678880 0.742400 1.568447
C9    C     C_R   0.562723 0.027165 0.636222 -0.060917
C10   C     C_R   0.437634 0.016303 0.363999 -0.059387
C11   C     C_R   0.936462 0.541612 0.864564 -0.068879
C12   C     C_R   0.062680 0.505806 0.135796 -0.059759
C13   C     C_R   0.618036 0.969465 0.617079 -0.219881
C14   C     C_R   0.380539 0.034128 0.384511 -0.210036
C15   C     C_R   0.881879 0.471699 0.882948 -0.215457
C16   C     C_R   0.119576 0.532118 0.115372 -0.213582
C17   C     C_R   0.625900 0.928319 0.551632 -0.028220
C18   C     C_R   0.370753 0.042947 0.450717 -0.006309
C19   C     C_R   0.874605 0.420023 0.947804 -0.029377
C20   C     C_R   0.129076 0.546242 0.049156 -0.003677
C21   C     C_R   0.581276 0.977197 0.503689 -0.032164
C22   C     C_R   0.418953 0.058218 0.496795 -0.038284
C23   C     C_R   0.918979 0.467925 0.996219 -0.029950
C24   C     C_R   0.080667 0.564275 0.003588 -0.042706
C25   C     C_R   0.524257 0.016192 0.523429 -0.010281
C26   C     C_R   0.476562 0.031564 0.476622 -0.009398
C27   C     C_R   0.975596 0.516330 0.976784 -0.005327
C28   C     C_R   0.023318 0.530076 0.023583 -0.012664
C29   C     C_R   0.514412 0.031340 0.590137 -0.037000
C30   C     C_R   0.486427 0.018698 0.409864 -0.039643
C31   C     C_R   0.985027 0.543200 0.910315 -0.046644
C32   C     C_R   0.013796 0.507652 0.090147 -0.034286
C33   C     C_R   0.591845 0.990947 0.436902 -0.083445
C34   C     C_R   0.410957 0.092386 0.563050 -0.123077
C35   C     C_R   0.908582 0.471469 0.063206 -0.085361
C36   C     C_R   0.088354 0.608734 0.937920 -0.100575
C37   C     C_R   0.544852 0.017787 0.390808 0.320431
C38   C     C_R   0.456435 0.051782 0.609075 0.348821
C39   C     C_R   0.955535 0.498046 0.109438 0.323676
C40   C     C_R   0.042841 0.573353 0.891460 0.355941
C41   C     C_3   0.046989 0.070540 0.523548 0.448952
C42   C     C_3   0.945989 0.947111 0.470660 0.468419
C43   C     C_3   0.457099 0.578834 0.980032 0.449159
C44   C     C_3   0.555172 0.434791 0.032064 0.465468
C45   C     C_3   0.014038 0.889258 0.544427 -0.049017
C46   C     C_3   0.978450 0.128942 0.449889 -0.081248
C47   C     C_3   0.485820 0.393110 0.958016 -0.038216
C48   C     C_3   0.526454 0.621236 0.053913 -0.079834
H1    H     H_    0.008095 0.681453 0.453545 0.159348
H2    H     H_    0.981973 0.333464 0.540540 0.189842
H3    H     H_    0.487705 0.180751 0.048223 0.153400
H4    H     H_    0.526003 0.829780 0.963042 0.191116
C49   C     C_1   0.872883 0.973925 0.626503 -0.127451
C50   C     C_1   0.123854 0.028848 0.370397 -0.194920
C51   C     C_1   0.628013 0.469393 0.874753 -0.128063
C52   C     C_1   0.376951 0.533502 0.130484 -0.192569
C53   C     C_3   0.989537 0.187979 0.521674 -0.366372
C54   C     C_3   0.002951 0.828012 0.473074 -0.355046
C55   C     C_3   0.516839 0.685047 0.982393 -0.361173
C56   C     C_3   0.495706 0.326680 0.029074 -0.363346
C57   C     C_3   0.956980 0.004256 0.541591 0.018682
C58   C     C_3   0.036239 0.012317 0.452212 -0.028288
C59   C     C_3   0.545286 0.496918 0.961294 0.017230
C60   C     C_3   0.466310 0.515800 0.050937 -0.030993
C61   C     C_1   0.911076 0.989108 0.588748 0.096241
C62   C     C_1   0.083679 0.019835 0.406218 0.059263
C63   C     C_1   0.590485 0.481695 0.913374 0.095320
C64   C     C_1   0.417874 0.526075 0.095646 0.066728
C65   C     C_2   0.556613 0.091197 0.703861 0.812375
O21   O     O_2   0.572543 0.987660 0.749020 -0.574531
O22   O     O_R   0.532729 0.271048 0.715441 -0.649672
H5    H     H_    0.531099 0.299763 0.763126 0.298770
C66   C     C_2   0.443071 0.966077 0.295259 0.806468
O23   O     O_2   0.448991 0.091670 0.254963 -0.563262
O24   O     O_R   0.435319 0.775200 0.276408 -0.668536
H6    H     H_    0.435467 0.758446 0.228079 0.314329
C67   C     C_2   0.941639 0.619765 0.798241 0.802033
O25   O     O_2   0.924720 0.525417 0.751191 -0.578518
O26   O     O_R   0.965797 0.802184 0.790026 -0.645294
H7    H     H_    0.967146 0.839749 0.742937 0.294625
C68   C     C_2   0.057597 0.446483 0.203797 0.812999
O27   O     O_2   0.054490 0.566971 0.246089 -0.565745
O28   O     O_R   0.062041 0.252133 0.219440 -0.668171
H8    H     H_    0.061956 0.227815 0.267445 0.313037
C69   C     C_2   0.678442 0.818988 0.535023 0.776326
O29   O     O_2   0.672549 0.669559 0.504583 -0.538692
O30   O     O_R   0.734284 0.887060 0.553562 -0.661547
H9    H     H_    0.766244 0.800733 0.538636 0.304804
C70   C     C_2   0.311175 0.996781 0.471325 0.753803
O31   O     O_2   0.304440 0.865559 0.509447 -0.553564
O32   O     O_R   0.263057 0.101380 0.447182 -0.665659
H10   H     H_    0.225353 0.053393 0.464860 0.287985
C71   C     C_2   0.822849 0.302657 0.963216 0.777870
O33   O     O_2   0.829803 0.149686 0.991446 -0.537869
O34   O     O_R   0.766530 0.367286 0.946098 -0.661088
H11   H     H_    0.735176 0.275364 0.959935 0.304972
C72   C     C_2   0.188047 0.498775 0.027437 0.742285
O35   O     O_2   0.192824 0.378203 0.985396 -0.556013
O36   O     O_R   0.237835 0.588099 0.055230 -0.674404
H12   H     H_    0.274843 0.536536 0.037393 0.281467
C73   C     C_2   0.652084 0.998583 0.414363 0.787588
O37   O     O_2   0.666086 0.893795 0.370789 -0.554082
O38   O     O_R   0.692094 0.131293 0.441708 -0.644374
H13   H     H_    0.731341 0.126190 0.421714 0.308494
C74   C     C_2   0.358319 0.192740 0.584868 0.834389
O39   O     O_2   0.336760 0.147346 0.635274 -0.529355
O40   O     O_R   0.334413 0.344106 0.548007 -0.652706
H14   H     H_    0.299047 0.402056 0.567540 0.308628
C75   C     C_2   0.848457 0.468986 0.086066 0.790249
O41   O     O_2   0.835315 0.356478 0.128177 -0.551235
O42   O     O_R   0.807548 0.600857 0.060754 -0.644976
H15   H     H_    0.768466 0.588731 0.080869 0.308765
C76   C     C_2   0.140932 0.714619 0.917669 0.839549
O43   O     O_2   0.163051 0.675492 0.867160 -0.528617
O44   O     O_R   0.164236 0.863407 0.956321 -0.658436
H16   H     H_    0.198805 0.928593 0.937028 0.309502
O45   O     O_3   0.555514 0.036227 0.325954 -0.570043
C77   C     C_3   0.576665 0.221162 0.310475 0.102095
H17   H     H_    0.575360 0.229358 0.257051 0.151544
H18   H     H_    0.622989 0.240002 0.327353 0.136945
C78   C     C_3   0.540520 0.388485 0.334316 -0.379313
H19   H     H_    0.493537 0.367396 0.320568 0.246433
H20   H     H_    0.546052 0.399935 0.387694 0.200197
C79   C     C_3   0.560825 0.574978 0.304941 -0.683222
H21   H     H_    0.607948 0.599723 0.317312 0.259469
H22   H     H_    0.535544 0.691964 0.324838 0.278588
H23   H     H_    0.552958 0.572838 0.251716 0.232754
O46   O     O_3   0.443148 0.023318 0.672618 -0.546535
C80   C     C_3   0.426490 0.828935 0.679647 0.126986
H24   H     H_    0.463662 0.732324 0.670462 0.122158
H25   H     H_    0.388844 0.792109 0.645474 0.159000
C81   C     C_3   0.408260 0.794247 0.748328 -0.314611
H26   H     H_    0.447220 0.805422 0.782243 0.198058
H27   H     H_    0.376156 0.904625 0.761161 0.240447
C82   C     C_3   0.380957 0.595844 0.755387 -0.685541
H28   H     H_    0.341965 0.579372 0.721619 0.236091
H29   H     H_    0.367016 0.577802 0.805368 0.274944
H30   H     H_    0.413117 0.482739 0.745396 0.262432
O47   O     O_3   0.945087 0.508655 0.174524 -0.571833
C83   C     C_3   0.922799 0.689168 0.192050 0.091990
H31   H     H_    0.924555 0.691867 0.245534 0.151729
H32   H     H_    0.876227 0.703869 0.175805 0.140445
C84   C     C_3   0.957556 0.863321 0.169640 -0.377276
H33   H     H_    0.004760 0.846060 0.182772 0.244523
H34   H     H_    0.951487 0.879656 0.116429 0.202458
C85   C     C_3   0.936233 0.044362 0.201075 -0.680955
H35   H     H_    0.888450 0.061323 0.191474 0.254478
H36   H     H_    0.958786 0.167257 0.180261 0.287501
H37   H     H_    0.946647 0.040945 0.253926 0.225210
O48   O     O_3   0.056589 0.559353 0.827558 -0.541385
C86   C     C_3   0.063903 0.363078 0.812617 0.124149
H38   H     H_    0.020494 0.297160 0.800059 0.135177
H39   H     H_    0.085405 0.280312 0.853476 0.131543
C87   C     C_3   0.102372 0.345678 0.755199 -0.312850
H40   H     H_    0.085618 0.439560 0.715282 0.215544
H41   H     H_    0.147457 0.393461 0.769849 0.241430
C88   C     C_3   0.104043 0.139339 0.731103 -0.706058
H42   H     H_    0.120144 0.041876 0.770502 0.259517
H43   H     H_    0.133889 0.129773 0.691010 0.261483
H44   H     H_    0.059742 0.092400 0.713083 0.241349
C89   C     C_2   0.029862 0.758698 0.599887 0.721312
O49   O     O_2   0.076803 0.776192 0.630131 -0.545713
O50   O     O_R   0.989585 0.620025 0.617513 -0.667274
H45   H     H_    0.004013 0.541655 0.656177 0.305995
C90   C     C_2   0.954984 0.264831 0.399185 0.724346
O51   O     O_2   0.905840 0.329006 0.402707 -0.553118
O52   O     O_R   0.989061 0.318583 0.348623 -0.675722
H46   H     H_    0.967922 0.409964 0.317441 0.315850
C91   C     C_2   0.465922 0.268127 0.902691 0.728113
O53   O     O_2   0.418964 0.296634 0.873757 -0.551817
O54   O     O_R   0.502123 0.120843 0.883874 -0.673936
H47   H     H_    0.485206 0.049846 0.844688 0.301561
C92   C     C_2   0.551717 0.751285 0.105443 0.726762
O55   O     O_2   0.602758 0.801344 0.104463 -0.555598
O56   O     O_R   0.516981 0.816534 0.153699 -0.676481
H48   H     H_    0.539199 0.903075 0.185756 0.311536
O57   O     O_3   0.103241 0.115081 0.551299 -0.556521
C93   C     C_3   0.113462 0.315037 0.554776 0.091632
H49   H     H_    0.152242 0.337046 0.588467 0.168939
H50   H     H_    0.077293 0.392038 0.576445 0.126009
C94   C     C_3   0.126965 0.400486 0.488954 -0.368486
H51   H     H_    0.158201 0.306865 0.465377 0.227050
H52   H     H_    0.086216 0.409263 0.457638 0.199500
C95   C     C_3   0.154178 0.600200 0.495260 -0.697970
H53   H     H_    0.123944 0.700211 0.517487 0.253943
H54   H     H_    0.163453 0.655575 0.446694 0.229440
H55   H     H_    0.195836 0.594970 0.525135 0.252563
O58   O     O_3   0.888791 0.888752 0.450972 -0.556136
C96   C     C_3   0.885668 0.821174 0.387147 0.076755
H56   H     H_    0.917320 0.703453 0.380896 0.143842
H57   H     H_    0.894385 0.939786 0.353098 0.119821
C97   C     C_3   0.823602 0.744870 0.372715 -0.216591
H58   H     H_    0.814741 0.626097 0.406672 0.237075
H59   H     H_    0.791961 0.861360 0.380486 0.216239
C98   C     C_3   0.813862 0.672131 0.303859 -0.792142
H60   H     H_    0.821217 0.790004 0.269175 0.214856
H61   H     H_    0.768128 0.620696 0.295934 0.253703
H62   H     H_    0.843498 0.550624 0.295376 0.249451
O59   O     O_3   0.403027 0.644970 0.952871 -0.553867
C99   C     C_3   0.396948 0.844213 0.963217 0.083558
H63   H     H_    0.403390 0.918909 0.916922 0.166579
H64   H     H_    0.428296 0.904952 0.000906 0.108919
C100  C     C_3   0.335666 0.885489 0.984370 -0.311186
H65   H     H_    0.302729 0.821283 0.949409 0.226350
H66   H     H_    0.330726 0.819883 0.032483 0.211391
C101  C     C_3   0.324937 0.100591 0.989464 -0.740883
H67   H     H_    0.358611 0.168661 0.022638 0.225452
H68   H     H_    0.281476 0.124631 0.008800 0.258718
H69   H     H_    0.325764 0.169105 0.941221 0.271609
O60   O     O_3   0.611037 0.364818 0.051276 -0.555930
C102  C     C_3   0.613157 0.297629 0.115237 0.077758
H70   H     H_    0.580035 0.182958 0.121315 0.140528
H71   H     H_    0.605736 0.416878 0.149197 0.120080
C103  C     C_3   0.674235 0.215590 0.130080 -0.225972
H72   H     H_    0.681570 0.094759 0.096753 0.242383
H73   H     H_    0.707382 0.328200 0.121597 0.214662
C104  C     C_3   0.683186 0.145042 0.199379 -0.767654
H74   H     H_    0.680375 0.267259 0.233154 0.211794
H75   H     H_    0.727241 0.080786 0.206657 0.251376
H76   H     H_    0.650153 0.033985 0.209881 0.252657

loop_
_geom_bond_atom_site_label_1
_geom_bond_atom_site_label_2
_ccdc_geom_bond_type
C34   C38   A    
C55   C59   S    
O1    C5    A    
C67   O25   D    
C59   C63   S    
O19   V1    S    
O13   V1    S    
O57   C93   S    
O12   C8    A    
C68   O27   D    
O3    C7    A    
O22   H5    S    
C79   H23   S    
O15   V3    S    
C99   H63   S    
C42   C57   S    
C66   O23   D    
O36   H12   S    
C84   H34   S    
C42   C46   S    
C88   H42   S    
C50   C62   T    
C2    C51   S    
C39   O47   S    
C76   O44   S    
C103  C104  S    
C21   C33   A    
C43   C60   S    
C65   O21   D    
C93   H50   S    
O9    V1    S    
C81   H26   S    
C97   H59   S    
C14   C18   A    
C69   O30   S    
C33   C73   S    
C11   C15   A    
O4    C8    A    
C25   C29   A    
H3    C56   S    
C89   O50   S    
C43   C47   S    
C98   H61   S    
C85   H35   S    
C34   C74   S    
O32   H10   S    
C20   C72   S    
O1    V3    S    
C10   C66   S    
C101  H69   S    
O2    V4    S    
C104  H74   S    
C18   C22   A    
C33   C37   A    
O3    V1    S    
C46   C53   S    
O48   C86   S    
C12   C16   A    
C45   C54   S    
C66   O24   S    
C48   C92   S    
O47   C83   S    
O45   C77   S    
C1    O15   A    
O20   V4    S    
C3    O13   A    
C60   C64   S    
C2    O16   A    
C95   H53   S    
C91   O54   S    
C93   C94   S    
O2    C6    A    
C102  H70   S    
C82   H29   S    
O14   V2    S    
C80   H25   S    
C97   C98   S    
C19   C23   A    
C16   C20   A    
C51   C63   T    
C91   O53   D    
C44   C48   S    
C36   C76   S    
C41   C58   S    
O56   H48   S    
C67   O26   S    
C17   C69   S    
C22   C34   A    
C9    C29   A    
C83   H32   S    
C102  H71   S    
C77   C78   S    
C90   O51   D    
O10   V2    S    
H4    C55   S    
C48   C60   S    
C24   C36   A    
C86   C87   S    
O5    V1    S    
C96   H57   S    
C31   C40   A    
O17   V1    S    
C65   O22   S    
C103  H73   S    
C32   C39   A    
O7    V3    S    
C93   H49   S    
C78   H20   S    
C11   C31   A    
O52   H46   S    
O8    V4    S    
C87   H40   S    
O42   H15   S    
C97   H58   S    
O59   C99   S    
C86   H39   S    
C58   C62   S    
C88   H43   S    
C98   H60   S    
C71   O34   S    
O18   V4    S    
C23   C27   A    
C96   H56   S    
O19   V3    S    
C35   C75   S    
C101  H67   S    
C9    C13   A    
C27   C28   A    
C99   H64   S    
C104  H75   S    
C1    C52   S    
C44   C56   S    
C52   C64   T    
O7    C3    A    
O5    C1    A    
C12   C32   A    
C3    C50   S    
C101  H68   S    
C42   C54   S    
C68   O28   S    
C29   C38   A    
C18   C70   S    
C41   C53   S    
C82   H28   S    
C21   C25   A    
O8    C4    A    
C49   C61   T    
C4    C49   S    
C47   C56   S    
C8    C13   S    
C82   H30   S    
O9    C5    A    
C26   C30   A    
C43   C55   S    
C79   H21   S    
C80   C81   S    
C43   O59   S    
C72   O35   D    
C44   O60   S    
C19   C71   S    
O34   H11   S    
C47   C59   S    
C84   C85   S    
O18   V2    S    
C94   H51   S    
C37   O45   S    
C100  H66   S    
C38   O46   S    
C92   O56   S    
C10   C30   A    
C73   O37   D    
C102  C103  S    
C77   H18   S    
O60   C102  S    
O28   H8    S    
C40   O48   S    
O38   H13   S    
C46   C58   S    
C99   C100  S    
C45   C89   S    
H1    C54   S    
C84   H33   S    
C78   C79   S    
C45   C57   S    
C100  H65   S    
C75   O42   S    
C70   O31   D    
O16   V4    S    
C94   C95   S    
C96   C97   S    
C103  H72   S    
C83   H31   S    
C57   C61   S    
C88   H44   S    
O30   H9    S    
O6    V2    S    
C12   C68   S    
C10   C14   A    
O17   V3    S    
C81   C82   S    
C78   H19   S    
C56   C60   S    
C79   H22   S    
C11   C67   S    
O40   H14   S    
C9    C65   S    
O6    C2    A    
C87   H41   S    
O44   H16   S    
O11   V3    S    
C30   C37   A    
O12   V4    S    
C7    C14   S    
C76   O43   D    
C22   C26   A    
C35   C39   A    
O24   H6    S    
C36   C40   A    
C104  H76   S    
O10   C6    A    
C81   H27   S    
C74   O39   D    
O50   H45   S    
C86   H38   S    
C54   C58   S    
C71   O33   D    
C98   H62   S    
C70   O32   S    
C89   O49   D    
C75   O41   D    
C5    C16   S    
C85   H36   S    
C95   H55   S    
C41   C45   S    
C6    C15   S    
O11   C7    A    
O20   V2    S    
C27   C31   A    
C83   C84   S    
C13   C17   A    
C92   O55   D    
O4    V2    S    
C72   O36   S    
C87   C88   S    
C47   C91   S    
C48   C55   S    
C23   C35   A    
O54   H47   S    
C20   C24   A    
C24   C28   A    
C100  C101  S    
C41   O57   S    
O58   C96   S    
C15   C19   A    
C95   H54   S    
C25   C26   A    
C4    O14   A    
O26   H7    S    
C73   O38   S    
C44   C59   S    
C17   C21   A    
C77   H17   S    
O46   C80   S    
H2    C53   S    
C90   O52   S    
C80   H24   S    
C69   O29   D    
C94   H52   S    
C42   O58   S    
C53   C57   S    
C28   C32   A    
C46   C90   S    
C74   O40   S    
C85   H37   S    
