data_mof_unit_46869.cif
_audit_creation_date              2013-03-05T15:42:27-0500
_audit_creation_method            fapswitch 2.2
_symmetry_space_group_name_H-M    P1
_symmetry_Int_Tables_number       1
_space_group_crystal_system       triclinic
_cell_length_a                    7.792155
_cell_length_b                    8.561832
_cell_length_c                    23.413455
_cell_angle_alpha                 90.331524
_cell_angle_beta                  85.496386
_cell_angle_gamma                 94.11603
_cell_volume                      1553.19208966

loop_
_atom_site_label
_atom_site_type_symbol
_atom_site_description
_atom_site_fract_x
_atom_site_fract_y
_atom_site_fract_z
_atom_type_partial_charge
O1    O     O_R   0.389250 0.738570 0.503790 -0.579193
O2    O     O_R   0.610750 0.261430 0.496210 -0.579211
O3    O     O_R   0.678390 0.711620 0.493890 -0.582608
O4    O     O_R   0.321610 0.288380 0.506110 -0.582534
C1    C     C_R   0.546056 0.794716 0.498464 0.932778
C2    C     C_R   0.453943 0.205284 0.501533 0.932923
O5    O     O_R   0.355400 0.513520 0.588790 -0.611810
O6    O     O_R   0.644600 0.486480 0.411210 -0.611807
O7    O     O_R   0.644550 0.486570 0.578900 -0.627992
O8    O     O_R   0.355450 0.513430 0.421100 -0.627986
C3    C     C_R   0.501797 0.500437 0.610567 0.846792
C4    C     C_R   0.498201 0.499558 0.389433 0.846797
Zn1   Zn    Zn3+2 0.306930 0.518000 0.506610 1.080073
Zn2   Zn    Zn3+2 0.693070 0.482000 0.493390 1.080043
C5    C     C_R   0.500208 0.374685 0.121717 0.490039
C6    C     C_R   0.499777 0.625437 0.878283 0.490030
N1    N     N_R   0.535083 0.517086 0.146532 -0.338924
N2    N     N_R   0.464897 0.483036 0.853468 -0.338925
C7    C     C_R   0.572373 0.649584 0.114669 0.511320
C8    C     C_R   0.427613 0.350539 0.885331 0.511321
C9    C     C_R   0.568020 0.642861 0.055185 -0.053323
C10   C     C_R   0.431967 0.357263 0.944815 -0.053321
C11   C     C_R   0.509291 0.501739 0.029596 -0.032579
C12   C     C_R   0.490695 0.498385 0.970404 -0.032576
C13   C     C_R   0.469309 0.364552 0.063255 -0.077254
C14   C     C_R   0.530678 0.635571 0.936744 -0.077246
C15   C     C_R   0.618303 0.775257 0.021525 -0.163006
C16   C     C_R   0.381685 0.224866 0.978473 -0.163005
C17   C     C_R   0.603475 0.774608 0.962182 0.117935
C18   C     C_R   0.396515 0.225514 0.037818 0.117939
O9    O     O_2   0.498024 0.244719 0.154100 -0.569597
O10   O     O_2   0.501963 0.755405 0.845901 -0.569592
O11   O     O_2   0.610398 0.787562 0.140623 -0.567229
O12   O     O_2   0.389595 0.212558 0.859377 -0.567233
H1    H     H_    0.669418 0.879379 0.042276 0.201961
H2    H     H_    0.330570 0.120745 0.957723 0.201964
C19   C     C_R   0.339781 0.418157 0.762613 -0.097229
C20   C     C_R   0.660211 0.581905 0.237389 -0.097226
H3    H     H_    0.220563 0.372820 0.785468 0.162527
H4    H     H_    0.779436 0.627229 0.214532 0.162504
C21   C     C_R   0.351732 0.424649 0.703279 -0.253388
C22   C     C_R   0.648270 0.575366 0.296723 -0.253360
H5    H     H_    0.241841 0.379259 0.681071 0.180236
H6    H     H_    0.758176 0.620712 0.318929 0.180245
C23   C     C_R   0.501496 0.492190 0.672894 -0.039358
C24   C     C_R   0.498500 0.507834 0.327105 -0.039433
C25   C     C_R   0.643178 0.551551 0.702992 0.105849
C26   C     C_R   0.356797 0.448531 0.297003 0.106050
C27   C     C_R   0.632406 0.534684 0.762397 -0.143588
C28   C     C_R   0.367561 0.465445 0.237601 -0.143596
H7    H     H_    0.738794 0.579191 0.786458 0.137339
H8    H     H_    0.261167 0.420967 0.213542 0.137334
C29   C     C_R   0.479882 0.473907 0.792305 0.282598
C30   C     C_R   0.520096 0.526210 0.207696 0.282607
C31   C     C_2   0.569971 0.958621 0.498009 -0.342788
C32   C     C_2   0.430028 0.041378 0.501987 -0.342694
H9    H     H_    0.701829 0.010500 0.494634 0.253395
H10   H     H_    0.298169 0.989499 0.505363 0.253380
N3    N     N_2   0.950330 0.457950 0.484560 0.032202
N4    N     N_2   0.049670 0.542050 0.515440 0.032221
C33   C     C_3   0.669166 0.918404 0.926097 -0.305032
C34   C     C_3   0.780989 0.044865 0.954938 -0.915389
H11   H     H_    0.707053 0.100900 0.990853 0.267701
H12   H     H_    0.894878 0.992991 0.970293 0.263500
H13   H     H_    0.827054 0.137598 0.923251 0.271716
H14   H     H_    0.751167 0.878878 0.888535 0.243573
H15   H     H_    0.557289 0.974353 0.910745 0.270010
C35   C     C_3   0.330828 0.081715 0.073902 -0.305043
C36   C     C_3   0.219010 0.955250 0.045060 -0.915382
H16   H     H_    0.105116 0.007119 0.029706 0.263500
H17   H     H_    0.292948 0.899218 0.009145 0.267702
H18   H     H_    0.172952 0.862514 0.076747 0.271711
H19   H     H_    0.442709 0.025770 0.089254 0.270004
H20   H     H_    0.248826 0.121239 0.111464 0.243567
C37   C     C_3   0.796980 0.649380 0.675322 -0.391201
C38   C     C_3   0.744125 0.810117 0.658107 -0.702287
H21   H     H_    0.663480 0.799984 0.621067 0.239373
H22   H     H_    0.670473 0.864757 0.694618 0.256794
H23   H     H_    0.860629 0.888735 0.646108 0.283649
H24   H     H_    0.898799 0.669009 0.705858 0.203736
H25   H     H_    0.859332 0.588256 0.638333 0.251431
C39   C     C_3   0.203006 0.350674 0.324665 -0.391340
C40   C     C_3   0.255832 0.189830 0.341756 -0.702757
H26   H     H_    0.328654 0.135068 0.305112 0.256966
H27   H     H_    0.337230 0.199789 0.378594 0.239240
H28   H     H_    0.139367 0.111417 0.353982 0.283800
H29   H     H_    0.140782 0.411657 0.361709 0.251495
H30   H     H_    0.101084 0.331256 0.294162 0.203762
N5    N     N_R   0.983122 0.300962 0.484551 0.301799
O13   O     O_R   0.982240 0.228194 0.533279 -0.380815
O14   O     O_R   0.956050 0.218313 0.439024 -0.413792
N6    N     N_R   0.016861 0.699035 0.515451 0.301791
O15   O     O_R   0.017805 0.771828 0.466732 -0.380830
O16   O     O_R   0.043850 0.781664 0.561000 -0.413744

loop_
_geom_bond_atom_site_label_1
_geom_bond_atom_site_label_2
_geom_bond_distance
_ccdc_geom_bond_type
C31   C32   1.339414 D    
C15   C17   1.403189 A    
C38   H23   1.109305 S    
O7    Zn2   2.008773 S    
C25   C27   1.394516 A    
Zn1   N4    2.024175 S    
O5    C3    1.297759 A    
Zn2   N3    2.024173 S    
C28   C30   1.399417 A    
O1    C1    1.277504 A    
C7    C9    1.396553 A    
C12   C14   1.420346 A    
C20   C22   1.386199 A    
N3    N5    1.386075 S    
C39   H30   1.112284 S    
C5    C13   1.409438 A    
C35   H20   1.111579 S    
C39   H29   1.106814 S    
C22   C24   1.407061 A    
O4    Zn1   1.977387 S    
C36   H17   1.108203 S    
C34   H12   1.105710 S    
N2    C29   1.429761 S    
C33   H14   1.111578 S    
C32   H10   1.086906 S    
C35   C36   1.528431 S    
C27   H7    1.084122 S    
C28   H8    1.084051 S    
C11   C12   1.404636 A    
N5    O14   1.298704 A    
C37   H24   1.112395 S    
C33   C34   1.528405 S    
C8    O12   1.349962 S    
C26   C28   1.394506 A    
C9    C15   1.399157 A    
N3    N4    1.281503 D    
C10   C16   1.399134 A    
C21   H5    1.083723 S    
O2    C2    1.277506 A    
C22   H6    1.083667 S    
C24   C26   1.418209 A    
C23   C25   1.418176 A    
C9    C11   1.408394 A    
C6    C14   1.409422 A    
C17   C33   1.531408 S    
C38   H21   1.109676 S    
O4    C2    1.291522 A    
C7    O11   1.349953 S    
C2    C32   1.402318 S    
C37   H25   1.106845 S    
C15   H1    1.078806 S    
C35   H19   1.108963 S    
C36   H18   1.110748 S    
C37   C38   1.529667 S    
C34   H11   1.108208 S    
C33   H15   1.108960 S    
C40   H26   1.111305 S    
C20   C30   1.394057 A    
O6    C4    1.297766 A    
N6    O16   1.298910 A    
O7    C3    1.299840 A    
O3    Zn2   1.977386 S    
O8    C4    1.299833 A    
C4    C24   1.461244 S    
C40   H27   1.109395 S    
C8    C10   1.396563 A    
C31   H9    1.086904 S    
C10   C12   1.408393 A    
C3    C23   1.461206 S    
O1    Zn1   1.950149 S    
C13   C18   1.428791 A    
C5    N1    1.366357 A    
O6    Zn2   1.990828 S    
C34   H13   1.110741 S    
C1    C31   1.402315 S    
C38   H22   1.111693 S    
O3    C1    1.291525 A    
O8    Zn1   2.008773 S    
C5    O9    1.348469 S    
C6    O10   1.348460 S    
C16   C18   1.403233 A    
C19   C29   1.394078 A    
C19   H3    1.082853 S    
C20   H4    1.082884 S    
C27   C29   1.399433 A    
N6    O15   1.302276 A    
N1    C7    1.362470 A    
C26   C39   1.515834 S    
N2    C8    1.362456 A    
C11   C13   1.420339 A    
C19   C21   1.386183 A    
C36   H16   1.105711 S    
O2    Zn2   1.950150 S    
C25   C37   1.515853 S    
O5    Zn1   1.990828 S    
C40   H28   1.109147 S    
C16   H2    1.078792 S    
C14   C17   1.428805 A    
C6    N2    1.366358 A    
C39   C40   1.529593 S    
C21   C23   1.407081 A    
N5    O13   1.302404 A    
N4    N6    1.386077 S    
N1    C30   1.429777 S    
C18   C35   1.531406 S    
