data_mof_unit_26705.cif
_audit_creation_date              2012-12-10T19:45:51-0500
_audit_creation_method            fapswitch 2.2
_symmetry_space_group_name_H-M    P1
_symmetry_Int_Tables_number       1
_space_group_crystal_system       triclinic
_cell_length_a                    10.872049
_cell_length_b                    14.873761
_cell_length_c                    14.188567
_cell_angle_alpha                 89.930829
_cell_angle_beta                  103.832001
_cell_angle_gamma                 90.553466
_cell_volume                      2227.76730546

loop_
_atom_site_label
_atom_site_type_symbol
_atom_type_description
_atom_site_fract_x
_atom_site_fract_y
_atom_site_fract_z
_atom_type_partial_charge
C1    C     C_R   0.503215 0.327306 0.500534 0.887113
C2    C     C_R   0.502684 0.672533 0.500374 0.877806
C3    C     C_R   0.573923 0.048855 0.510211 -0.008242
C4    C     C_R   0.572500 0.951297 0.505951 -0.003815
C5    C     C_R   0.397501 0.462381 0.086893 -0.280198
C6    C     C_R   0.556194 0.571399 0.904526 -0.280826
C7    C     C_R   0.401428 0.461440 0.186777 -0.088207
C8    C     C_R   0.557682 0.568562 0.805741 -0.085483
C9    C     C_R   0.596039 0.541760 0.221580 0.617061
C10   C     C_R   0.437442 0.433162 0.783976 0.632054
C11   C     C_R   0.597196 0.541320 0.122208 -0.381366
C12   C     C_R   0.438790 0.432136 0.884187 -0.393788
C13   C     C_R   0.496759 0.502274 0.052648 0.116388
C14   C     C_R   0.496819 0.502242 0.945968 0.118581
C15   C     C_R   0.259449 0.500588 0.459643 0.941616
C16   C     C_R   0.740593 0.500220 0.540362 0.938477
C17   C     C_2   0.123691 0.500455 0.436549 -0.391482
C18   C     C_2   0.876357 0.503289 0.563430 -0.409341
C19   C     C_2   0.067198 0.507124 0.509389 -0.167074
C20   C     C_2   0.932991 0.499637 0.490461 -0.144700
C21   C     C_R   0.531544 0.089856 0.585471 -0.187153
C22   C     C_R   0.499398 0.910415 0.421764 -0.185448
C23   C     C_R   0.508807 0.181123 0.582905 -0.225099
C24   C     C_R   0.476533 0.818987 0.419860 -0.240453
C25   C     C_R   0.524844 0.231605 0.503651 -0.108524
C26   C     C_R   0.522885 0.768243 0.503185 -0.090232
C27   C     C_R   0.569124 0.191319 0.429114 -0.270477
C28   C     C_R   0.596515 0.808049 0.587379 -0.272239
C29   C     C_R   0.597836 0.100701 0.433020 0.491707
C30   C     C_R   0.625442 0.899158 0.588860 0.498860
H1    H     H_    0.509977 0.050620 0.643945 0.189588
H2    H     H_    0.455152 0.949724 0.358667 0.190234
H3    H     H_    0.475448 0.211561 0.641359 0.198893
H4    H     H_    0.419825 0.788303 0.354334 0.159397
N1    N     N_R   0.500000 0.499980 0.252470 -0.123021
N2    N     N_R   0.500000 0.500020 0.747530 -0.120769
O1    O     O_R   0.500010 0.369070 0.579480 -0.564534
O2    O     O_R   0.499990 0.630930 0.420520 -0.617996
O3    O     O_R   0.500010 0.369060 0.420520 -0.631611
O4    O     O_R   0.499990 0.630940 0.579480 -0.631440
O5    O     O_R   0.317810 0.500010 0.549800 -0.603144
O6    O     O_R   0.682190 0.499990 0.450200 -0.567239
O7    O     O_R   0.317810 0.500000 0.390840 -0.628969
O8    O     O_R   0.682190 0.500000 0.609160 -0.626279
Zn1   Zn    Zn3+2 0.500000 0.500010 0.606140 0.971694
Zn2   Zn    Zn3+2 0.500000 0.499990 0.393860 0.961826
H5    H     H_    0.880334 0.490973 0.415515 0.227988
H6    H     H_    0.120140 0.516294 0.584238 0.188855
H7    H     H_    0.678222 0.569605 0.100500 0.146527
H8    H     H_    0.397731 0.375602 0.913995 0.142264
H9    H     H_    0.929523 0.510269 0.638462 0.149665
H10   H     H_    0.070368 0.492681 0.361649 0.157400
H11   H     H_    0.583233 0.230166 0.367825 0.180295
H12   H     H_    0.634135 0.768113 0.651577 0.161091
O9    O     O_3   0.633220 0.062702 0.354463 -0.662690
C31   C     C_3   0.764866 0.045901 0.377787 0.068451
H13   H     H_    0.784094 0.002637 0.319340 0.185994
H14   H     H_    0.795425 0.007104 0.446065 0.126736
C32   C     C_3   0.843441 0.132778 0.381083 -0.380353
H15   H     H_    0.811021 0.169842 0.311645 0.237416
H16   H     H_    0.830331 0.176495 0.441224 0.210820
C33   C     C_3   0.984262 0.112525 0.397050 -0.952641
H17   H     H_    0.019022 0.077031 0.467146 0.261292
H18   H     H_    0.038464 0.176453 0.399054 0.268547
H19   H     H_    0.001236 0.070166 0.337074 0.268243
O10   O     O_3   0.692984 0.936569 0.675547 -0.662504
C34   C     C_3   0.815443 0.963797 0.668252 0.086082
H20   H     H_    0.857338 0.005117 0.733384 0.175005
H21   H     H_    0.812493 0.008393 0.605162 0.122363
C35   C     C_3   0.902231 0.883060 0.667057 -0.392811
H22   H     H_    0.907440 0.841808 0.733234 0.232024
H23   H     H_    0.863419 0.840304 0.602481 0.215336
C36   C     C_3   0.035350 0.913812 0.663596 -0.945725
H24   H     H_    0.032148 0.953479 0.596690 0.258821
H25   H     H_    0.095904 0.854199 0.663131 0.270336
H26   H     H_    0.078123 0.955613 0.728150 0.265803
H27   H     H_    0.316326 0.432596 0.037026 0.145203
H28   H     H_    0.600697 0.628029 0.947689 0.146763
H29   H     H_    0.324810 0.430089 0.211735 0.151978
H30   H     H_    0.604545 0.621860 0.775373 0.147848
O11   O     O_3   0.697861 0.576837 0.289363 -0.645059
C37   C     C_3   0.701543 0.671258 0.280516 0.065033
H31   H     H_    0.607158 0.701249 0.278120 0.147635
H32   H     H_    0.732257 0.690329 0.213738 0.126919
C38   C     C_3   0.797452 0.709163 0.368731 -0.271155
H33   H     H_    0.766925 0.691703 0.435938 0.224187
H34   H     H_    0.891561 0.678555 0.373203 0.226340
C39   C     C_3   0.809975 0.811003 0.362580 -1.018658
H35   H     H_    0.843169 0.829987 0.297006 0.265246
H36   H     H_    0.879837 0.836345 0.427692 0.265922
H37   H     H_    0.717378 0.843041 0.359427 0.284286
O12   O     O_3   0.382952 0.363488 0.722893 -0.631985
C40   C     C_3   0.255634 0.348593 0.726728 0.045860
H38   H     H_    0.203897 0.413178 0.725518 0.124869
H39   H     H_    0.251795 0.310146 0.793217 0.137231
C41   C     C_3   0.189313 0.292534 0.638630 -0.293642
H40   H     H_    0.191899 0.329414 0.570983 0.231763
H41   H     H_    0.240022 0.228010 0.638598 0.215117
C42   C     C_3   0.051842 0.272256 0.639816 -0.971649
H42   H     H_    0.047383 0.232590 0.705316 0.261286
H43   H     H_    0.006183 0.232565 0.574507 0.271362
H44   H     H_    0.998705 0.335631 0.639444 0.274525

loop_
_geom_bond_atom_site_label_1
_geom_bond_atom_site_label_2
_ccdc_geom_bond_type
O9    C31   S    
C40   H38   S    
C27   C29   A    
C36   H24   S    
C19   C20   S    
O11   C37   S    
C38   H33   S    
C21   H1    S    
C22   H2    S    
C24   C26   A    
C8    N2    A    
C9    N1    A    
C6    H28   S    
C41   C42   S    
C31   H13   S    
O6    Zn2   S    
C3    C29   A    
C33   H18   S    
C23   H3    S    
C41   H41   S    
C10   N2    A    
C35   H22   S    
C16   O8    A    
C5    C13   A    
C1    O1    A    
O10   C34   S    
C10   O12   S    
C32   H15   S    
C40   H39   S    
C13   C14   S    
C1    C25   S    
C36   H25   S    
C17   H10   S    
C18   H9    S    
C38   H34   S    
O4    Zn1   S    
C32   H16   S    
C34   H20   S    
C15   O5    A    
C5    C7    A    
C28   H12   S    
C19   H6    S    
C6    C8    A    
C29   O9    S    
C24   H4    S    
C34   H21   S    
C33   H17   S    
C11   H7    S    
C6    C14   A    
C4    C22   A    
C2    O2    A    
C42   H42   S    
C39   H37   S    
C41   H40   S    
C35   C36   S    
N2    Zn1   S    
C2    C26   S    
C9    C11   A    
C30   O10   S    
C10   C12   A    
O3    Zn2   S    
C42   H43   S    
C12   C14   A    
C40   C41   S    
C37   H32   S    
C21   C23   A    
C36   H26   S    
C22   C24   A    
C3    C21   A    
O1    Zn1   S    
C3    C4    S    
C16   O6    A    
O8    Zn1   S    
C7    H29   S    
C38   C39   S    
C15   C17   S    
C32   C33   S    
C33   H19   S    
C7    N1    A    
C39   H36   S    
C12   H8    S    
C27   H11   S    
C25   C27   A    
C37   C38   S    
C26   C28   A    
C31   C32   S    
C34   C35   S    
C28   C30   A    
C15   O7    A    
C11   C13   A    
O12   C40   S    
C17   C19   D    
C31   H14   S    
C18   C20   D    
C23   C25   A    
O7    Zn2   S    
O2    Zn2   S    
C20   H5    S    
C1    O3    A    
C2    O4    A    
C42   H44   S    
C39   H35   S    
C16   C18   S    
C37   H31   S    
C8    H30   S    
O5    Zn1   S    
C35   H23   S    
N1    Zn2   S    
C5    H27   S    
C4    C30   A    
C9    O11   S    
