data_mof_unit_58090.cif
_audit_creation_date              2012-12-11T15:08:49-0500
_audit_creation_method            fapswitch 2.2
_symmetry_space_group_name_H-M    P1
_symmetry_Int_Tables_number       1
_space_group_crystal_system       triclinic
_cell_length_a                    19.476502
_cell_length_b                    11.251911
_cell_length_c                    18.724981
_cell_angle_alpha                 89.99997
_cell_angle_beta                  90.095874
_cell_angle_gamma                 90.000013
_cell_volume                      4103.53390262

loop_
_atom_site_label
_atom_site_type_symbol
_atom_type_description
_atom_site_fract_x
_atom_site_fract_y
_atom_site_fract_z
_atom_type_partial_charge
C1    C     C_R   0.273632 0.041531 0.855030 0.529558
C2    C     C_3   0.692084 0.523819 0.957467 -0.229902
C3    C     C_R   0.226776 0.543285 0.354264 0.537674
C4    C     C_R   0.468767 0.823172 0.645331 0.543332
C5    C     C_R   0.531234 0.823172 0.354669 0.543331
C6    C     C_R   0.968766 0.323172 0.645331 0.543331
C7    C     C_R   0.031234 0.323172 0.354669 0.543331
C8    C     C_R   0.261100 0.640301 0.643491 0.539639
C9    C     C_R   0.738900 0.640301 0.356509 0.539639
C10   C     C_R   0.761100 0.140301 0.643491 0.539639
C11   C     C_R   0.238900 0.140301 0.356509 0.539639
C12   C     C_3   0.480274 0.913598 0.036169 -0.143717
C13   C     C_3   0.807916 0.023817 0.042533 -0.229902
C14   C     C_3   0.519727 0.913597 0.963830 -0.143717
C15   C     C_3   0.980274 0.413598 0.036169 -0.143717
C16   C     C_3   0.019727 0.413597 0.963830 -0.143717
C17   C     C_3   0.431066 0.814879 0.007943 -0.156599
C18   C     C_3   0.568934 0.814878 0.992057 -0.156599
C19   C     C_3   0.931066 0.314879 0.007943 -0.156599
C20   C     C_3   0.068934 0.314878 0.992057 -0.156599
C21   C     C_3   0.470339 0.817347 0.936161 0.038822
C22   C     C_3   0.529661 0.817347 0.063838 0.038821
C23   C     C_3   0.970339 0.317347 0.936161 0.038822
C24   C     C_3   0.192084 0.023819 0.957467 -0.229902
C25   C     C_3   0.029662 0.317347 0.063838 0.038821
C26   C     C_3   0.318856 0.549251 0.962720 -0.226341
C27   C     C_3   0.681144 0.549255 0.037280 -0.226341
C28   C     C_3   0.818856 0.049251 0.962720 -0.226341
C29   C     C_3   0.181144 0.049255 0.037280 -0.226341
C30   C     C_3   0.177326 0.520214 0.024760 -0.208438
C31   C     C_3   0.822673 0.520213 0.975240 -0.208438
C32   C     C_3   0.677326 0.020214 0.024760 -0.208438
C33   C     C_R   0.726367 0.041531 0.144970 0.529558
C34   C     C_3   0.322673 0.020213 0.975240 -0.208438
C35   C     C_3   0.238420 0.704894 0.055369 -0.257521
C36   C     C_3   0.761581 0.704895 0.944631 -0.257520
C37   C     C_3   0.738420 0.204894 0.055369 -0.257520
C38   C     C_3   0.261581 0.204895 0.944631 -0.257520
C39   C     C_3   0.238266 0.571412 0.068964 0.053024
C40   C     C_3   0.761734 0.571413 0.931036 0.053025
C41   C     C_3   0.738266 0.071412 0.068964 0.053024
C42   C     C_3   0.261734 0.071413 0.931036 0.053025
C43   C     C_3   0.253485 0.607053 0.931247 0.049211
C44   C     C_R   0.773632 0.541531 0.855030 0.529558
C45   C     C_3   0.746515 0.607053 0.068753 0.049210
C46   C     C_3   0.753485 0.107053 0.931247 0.049211
C47   C     C_3   0.246515 0.107054 0.068753 0.049210
C48   C     C_3   0.192792 0.522399 0.943774 -0.251993
C49   C     C_3   0.807207 0.522397 0.056225 -0.251996
C50   C     C_3   0.692792 0.022399 0.943774 -0.251993
C51   C     C_3   0.307207 0.022397 0.056225 -0.251996
C52   C     C_3   0.237385 0.722870 0.973719 -0.222386
C53   C     C_3   0.762617 0.722870 0.026280 -0.222386
C54   C     C_3   0.737385 0.222870 0.973719 -0.222385
C55   C     C_R   0.226367 0.541531 0.144970 0.529558
C56   C     C_3   0.262617 0.222870 0.026280 -0.222386
C57   C     C_3   0.503878 0.700794 0.460361 -0.227860
C58   C     C_3   0.496123 0.700794 0.539640 -0.227860
C59   C     C_3   0.003878 0.200794 0.460360 -0.227860
C60   C     C_3   0.996123 0.200794 0.539640 -0.227860
C61   C     C_R   0.443086 0.816581 0.862386 0.536774
C62   C     C_R   0.556914 0.816581 0.137614 0.536773
C63   C     C_R   0.943086 0.316581 0.862386 0.536774
C64   C     C_R   0.056914 0.316581 0.137614 0.536774
C65   C     C_3   0.564380 0.905384 0.473554 -0.216202
C66   C     C_3   0.518496 0.721473 0.964822 0.148920
C67   C     C_3   0.435620 0.905384 0.526446 -0.216201
C68   C     C_3   0.064380 0.405384 0.473554 -0.216202
C69   C     C_3   0.935620 0.405384 0.526446 -0.216202
C70   C     C_3   0.441097 0.887555 0.444546 -0.263767
C71   C     C_3   0.558904 0.887555 0.555454 -0.263767
C72   C     C_3   0.941097 0.387555 0.444546 -0.263767
C73   C     C_3   0.058903 0.387555 0.555454 -0.263767
C74   C     C_3   0.510599 0.829318 0.430933 0.062737
C75   C     C_3   0.489401 0.829318 0.569067 0.062738
C76   C     C_3   0.010599 0.329318 0.430933 0.062738
C77   C     C_3   0.481504 0.721473 0.035178 0.148920
C78   C     C_3   0.989401 0.329318 0.569067 0.062738
C79   C     C_3   0.179887 0.647095 0.459408 -0.228656
C80   C     C_3   0.820113 0.647095 0.540592 -0.228656
C81   C     C_3   0.679887 0.147095 0.459408 -0.228656
C82   C     C_3   0.320113 0.147095 0.540592 -0.228656
C83   C     C_3   0.184789 0.659625 0.538601 -0.226845
C84   C     C_3   0.815210 0.659626 0.461399 -0.226845
C85   C     C_3   0.684790 0.159626 0.538601 -0.226845
C86   C     C_3   0.315210 0.159626 0.461399 -0.226845
C87   C     C_3   0.252286 0.454458 0.472938 -0.214689
C88   C     C_3   0.018496 0.221473 0.964822 0.148920
C89   C     C_3   0.747714 0.454458 0.527062 -0.214689
C90   C     C_3   0.752286 0.954458 0.472938 -0.214689
C91   C     C_3   0.247714 0.954458 0.527062 -0.214689
C92   C     C_3   0.304522 0.647964 0.442350 -0.263882
C93   C     C_3   0.695478 0.647964 0.557650 -0.263881
C94   C     C_3   0.804522 0.147964 0.442350 -0.263881
C95   C     C_3   0.195478 0.147964 0.557649 -0.263881
C96   C     C_3   0.240515 0.572583 0.429959 0.065389
C97   C     C_3   0.759484 0.572583 0.570041 0.065389
C98   C     C_3   0.740516 0.072583 0.429959 0.065388
C99   C     C_3   0.981504 0.221474 0.035178 0.148920
C100  C     C_3   0.259485 0.072583 0.570041 0.065389
C101  C     C_3   0.252978 0.606040 0.567511 0.064737
C102  C     C_3   0.747022 0.606040 0.432489 0.064736
C103  C     C_3   0.752978 0.106040 0.567511 0.064736
C104  C     C_3   0.247022 0.106040 0.432489 0.064736
C105  C     C_3   0.247326 0.472634 0.554686 -0.264416
C106  C     C_3   0.752674 0.472634 0.445314 -0.264416
C107  C     C_3   0.747326 0.972634 0.554686 -0.264416
C108  C     C_3   0.252674 0.972634 0.445314 -0.264416
C109  C     C_R   0.261625 0.640234 0.854409 0.532735
C110  C     C_3   0.307916 0.523817 0.042533 -0.229902
C111  C     C_R   0.738375 0.640235 0.145591 0.532735
C112  C     C_R   0.761625 0.140234 0.854409 0.532735
C113  C     C_R   0.238375 0.140235 0.145591 0.532735
C114  C     C_3   0.317330 0.648393 0.523995 -0.217045
C115  C     C_3   0.682670 0.648393 0.476005 -0.217046
C116  C     C_3   0.817330 0.148393 0.523995 -0.217045
C117  C     C_3   0.182670 0.148393 0.476005 -0.217046
C118  C     C_R   0.273224 0.043285 0.645736 0.537674
C119  C     C_R   0.726776 0.043285 0.354264 0.537674
C120  C     C_R   0.773224 0.543285 0.645736 0.537674
Cr1   Cr    Cr6+3 0.229620 0.836040 0.749110 0.992446
Cr2   Cr    Cr6+3 0.613980 0.676590 0.250790 0.988801
Cr3   Cr    Cr6+3 0.886020 0.176590 0.749210 0.988801
Cr4   Cr    Cr6+3 0.113980 0.176590 0.250790 0.988801
Cr5   Cr    Cr6+3 0.770380 0.836040 0.250890 0.992446
Cr6   Cr    Cr6+3 0.729620 0.336040 0.749110 0.992446
Cr7   Cr    Cr6+3 0.270380 0.336040 0.250890 0.992446
Cr8   Cr    Cr6+3 0.387630 0.990680 0.750730 0.997648
Cr9   Cr    Cr6+3 0.612370 0.990680 0.249270 0.997648
Cr10  Cr    Cr6+3 0.887630 0.490680 0.750730 0.997648
Cr11  Cr    Cr6+3 0.112370 0.490680 0.249270 0.997648
Cr12  Cr    Cr6+3 0.386020 0.676590 0.749210 0.988801
H1    H     H_    0.376824 0.799952 0.020732 0.094578
H2    H     H_    0.715431 0.743836 0.919504 0.101566
H3    H     H_    0.193999 0.928783 0.537897 0.119514
H4    H     H_    0.289514 0.425266 0.582641 0.109316
H5    H     H_    0.710486 0.425266 0.417359 0.109316
H6    H     H_    0.789514 0.925266 0.582641 0.109316
H7    H     H_    0.210486 0.925266 0.417359 0.109316
H8    H     H_    0.314343 0.429856 0.053762 0.132720
H9    H     H_    0.685657 0.429858 0.946238 0.132721
H10   H     H_    0.814342 0.929856 0.053762 0.132720
H11   H     H_    0.185657 0.929859 0.946238 0.132721
H12   H     H_    0.347197 0.567898 0.074466 0.153249
H13   H     H_    0.784570 0.243834 0.080496 0.101566
H14   H     H_    0.652803 0.567899 0.925534 0.153248
H15   H     H_    0.847198 0.067898 0.074466 0.153249
H16   H     H_    0.152802 0.067900 0.925534 0.153248
H17   H     H_    0.363501 0.609448 0.955895 0.154140
H18   H     H_    0.636500 0.609453 0.044104 0.154139
H19   H     H_    0.863501 0.109448 0.955895 0.154140
H20   H     H_    0.136500 0.109453 0.044104 0.154139
H21   H     H_    0.330819 0.465109 0.934191 0.116942
H22   H     H_    0.669179 0.465113 0.065808 0.116943
H23   H     H_    0.830819 0.965109 0.934191 0.116942
H24   H     H_    0.215431 0.243836 0.919504 0.101566
H25   H     H_    0.169179 0.965113 0.065808 0.116943
H26   H     H_    0.663359 0.933710 0.045651 0.097960
H27   H     H_    0.336641 0.933711 0.954349 0.097961
H28   H     H_    0.163359 0.433710 0.045651 0.097960
H29   H     H_    0.836641 0.433711 0.954349 0.097961
H30   H     H_    0.705608 0.933230 0.923796 0.110183
H31   H     H_    0.294389 0.933229 0.076202 0.110185
H32   H     H_    0.205608 0.433230 0.923796 0.110183
H33   H     H_    0.794389 0.433229 0.076202 0.110185
H34   H     H_    0.490754 0.561249 0.922081 0.258051
H35   H     H_    0.272937 0.792345 0.958102 0.109121
H36   H     H_    0.556798 0.629251 0.880015 0.248349
H37   H     H_    0.509246 0.561250 0.077920 0.258051
H38   H     H_    0.443202 0.629253 0.119985 0.248349
H39   H     H_    0.990754 0.061249 0.922081 0.258051
H40   H     H_    0.056798 0.129250 0.880015 0.248349
H41   H     H_    0.009245 0.061250 0.077920 0.258052
H42   H     H_    0.943201 0.129253 0.119985 0.248350
H43   H     H_    0.727067 0.792349 0.041899 0.109121
H44   H     H_    0.772937 0.292345 0.958102 0.109121
H45   H     H_    0.227067 0.292349 0.041899 0.109122
H46   H     H_    0.184233 0.749017 0.959252 0.135903
H47   H     H_    0.815770 0.749014 0.040747 0.135902
H48   H     H_    0.684233 0.249017 0.959252 0.135903
H49   H     H_    0.623177 0.799950 0.979268 0.094578
H50   H     H_    0.315770 0.249014 0.040747 0.135902
H51   H     H_    0.630423 0.074780 0.034100 0.139591
H52   H     H_    0.369577 0.074779 0.965901 0.139591
H53   H     H_    0.130423 0.574779 0.034100 0.139591
H54   H     H_    0.869577 0.574779 0.965901 0.139591
H55   H     H_    0.146727 0.553216 0.914013 0.125853
H56   H     H_    0.853272 0.553210 0.085988 0.125852
H57   H     H_    0.646727 0.053216 0.914013 0.125852
H58   H     H_    0.353272 0.053210 0.085988 0.125852
H59   H     H_    0.547187 0.644197 0.446417 0.136286
H60   H     H_    0.876824 0.299952 0.020732 0.094578
H61   H     H_    0.452813 0.644198 0.553583 0.136286
H62   H     H_    0.047187 0.144197 0.446417 0.136286
H63   H     H_    0.952814 0.144197 0.553583 0.136286
H64   H     H_    0.459178 0.655583 0.435544 0.114716
H65   H     H_    0.540822 0.655583 0.564457 0.114716
H66   H     H_    0.959178 0.155583 0.435543 0.114716
H67   H     H_    0.040822 0.155583 0.564457 0.114716
H68   H     H_    0.616247 0.896673 0.453519 0.112883
H69   H     H_    0.383753 0.896671 0.546482 0.112884
H70   H     H_    0.116247 0.396673 0.453519 0.112884
H71   H     H_    0.123177 0.299950 0.979268 0.094578
H72   H     H_    0.883753 0.396673 0.546481 0.112883
H73   H     H_    0.600830 0.830801 0.575734 0.109483
H74   H     H_    0.399170 0.830801 0.424266 0.109483
H75   H     H_    0.100830 0.330801 0.575734 0.109483
H76   H     H_    0.899170 0.330801 0.424266 0.109484
H77   H     H_    0.466019 0.995224 0.065757 0.122248
H78   H     H_    0.533981 0.995223 0.934242 0.122248
H79   H     H_    0.966019 0.495224 0.065757 0.122248
H80   H     H_    0.033982 0.495223 0.934242 0.122248
H81   H     H_    0.437970 0.973996 0.416181 0.109766
H82   H     H_    0.192916 0.748912 0.079626 0.130269
H83   H     H_    0.562030 0.973996 0.583819 0.109766
H84   H     H_    0.937971 0.473996 0.416181 0.109767
H85   H     H_    0.062029 0.473996 0.583819 0.109766
H86   H     H_    0.449790 0.998909 0.536589 0.118049
H87   H     H_    0.550210 0.998909 0.463411 0.118049
H88   H     H_    0.949790 0.498909 0.536589 0.118049
H89   H     H_    0.050210 0.498909 0.463411 0.118049
H90   H     H_    0.129857 0.610237 0.446013 0.135078
H91   H     H_    0.870143 0.610238 0.553987 0.135078
H92   H     H_    0.629857 0.110236 0.446013 0.135078
H93   H     H_    0.807085 0.748912 0.920374 0.130269
H94   H     H_    0.370143 0.110238 0.553987 0.135078
H95   H     H_    0.179290 0.736303 0.434181 0.114535
H96   H     H_    0.820710 0.736303 0.565819 0.114535
H97   H     H_    0.679289 0.236302 0.434181 0.114535
H98   H     H_    0.320710 0.236303 0.565819 0.114535
H99   H     H_    0.178155 0.752908 0.552175 0.135269
H100  H     H_    0.821844 0.752908 0.447826 0.135269
H101  H     H_    0.678156 0.252908 0.552174 0.135269
H102  H     H_    0.321844 0.252908 0.447825 0.135269
H103  H     H_    0.140201 0.615425 0.564082 0.115478
H104  H     H_    0.692916 0.248912 0.079626 0.130269
H105  H     H_    0.859799 0.615426 0.435918 0.115479
H106  H     H_    0.640201 0.115426 0.564082 0.115479
H107  H     H_    0.359799 0.115426 0.435918 0.115478
H108  H     H_    0.721628 0.880785 0.453796 0.113774
H109  H     H_    0.278373 0.880786 0.546203 0.113773
H110  H     H_    0.221628 0.380785 0.453796 0.113774
H111  H     H_    0.778372 0.380786 0.546204 0.113774
H112  H     H_    0.698280 0.938354 0.575792 0.109002
H113  H     H_    0.301720 0.938354 0.424208 0.109002
H114  H     H_    0.198280 0.438354 0.575792 0.109003
H115  H     H_    0.307085 0.248912 0.920374 0.130269
H116  H     H_    0.801720 0.438354 0.424208 0.109002
H117  H     H_    0.349029 0.609234 0.413600 0.109910
H118  H     H_    0.650971 0.609234 0.586400 0.109910
H119  H     H_    0.849029 0.109234 0.413600 0.109909
H120  H     H_    0.150971 0.109233 0.586400 0.109910
H121  H     H_    0.296689 0.738883 0.421716 0.108473
H122  H     H_    0.703311 0.738883 0.578284 0.108472
H123  H     H_    0.796689 0.238883 0.421716 0.108473
H124  H     H_    0.203311 0.238883 0.578284 0.108472
H125  H     H_    0.338925 0.731036 0.543112 0.112489
H126  H     H_    0.284570 0.743834 0.080496 0.101566
H127  H     H_    0.661074 0.731036 0.456888 0.112490
H128  H     H_    0.838925 0.231037 0.543112 0.112489
H129  H     H_    0.161074 0.231036 0.456888 0.112489
H130  H     H_    0.357384 0.580861 0.533832 0.117640
H131  H     H_    0.642616 0.580860 0.466168 0.117640
H132  H     H_    0.857384 0.080861 0.533832 0.117640
H133  H     H_    0.142616 0.080860 0.466168 0.117640
H134  H     H_    0.306002 0.428784 0.462103 0.119514
H135  H     H_    0.693998 0.428784 0.537897 0.119514
H136  H     H_    0.806002 0.928784 0.462103 0.119514
N1    N     N_3   0.535869 0.609838 0.929990 -0.654286
N2    N     N_3   0.464131 0.609839 0.070011 -0.654287
N3    N     N_3   0.035869 0.109838 0.929990 -0.654286
N4    N     N_3   0.964131 0.109839 0.070011 -0.654287
O1    O     O_R   0.214130 0.708570 0.829890 -0.526188
O2    O     O_R   0.542830 0.717300 0.331620 -0.531100
O3    O     O_R   0.957170 0.217300 0.668380 -0.531100
O4    O     O_R   0.042830 0.217300 0.331620 -0.531100
O5    O     O_R   0.320870 0.624890 0.673130 -0.510482
O6    O     O_R   0.679130 0.624890 0.326870 -0.510482
O7    O     O_R   0.820870 0.124890 0.673130 -0.510482
O8    O     O_R   0.179130 0.124890 0.326870 -0.510482
O9    O     O_3   0.334430 0.834430 0.749680 -0.283353
O10   O     O_3   0.665570 0.834430 0.250320 -0.283354
O11   O     O_3   0.834430 0.334430 0.749680 -0.283353
O12   O     O_R   0.785870 0.708570 0.170110 -0.526188
O13   O     O_3   0.165570 0.334430 0.250320 -0.283354
O14   O     O_R   0.236050 0.959150 0.825270 -0.514916
O15   O     O_R   0.763950 0.959150 0.174730 -0.514916
O16   O     O_R   0.736050 0.459150 0.825270 -0.514916
O17   O     O_R   0.263950 0.459150 0.174730 -0.514916
O18   O     O_R   0.332100 0.076650 0.832310 -0.531513
O19   O     O_R   0.667900 0.076650 0.167690 -0.531513
O20   O     O_R   0.832100 0.576650 0.832310 -0.531513
O21   O     O_R   0.167900 0.576650 0.167690 -0.531513
O22   O     O_R   0.446500 0.918620 0.826240 -0.502752
O23   O     O_R   0.714130 0.208570 0.829890 -0.526188
O24   O     O_R   0.553500 0.918620 0.173760 -0.502752
O25   O     O_R   0.946500 0.418620 0.826240 -0.502752
O26   O     O_R   0.053500 0.418620 0.173760 -0.502752
O27   O     O_R   0.457310 0.715830 0.831280 -0.533279
O28   O     O_R   0.542690 0.715830 0.168720 -0.533279
O29   O     O_R   0.957310 0.215830 0.831280 -0.533279
O30   O     O_R   0.042690 0.215830 0.168720 -0.533279
O31   O     O_R   0.321000 0.623520 0.824130 -0.521408
O32   O     O_R   0.679000 0.623520 0.175870 -0.521407
O33   O     O_R   0.821000 0.123520 0.824130 -0.521408
O34   O     O_R   0.285870 0.208570 0.170110 -0.526188
O35   O     O_R   0.179000 0.123520 0.175870 -0.521407
O36   O     O_R   0.213990 0.710040 0.667000 -0.532595
O37   O     O_R   0.786010 0.710040 0.333000 -0.532595
O38   O     O_R   0.713990 0.210040 0.667000 -0.532595
O39   O     O_R   0.286010 0.210040 0.333000 -0.532595
O40   O     O_R   0.235920 0.960520 0.674260 -0.511259
O41   O     O_R   0.764080 0.960520 0.325740 -0.511258
O42   O     O_R   0.735920 0.460520 0.674260 -0.511259
O43   O     O_R   0.264080 0.460520 0.325740 -0.511258
O44   O     O_R   0.331960 0.078120 0.669410 -0.533639
O45   O     O_R   0.446360 0.919990 0.675230 -0.506802
O46   O     O_R   0.668040 0.078120 0.330590 -0.533638
O47   O     O_R   0.831960 0.578120 0.669410 -0.533639
O48   O     O_R   0.168040 0.578120 0.330590 -0.533638
O49   O     O_R   0.553640 0.919990 0.324770 -0.506801
O50   O     O_R   0.946360 0.419990 0.675230 -0.506801
O51   O     O_R   0.053640 0.419990 0.324770 -0.506801
O52   O     O_R   0.457170 0.717300 0.668380 -0.531100

loop_
_geom_bond_atom_site_label_1
_geom_bond_atom_site_label_2
_ccdc_geom_bond_type
C31   H29   S    
Cr12  O27   S    
C46   C112  S    
C111  O12   A    
C34   C42   S    
Cr7   O17   S    
Cr8   O22   S    
Cr2   O32   S    
C14   C21   S    
Cr3   O29   S    
C90   C107  S    
Cr2   O2    S    
Cr3   O7    S    
C9    O37   A    
C53   H47   S    
C99   N4    S    
C11   O39   A    
Cr11  O21   S    
C54   H44   S    
C5    C74   S    
C36   C53   S    
C91   H109  S    
C89   C106  S    
H38   N2    S    
C62   O24   A    
C89   H111  S    
C91   C100  S    
C85   C103  S    
Cr4   O13   S    
Cr12  O9    S    
C59   C60   S    
C81   H97   S    
Cr11  O48   S    
H40   N3    S    
C1    O14   A    
C26   H17   S    
C7    O51   A    
Cr11  O13   S    
C19   C99   S    
C93   H122  S    
C17   C21   S    
C120  O42   A    
C19   C23   S    
C116  H132  S    
Cr5   O12   S    
C36   C40   S    
C16   C20   S    
Cr6   O11   S    
C13   H10   S    
C51   H58   S    
C83   H103  S    
C17   H1    S    
C85   H101  S    
C9    O6    A    
Cr5   O37   S    
C11   O8    A    
Cr6   O42   S    
C55   O17   A    
C79   H90   S    
C104  C117  S    
Cr12  O52   S    
C66   C77   S    
C112  O23   A    
C67   H86   S    
C20   H71   S    
C95   H120  S    
C45   C111  S    
C48   H32   S    
C58   H61   S    
C107  H6    S    
C103  C116  S    
C114  H130  S    
C79   C96   S    
Cr8   O44   S    
H36   N1    S    
C80   H91   S    
C49   H56   S    
Cr1   O40   S    
Cr1   O14   S    
C84   H100  S    
C35   H82   S    
C88   C99   S    
C87   H134  S    
C2    C40   S    
C71   H73   S    
Cr10  O47   S    
C61   O22   A    
C81   C98   S    
C115  H127  S    
Cr10  O50   S    
Cr7   O43   S    
Cr5   O15   S    
C36   H93   S    
Cr6   O16   S    
C21   C66   S    
C50   H30   S    
C69   H88   S    
C84   C102  S    
Cr7   O13   S    
C84   H105  S    
C86   C104  S    
C8    O5    A    
Cr4   O8    S    
C72   H76   S    
C95   C117  S    
C82   H94   S    
C28   C46   S    
C34   C51   S    
C29   C47   S    
C30   C48   S    
C12   H77   S    
C43   C52   S    
C6    C78   S    
C24   H11   S    
C12   C22   S    
C92   C96   S    
C85   H106  S    
C50   H57   S    
C33   O15   A    
Cr12  O31   S    
C32   C41   S    
Cr11  O26   S    
C10   O7    A    
C34   H27   S    
C27   H22   S    
Cr8   O18   S    
C45   C53   S    
H37   N2    S    
Cr1   O9    S    
Cr2   O6    S    
Cr3   O3    S    
Cr1   O1    S    
C10   O38   A    
C30   H53   S    
Cr4   O30   S    
C7    O4    A    
C65   H87   S    
C112  O33   A    
C106  H5    S    
H42   N4    S    
C18   H49   S    
Cr7   O34   S    
C65   C74   S    
C25   C64   S    
C3    O43   A    
C69   C72   S    
Cr9   O49   S    
C70   C74   S    
Cr10  O11   S    
C67   H69   S    
C88   N3    S    
C87   C105  S    
C113  O34   A    
C2    C27   S    
C16   C23   S    
C23   C88   S    
H34   N1    S    
C67   C75   S    
C13   H15   S    
C93   C97   S    
C93   H118  S    
C53   H43   S    
C81   H92   S    
C118  O44   A    
C83   C101  S    
C18   C22   S    
C36   H2    S    
C108  H7    S    
C103  C107  S    
C7    C76   S    
C18   C66   S    
C67   C70   S    
C94   H123  S    
C92   H121  S    
C57   C58   S    
C83   H99   S    
C71   H83   S    
C30   C39   S    
C37   C41   S    
Cr9   O10   S    
C114  H125  S    
C109  O1    A    
Cr6   O38   S    
C55   O21   A    
C40   C44   S    
C38   C56   S    
C28   H19   S    
C5    O49   A    
C26   H21   S    
C43   C109  S    
C59   C76   S    
C117  H133  S    
C60   H63   S    
C47   C56   S    
C58   H65   S    
C61   O27   A    
C118  O40   A    
C24   C42   S    
C32   H51   S    
C80   C84   S    
C13   C41   S    
C15   C19   S    
C86   H102  S    
C10   C103  S    
C57   H59   S    
C52   H35   S    
C80   C97   S    
C20   C25   S    
C94   C98   S    
C59   H66   S    
C111  O32   A    
C31   C40   S    
C120  O47   A    
C24   C29   S    
C4    C75   S    
C102  C115  S    
H39   N3    S    
C25   C99   S    
C39   C55   S    
C9    C102  S    
C12   C17   S    
C28   H23   S    
C13   C28   S    
C51   H31   S    
C11   C104  S    
C8    C101  S    
C21   C61   S    
C117  H129  S    
C27   C45   S    
C23   C63   S    
C73   H75   S    
C101  C114  S    
C35   H126  S    
C31   C49   S    
C63   O25   A    
C57   H64   S    
C64   O30   A    
C6    O50   A    
C48   H55   S    
C94   C116  S    
C95   C100  S    
C87   H110  S    
C29   H25   S    
C82   C86   S    
C68   H70   S    
C108  H113  S    
C89   H135  S    
C90   H136  S    
C49   H33   S    
C65   H68   S    
C45   C49   S    
C60   C78   S    
C46   C54   S    
C17   C77   S    
C86   H107  S    
C3    O48   A    
C80   H96   S    
C110  H12   S    
Cr2   O10   S    
C72   H84   S    
C107  H112  S    
C100  C118  S    
C104  C108  S    
Cr6   O23   S    
C47   C113  S    
C70   H81   S    
C91   C108  S    
C22   C77   S    
C47   C51   S    
C8    O36   A    
C119  O46   A    
C33   C41   S    
C66   N1    S    
C79   C83   S    
C20   C88   S    
C1    O18   A    
Cr2   O28   S    
C52   H46   S    
C15   C25   S    
C1    C42   S    
C91   H3    S    
Cr10  O20   S    
C35   C52   S    
C5    O2    A    
C106  H116  S    
C4    O45   A    
Cr11  O51   S    
C109  O31   A    
C62   O28   A    
C14   C18   S    
C35   C39   S    
C68   H89   S    
C38   H24   S    
C72   C76   S    
C94   H119  S    
C98   C119  S    
C92   H117  S    
C30   H28   S    
Cr12  O5    S    
C38   C42   S    
C15   C16   S    
C93   C115  S    
C2    H14   S    
C15   H79   S    
C60   H67   S    
C39   C110  S    
C73   C78   S    
C119  O41   A    
C34   H52   S    
C3    C96   S    
C43   C48   S    
C26   C110  S    
C116  H128  S    
C19   H60   S    
C69   C78   S    
Cr8   O9    S    
C79   H95   S    
C33   O19   A    
C58   C75   S    
C32   H26   S    
C56   H45   S    
C59   H62   S    
C101  C105  S    
C44   O16   A    
C14   H78   S    
Cr10  O25   S    
C16   H80   S    
Cr5   O41   S    
C24   H16   S    
Cr9   O24   S    
C68   C73   S    
C65   C71   S    
C89   C97   S    
C57   C74   S    
C22   C62   S    
C87   C96   S    
C73   H85   S    
C68   C76   S    
C6    O3    A    
C32   C50   S    
C115  H131  S    
C69   H72   S    
C105  H4    S    
C37   C54   S    
C26   C43   S    
C12   C14   S    
C63   O29   A    
Cr1   O36   S    
C64   O26   A    
C37   H104  S    
C44   O20   A    
C82   C100  S    
H41   N4    S    
C82   H98   S    
C70   H74   S    
Cr7   O39   S    
C46   C50   S    
C90   H108  S    
Cr3   O33   S    
C97   C120  S    
C110  H8    S    
Cr3   O11   S    
Cr9   O46   S    
C29   H20   S    
C71   C75   S    
Cr4   O4    S    
C56   H50   S    
C38   H115  S    
C95   H124  S    
C31   H54   S    
C113  O35   A    
C54   H48   S    
C102  C106  S    
C81   C85   S    
C105  H114  S    
Cr5   O10   S    
Cr9   O19   S    
Cr8   O45   S    
C4    O52   A    
C2    H9    S    
C77   N2    S    
Cr4   O35   S    
C37   H13   S    
C92   C114  S    
C90   C98   S    
C27   H18   S    
