data_mof_unit_65730.cif
_audit_creation_date              2012-12-10T17:26:37-0500
_audit_creation_method            fapswitch 2.2
_symmetry_space_group_name_H-M    P1
_symmetry_Int_Tables_number       1
_space_group_crystal_system       monoclinic
_cell_length_a                    42.549111
_cell_length_b                    29.422127
_cell_length_c                    30.740367
_cell_angle_alpha                 90.0
_cell_angle_beta                  136.249177
_cell_angle_gamma                 90.0
_cell_volume                      26612.1832261

loop_
_atom_site_label
_atom_site_type_symbol
_atom_type_description
_atom_site_fract_x
_atom_site_fract_y
_atom_site_fract_z
_atom_type_partial_charge
C1    C     C_R   0.585494 0.500000 0.585945 0.824159
C2    C     C_R   0.085494 0.000000 0.585945 0.824159
C3    C     C_3   0.449630 0.500053 0.171468 1.121241
C4    C     C_3   0.949630 0.000053 0.171468 1.121241
C5    C     C_3   0.449945 0.500052 0.222041 -0.431324
C6    C     C_3   0.949945 0.000052 0.222041 -0.431324
C7    C     C_1   0.499716 0.500001 0.158025 0.010589
C8    C     C_1   0.999716 0.000001 0.158025 0.010589
C9    C     C_1   0.499734 0.500000 0.335032 -0.060756
C10   C     C_1   0.999734 0.000000 0.335032 -0.060756
C11   C     C_1   0.499891 0.500000 0.373540 -0.184743
C12   C     C_1   0.999891 0.000000 0.373540 -0.184743
C13   C     C_1   0.636539 0.500000 0.636906 -0.203093
C14   C     C_1   0.136539 0.000000 0.636906 -0.203093
C15   C     C_1   0.678860 0.500000 0.679158 0.005639
C16   C     C_1   0.178860 0.000000 0.679158 0.005639
C17   C     C_1   0.729024 0.500000 0.729241 0.007589
C18   C     C_1   0.229024 0.000000 0.729241 0.007589
C19   C     C_1   0.771344 0.500000 0.771498 0.007661
C20   C     C_1   0.271344 0.000000 0.771498 0.007661
C21   C     C_1   0.821507 0.500000 0.821593 0.006843
C22   C     C_1   0.321508 0.000000 0.821593 0.006843
C23   C     C_R   0.500033 0.500000 0.418841 0.864288
C24   C     C_R   0.000033 0.000000 0.418841 0.864288
C25   C     C_1   0.863828 0.500000 0.863869 -0.195457
C26   C     C_1   0.363829 0.000000 0.863869 -0.195457
C27   C     C_1   0.499986 0.500000 0.635291 -0.200639
C28   C     C_1   0.999986 0.000000 0.635291 -0.200639
C29   C     C_1   0.499998 0.500000 0.676685 0.015925
C30   C     C_1   0.999998 0.000000 0.676685 0.015925
C31   C     C_1   0.500012 0.500000 0.726123 0.005439
C32   C     C_1   0.000012 0.000000 0.726123 0.005439
C33   C     C_1   0.500023 0.500000 0.767518 0.005398
C34   C     C_1   0.000023 0.000000 0.767518 0.005398
C35   C     C_1   0.500035 0.500000 0.816954 0.015590
C36   C     C_1   0.000036 0.000000 0.816954 0.015590
C37   C     C_1   0.500041 0.500000 0.858343 -0.199005
C38   C     C_1   0.000041 0.000000 0.858343 -0.199005
C39   C     C_1   0.363416 0.500000 0.363767 -0.200603
C40   C     C_1   0.863415 0.000000 0.363767 -0.200603
C41   C     C_1   0.321096 0.500000 0.321377 0.008351
C42   C     C_1   0.821096 0.000000 0.321377 0.008351
C43   C     C_1   0.270936 0.500000 0.271137 0.009951
C44   C     C_1   0.770936 0.000000 0.271137 0.009951
C45   C     C_R   0.414458 0.500000 0.414897 0.826190
C46   C     C_R   0.914458 0.000000 0.414897 0.826191
C47   C     C_1   0.228617 0.500000 0.228755 0.009423
C48   C     C_1   0.728617 0.000000 0.228755 0.009423
C49   C     C_1   0.178456 0.500000 0.178529 0.007990
C50   C     C_1   0.678456 0.000000 0.178529 0.007990
C51   C     C_1   0.136137 0.500000 0.136169 -0.194783
C52   C     C_1   0.636137 0.000000 0.136169 -0.194783
C53   C     C_R   0.500033 0.585446 0.994562 0.824532
C54   C     C_R   0.500033 0.414554 0.994562 0.824516
C55   C     C_R   0.000033 0.085446 0.994562 0.824532
C56   C     C_R   0.000033 0.914554 0.994562 0.824516
C57   C     C_R   0.500008 0.500000 0.074810 0.860160
C58   C     C_R   0.000008 0.000000 0.074810 0.860160
C59   C     C_R   0.500035 0.500000 0.908674 0.808411
C60   C     C_R   0.000036 0.000000 0.908674 0.808411
C61   C     C_R   0.000015 0.414863 0.999130 0.815339
C62   C     C_R   0.000015 0.585137 0.999130 0.815340
C63   C     C_R   0.500015 0.914863 0.999130 0.815339
C64   C     C_R   0.500015 0.085137 0.999130 0.815340
C65   C     C_R   0.914874 0.500000 0.914890 0.815528
C66   C     C_R   0.414874 0.000000 0.914890 0.815528
C67   C     C_R   0.085095 0.500000 0.085114 0.815523
C68   C     C_R   0.585095 0.000000 0.085114 0.815523
C69   C     C_1   0.500047 0.636497 0.995397 -0.197682
C70   C     C_1   0.500047 0.363503 0.995397 -0.197697
C71   C     C_1   0.000047 0.136497 0.995397 -0.197682
C72   C     C_1   0.000047 0.863503 0.995397 -0.197697
C73   C     C_R   0.499975 0.500000 0.584943 0.811531
C74   C     C_R   0.999975 0.000000 0.584943 0.811531
C75   C     C_1   0.500049 0.678820 0.996120 0.009242
C76   C     C_1   0.500049 0.321180 0.996120 0.009230
C77   C     C_1   0.000049 0.178820 0.996120 0.009242
C78   C     C_1   0.000049 0.821180 0.996120 0.009230
C79   C     C_1   0.500045 0.728987 0.996977 0.009932
C80   C     C_1   0.500045 0.271013 0.996977 0.009923
C81   C     C_1   0.000045 0.228987 0.996977 0.009932
C82   C     C_1   0.000045 0.771013 0.996977 0.009923
C83   C     C_1   0.000040 0.271310 0.997674 0.009154
C84   C     C_1   0.000040 0.728690 0.997674 0.009148
C85   C     C_1   0.500040 0.771310 0.997674 0.009154
C86   C     C_1   0.500040 0.228690 0.997674 0.009148
C87   C     C_1   0.000033 0.321480 0.998423 0.007715
C88   C     C_1   0.000033 0.678520 0.998423 0.007711
C89   C     C_1   0.500033 0.821480 0.998423 0.007715
C90   C     C_1   0.500033 0.178520 0.998423 0.007711
C91   C     C_1   0.000026 0.363806 0.998907 -0.195015
C92   C     C_1   0.000026 0.636194 0.998907 -0.195017
C93   C     C_1   0.500026 0.863806 0.998907 -0.195015
C94   C     C_1   0.500026 0.136194 0.998907 -0.195017
C95   C     C_3   0.524280 0.542880 0.296139 -0.388857
C96   C     C_3   0.524190 0.457069 0.296049 -0.388851
C97   C     C_3   0.024280 0.042880 0.296139 -0.388857
C98   C     C_3   0.024190 0.957069 0.296049 -0.388851
C99   C     C_3   0.524321 0.457170 0.246067 -0.456086
C100  C     C_3   0.524410 0.542780 0.246156 -0.456080
C101  C     C_3   0.024321 0.957170 0.246067 -0.456086
C102  C     C_3   0.024410 0.042780 0.246156 -0.456080
C103  C     C_1   0.499935 0.500000 0.119895 -0.148033
C104  C     C_1   0.999936 0.000000 0.119895 -0.148033
C105  C     C_3   0.499544 0.500001 0.288407 0.189455
C106  C     C_3   0.999544 0.000000 0.288407 0.189455
C107  C     C_3   0.499365 0.500001 0.204139 0.150100
C108  C     C_3   0.999365 0.000001 0.204139 0.150100
Cu1   Cu    Cu3+1 0.499970 0.542470 0.500570 0.967020
Cu2   Cu    Cu3+1 0.499970 0.457530 0.500570 0.967013
Cu3   Cu    Cu3+1 0.999970 0.042470 0.500570 0.967019
Cu4   Cu    Cu3+1 0.999970 0.957530 0.500570 0.967013
Cu5   Cu    Cu3+1 0.542500 0.500000 0.035600 0.963483
Cu6   Cu    Cu3+1 0.042500 0.000000 0.035600 0.963483
Cu7   Cu    Cu3+1 0.457550 0.500000 0.950640 0.994324
Cu8   Cu    Cu3+1 0.957550 0.000000 0.950640 0.994324
Cu9   Cu    Cu3+1 0.999990 0.500000 0.958110 0.971555
Cu10  Cu    Cu3+1 0.499990 0.000000 0.958110 0.971555
Cu11  Cu    Cu3+1 0.999980 0.500000 0.041890 0.967577
Cu12  Cu    Cu3+1 0.499980 0.000000 0.041890 0.967577
H1    H     H_    0.560120 0.543145 0.269866 0.185592
H2    H     H_    0.560030 0.456730 0.269776 0.185589
H3    H     H_    0.060120 0.043145 0.269866 0.185592
H4    H     H_    0.060030 0.956730 0.269776 0.185589
H5    H     H_    0.559905 0.543660 0.343958 0.183972
H6    H     H_    0.559814 0.456215 0.343867 0.183974
H7    H     H_    0.059905 0.043660 0.343958 0.183972
H8    H     H_    0.059814 0.956215 0.343867 0.183974
H9    H     H_    0.507500 0.425789 0.216996 0.215083
H10   H     H_    0.507655 0.574195 0.217151 0.215083
H11   H     H_    0.007500 0.925789 0.216996 0.215083
H12   H     H_    0.007655 0.074195 0.217151 0.215083
O1    O     O_R   0.561950 0.535860 0.562460 -0.561140
O2    O     O_R   0.561950 0.464140 0.562460 -0.561141
O3    O     O_R   0.061950 0.035860 0.562460 -0.561140
O4    O     O_R   0.061950 0.964140 0.562460 -0.561141
O5    O     O_R   0.464160 0.500000 0.896130 -0.559043
O6    O     O_R   0.964160 0.000000 0.896130 -0.559043
O7    O     O_R   0.000010 0.438010 0.963800 -0.557243
O8    O     O_R   0.000010 0.561990 0.963800 -0.557242
O9    O     O_R   0.500010 0.938010 0.963800 -0.557243
O10   O     O_R   0.500010 0.061990 0.963800 -0.557242
O11   O     O_R   0.000000 0.438000 0.034540 -0.558189
O12   O     O_R   0.000000 0.562000 0.034540 -0.558192
O13   O     O_R   0.500000 0.938000 0.034540 -0.558189
O14   O     O_R   0.500000 0.062000 0.034540 -0.558192
O15   O     O_R   0.938010 0.500000 0.902650 -0.557903
O16   O     O_R   0.438010 0.000000 0.902650 -0.557903
O17   O     O_R   0.938010 0.500000 0.973390 -0.557894
O18   O     O_R   0.438010 0.000000 0.973390 -0.557894
O19   O     O_R   0.061960 0.500000 0.026610 -0.556271
O20   O     O_R   0.561960 1.000000 0.026610 -0.556271
O21   O     O_R   0.061960 0.500000 0.097350 -0.558867
O22   O     O_R   0.561960 0.000000 0.097350 -0.558867
O23   O     O_R   0.499980 0.535870 0.439370 -0.575798
O24   O     O_R   0.499980 0.464130 0.439370 -0.575803
O25   O     O_R   0.999980 0.035870 0.439370 -0.575798
O26   O     O_R   0.999980 0.964130 0.439370 -0.575803
O27   O     O_R   0.438000 0.535860 0.438500 -0.560577
O28   O     O_R   0.438000 0.464140 0.438500 -0.560580
O29   O     O_R   0.938000 0.035860 0.438500 -0.560577
O30   O     O_R   0.938000 0.964140 0.438500 -0.560579
O31   O     O_R   0.499970 0.535850 0.561590 -0.556968
O32   O     O_R   0.499970 0.464150 0.561590 -0.556968
O33   O     O_R   0.999970 0.035850 0.561590 -0.556968
O34   O     O_R   0.999970 0.964150 0.561590 -0.556968
O35   O     O_R   0.535890 0.561890 0.029840 -0.563190
O36   O     O_R   0.535890 0.438110 0.029840 -0.563189
O37   O     O_R   0.035890 0.061890 0.029840 -0.563190
O38   O     O_R   0.035890 0.938110 0.029840 -0.563189
O39   O     O_R   0.464160 0.561920 0.958100 -0.557045
O40   O     O_R   0.464160 0.438080 0.958100 -0.557052
O41   O     O_R   0.964160 0.061920 0.958100 -0.557045
O42   O     O_R   0.964160 0.938080 0.958100 -0.557052
O43   O     O_R   0.535890 0.500000 0.090110 -0.585637
O44   O     O_R   0.035890 0.000000 0.090110 -0.585637
O45   O     O_R   0.464150 0.500000 0.018360 -0.552423
O46   O     O_R   0.964150 0.000000 0.018360 -0.552423
O47   O     O_R   0.535900 0.500000 0.967880 -0.559004
O48   O     O_R   0.035900 0.000000 0.967880 -0.559004
H13   H     H_    0.506824 0.425880 0.290711 0.187611
H14   H     H_    0.506978 0.574106 0.290867 0.187612
H15   H     H_    0.006824 0.925880 0.290711 0.187611
H16   H     H_    0.006979 0.074106 0.290867 0.187612
H17   H     H_    0.431659 0.530518 0.216236 0.179369
H18   H     H_    0.431596 0.469625 0.216173 0.179365
H19   H     H_    0.931659 0.030518 0.216236 0.179369
H20   H     H_    0.931596 0.969625 0.216173 0.179365
F1    F     F_    0.426787 0.538258 0.133707 -0.663955
F2    F     F_    0.426708 0.461895 0.133627 -0.663950
F3    F     F_    0.926788 0.038258 0.133707 -0.663955
F4    F     F_    0.926708 0.961895 0.133627 -0.663950

loop_
_geom_bond_atom_site_label_1
_geom_bond_atom_site_label_2
_ccdc_geom_bond_type
Cu11  O17   S    
Cu6   O37   S    
C83   C87   S    
C96   C105  S    
Cu12  O14   S    
C87   C91   T    
C27   C29   T    
Cu11  O11   S    
C4    F4    S    
Cu3   Cu4   S    
Cu3   O29   S    
C5    H17   S    
C96   H13   S    
C97   H7    S    
Cu10  O9    S    
C28   C74   S    
Cu5   O36   S    
C39   C41   T    
C5    C105  S    
C40   C46   S    
C4    C108  S    
C75   C79   S    
Cu4   O26   S    
Cu8   O41   S    
C35   C37   T    
C102  H12   S    
C66   O18   A    
C73   O32   A    
Cu8   O46   S    
Cu9   Cu11  S    
C100  H10   S    
C59   O5    A    
C9    C105  S    
C96   C99   S    
C6    H20   S    
C18   C20   T    
Cu6   O38   S    
C100  H1    S    
C11   C23   S    
C98   H15   S    
C95   H5    S    
C55   O41   A    
C80   C86   T    
C95   C105  S    
C33   C35   S    
C57   O43   A    
C61   O11   A    
C88   C92   T    
C56   C72   S    
C46   O29   A    
C62   C92   S    
C72   C78   T    
C57   O45   A    
C31   C33   T    
C102  C108  S    
Cu3   O33   S    
C14   C16   T    
C65   O15   A    
C66   O16   A    
C97   C102  S    
C52   C68   S    
C39   C45   S    
C64   O14   A    
C37   C59   S    
C101  C108  S    
C98   H8    S    
C53   C69   S    
Cu12  O13   S    
Cu11  O21   S    
C7    C103  T    
C23   O24   A    
C89   C93   T    
Cu11  O12   S    
C41   C43   S    
C4    F3    S    
Cu9   O7    S    
C45   O28   A    
C42   C44   S    
C5    H18   S    
Cu4   O4    S    
C1    O1    A    
C8    C108  S    
C81   C83   T    
C53   O35   A    
C90   C94   T    
Cu8   O6    S    
C63   O9    A    
C57   C103  S    
C101  H4    S    
C99   H9    S    
Cu1   O1    S    
C26   C66   S    
Cu7   O5    S    
C25   C65   S    
C74   O34   A    
Cu7   O39   S    
C86   C90   S    
C3    F2    S    
C54   O36   A    
Cu2   O32   S    
C24   O25   A    
C61   O7    A    
C49   C51   T    
C67   O19   A    
C6    H19   S    
C58   O46   A    
C2    O4    A    
C99   C107  S    
C56   O42   A    
C32   C34   T    
C68   O20   A    
C54   O40   A    
C8    C104  T    
C78   C82   S    
C50   C52   T    
C54   C70   S    
C77   C81   S    
C29   C31   S    
Cu4   O34   S    
Cu12  O22   S    
C6    C106  S    
C96   H6    S    
Cu9   O15   S    
Cu9   O19   S    
C51   C67   S    
Cu10  O20   S    
C9    C11   T    
Cu7   O45   S    
C10   C12   T    
C99   H2    S    
C38   C60   S    
C97   C106  S    
C101  H11   S    
C4    C6    S    
Cu5   O47   S    
C20   C22   S    
Cu6   O48   S    
C3    F1    S    
C13   C15   T    
C70   C76   T    
C7    C107  S    
Cu2   O2    S    
Cu9   O8    S    
C1    C13   S    
C23   O23   A    
C102  H3    S    
Cu1   O27   S    
C3    C5    S    
C71   C77   T    
Cu2   O28   S    
C97   H16   S    
C15   C17   S    
C21   C25   T    
C100  C107  S    
C85   C89   S    
C56   O38   A    
C95   C100  S    
Cu12  O18   S    
C58   O44   A    
C60   O48   A    
C76   C80   S    
C62   O12   A    
C40   C42   T    
Cu10  O10   S    
Cu5   O35   S    
Cu6   Cu8   S    
C95   H14   S    
Cu8   O42   S    
C47   C49   S    
C98   C101  S    
Cu4   O30   S    
C12   C24   S    
C68   O22   A    
C82   C84   T    
C2    O3    A    
C98   C106  S    
Cu5   O43   S    
C67   O21   A    
Cu1   O23   S    
C3    C107  S    
C45   O27   A    
C59   O47   A    
Cu3   O25   S    
C64   C94   S    
C28   C30   T    
C73   O31   A    
C44   C48   T    
Cu1   Cu2   S    
C36   C38   T    
C30   C32   S    
Cu6   O44   S    
Cu5   Cu7   S    
Cu3   O3    S    
C84   C88   S    
C64   O10   A    
C48   C50   S    
C17   C19   T    
C79   C85   T    
C63   O13   A    
C69   C75   T    
Cu1   O31   S    
C24   O26   A    
C65   O17   A    
C2    C14   S    
Cu10  Cu12  S    
Cu2   O24   S    
C53   O39   A    
C22   C26   T    
Cu10  O16   S    
C61   C91   S    
Cu7   O40   S    
C58   C104  S    
C34   C36   S    
C16   C18   S    
C46   O30   A    
C10   C106  S    
C62   O8    A    
C63   C93   S    
C27   C73   S    
C43   C47   T    
C55   O37   A    
C74   O33   A    
C55   C71   S    
C1    O2    A    
C60   O6    A    
C19   C21   S    
