data_mof_unit_48176.cif
_audit_creation_date              2012-12-11T15:29:28-0500
_audit_creation_method            fapswitch 2.2
_symmetry_space_group_name_H-M    P1
_symmetry_Int_Tables_number       1
_space_group_crystal_system       triclinic
_cell_length_a                    8.276437
_cell_length_b                    15.044967
_cell_length_c                    18.922114
_cell_angle_alpha                 96.036766
_cell_angle_beta                  94.36051
_cell_angle_gamma                 97.952604
_cell_volume                      2310.72240738

loop_
_atom_site_label
_atom_site_type_symbol
_atom_type_description
_atom_site_fract_x
_atom_site_fract_y
_atom_site_fract_z
_atom_type_partial_charge
Ba1   Ba    Ba6+2 0.161760 0.544680 0.467770 1.670039
Ba2   Ba    Ba6+2 0.648420 0.455310 0.532170 1.666977
C1    C     C_3   0.365519 0.708813 0.231079 -0.232028
C2    C     C_3   0.475599 0.781869 0.281632 0.528999
C3    C     C_3   0.573926 0.730997 0.648501 0.306401
C4    C     C_3   0.645810 0.826195 0.681373 -0.410907
C5    C     C_3   0.852600 0.203611 0.678514 0.422973
C6    C     C_3   0.848356 0.111129 0.704461 -0.391796
C7    C     C_3   0.303962 0.200278 0.707370 0.310720
C8    C     C_3   0.353114 0.185902 0.783795 -0.333774
C9    C     C_R   0.174316 0.167734 0.537420 -0.019027
C10   C     C_R   0.105143 0.075037 0.533201 -0.105618
C11   C     C_R   0.957873 0.891503 0.531399 -0.074285
C12   C     C_3   0.971742 0.793703 0.317123 0.367898
C13   C     C_R   0.109965 0.925786 0.570947 0.213843
C14   C     C_R   0.194093 0.010109 0.559343 0.156574
C15   C     C_R   0.889805 0.797576 0.522929 0.060721
C16   C     C_R   0.736034 0.770138 0.485577 -0.307363
C17   C     C_R   0.923560 0.203074 0.476835 0.036172
C18   C     C_R   0.855342 0.109736 0.469569 -0.007855
C19   C     C_R   0.943120 0.046583 0.501187 0.005148
C20   C     C_R   0.703950 0.076944 0.430415 -0.035701
C21   C     C_R   0.636209 0.986004 0.425492 -0.094330
C22   C     C_R   0.716283 0.923413 0.459425 0.032319
C23   C     C_3   0.009478 0.887498 0.293206 0.149367
C24   C     C_R   0.872930 0.953538 0.496838 0.022218
C25   C     C_R   0.645974 0.831371 0.456171 -0.021347
C26   C     C_R   0.080762 0.229807 0.511115 -0.255705
C27   C     C_R   0.614168 0.539695 0.299629 -0.266613
C28   C     C_R   0.463929 0.486888 0.275296 -0.017834
C29   C     C_R   0.411339 0.475080 0.202338 -0.106538
C30   C     C_R   0.513660 0.511044 0.152963 0.064801
C31   C     C_R   0.669076 0.559797 0.177929 -0.125724
C32   C     C_R   0.719955 0.572672 0.251188 0.047930
C33   C     C_R   0.455741 0.572394 0.038047 -0.235369
C34   C     C_3   0.768053 0.358816 0.318524 0.318798
C35   C     C_R   0.395755 0.562657 0.965679 0.347388
C36   C     C_R   0.343436 0.475505 0.929158 -0.008080
C37   C     C_R   0.349653 0.398920 0.965689 0.257596
C38   C     C_R   0.402253 0.409903 0.039945 0.329185
C39   C     C_R   0.458368 0.497112 0.075504 -0.014330
C40   C     C_R   0.133945 0.419577 0.824091 -0.052376
C41   C     C_R   0.082055 0.416979 0.751310 -0.015842
C42   C     C_R   0.343393 0.501551 0.732252 0.049499
C43   C     C_R   0.395336 0.505061 0.804571 -0.022839
C44   C     C_R   0.291194 0.464498 0.851303 0.140589
C45   C     C_3   0.749274 0.346793 0.236317 0.079619
C46   C     C_R   0.189556 0.455104 0.705537 -0.245880
C47   C     C_3   0.041811 0.652327 0.687811 0.294007
C48   C     C_3   0.072454 0.682760 0.768520 0.383404
C49   C     C_3   0.247010 0.250045 0.282004 0.652010
C50   C     C_3   0.392122 0.226516 0.241586 -0.390488
H1    H     H_    0.577963 0.750261 0.304666 -0.082081
H2    H     H_    0.633407 0.367555 0.217467 0.045824
H3    H     H_    0.747003 0.274888 0.214865 0.089067
H4    H     H_    0.151304 0.627071 0.668149 -0.030468
H5    H     H_    0.934944 0.598191 0.676802 0.042516
H6    H     H_    0.192410 0.727819 0.777828 0.107326
H7    H     H_    0.315347 0.655209 0.262411 0.131201
H8    H     H_    0.417661 0.274371 0.202256 0.120091
H9    H     H_    0.363669 0.158009 0.211265 0.086166
H10   H     H_    0.500528 0.226187 0.279487 0.108257
H11   H     H_    0.435844 0.677596 0.190447 0.023497
H12   H     H_    0.676631 0.696984 0.630218 0.031694
H13   H     H_    0.486050 0.734849 0.601888 0.034018
H14   H     H_    0.734206 0.823824 0.727864 0.150927
H15   H     H_    0.711296 0.862890 0.641651 0.050299
H16   H     H_    0.546944 0.863252 0.699821 0.103825
H17   H     H_    0.264958 0.737487 0.203575 0.139070
H18   H     H_    0.767463 0.197422 0.629517 0.085681
H19   H     H_    0.978771 0.226167 0.664889 -0.140424
H20   H     H_    0.881090 0.062407 0.661586 0.046679
H21   H     H_    0.937511 0.115144 0.752012 0.109680
H22   H     H_    0.723894 0.086745 0.719090 0.131105
H23   H     H_    0.195728 0.149623 0.686972 -0.021943
H24   H     H_    0.272987 0.269925 0.707341 -0.006936
H25   H     H_    0.246420 0.188812 0.815671 0.111920
H26   H     H_    0.454938 0.239310 0.807286 0.162053
H27   H     H_    0.053814 0.790297 0.365692 0.086397
H28   H     H_    0.393793 0.118772 0.785409 0.098223
H29   H     H_    0.519068 0.965775 0.394897 0.077979
H30   H     H_    0.636044 0.120769 0.402324 0.084134
H31   H     H_    0.682677 0.699725 0.481353 0.069047
H32   H     H_    0.133359 0.300356 0.515689 0.080450
H33   H     H_    0.514404 0.542049 0.824859 0.078820
H34   H     H_    0.496883 0.639319 0.065857 0.079229
H35   H     H_    0.843172 0.783106 0.330597 -0.032293
H36   H     H_    0.292288 0.436817 0.183977 0.132475
H37   H     H_    0.049768 0.391278 0.859782 0.087352
H38   H     H_    0.751703 0.585110 0.140489 0.073488
H39   H     H_    0.148836 0.454505 0.649745 0.056564
H40   H     H_    0.654337 0.549131 0.356037 0.062535
H41   H     H_    0.143946 0.909649 0.298421 0.100966
H42   H     H_    0.964044 0.885280 0.236081 0.046018
H43   H     H_    0.654213 0.377685 0.338557 -0.050781
H44   H     H_    0.869769 0.414232 0.337477 0.113380
O1    O     O_2   0.165020 0.721890 0.541560 -0.451037
O2    O     O_3   0.303453 0.311912 0.343926 -0.608302
O3    O     O_3   0.996636 0.728696 0.261674 -0.654966
O4    O     O_2   0.645270 0.278050 0.458420 -0.451687
O5    O     O_3   0.917270 0.391510 0.460760 -0.493066
O6    O     O_3   0.421180 0.332490 0.586040 -0.456529
O7    O     O_3   0.795485 0.277363 0.344228 -0.667976
O8    O     O_3   0.383630 0.545490 0.584580 -0.473755
O9    O     O_3   0.845910 0.377930 0.622570 -0.484151
O10   O     O_2   0.746433 0.430699 0.748810 -0.490656
O11   O     O_3   0.803134 0.263623 0.731901 -0.577930
O12   O     O_3   0.893030 0.608480 0.539180 -0.495119
O13   O     O_3   0.426670 0.454500 0.415370 -0.445187
O14   O     O_2   0.638230 0.542350 0.670940 -0.477098
O15   O     O_3   0.492256 0.686348 0.700081 -0.641917
O16   O     O_2   0.516840 0.180935 0.537563 -0.481812
O17   O     O_3   0.434082 0.187788 0.666054 -0.566894
O18   O     O_3   0.389120 0.667500 0.413900 -0.478162
O19   O     O_2   0.310110 0.825291 0.464438 -0.492392
O20   O     O_3   0.012164 0.728075 0.655129 -0.638632
O21   O     O_3   0.378804 0.816231 0.333274 -0.618692
O22   O     O_2   0.172060 0.457600 0.329040 -0.446430
O23   O     O_3   0.964390 0.622060 0.377370 -0.498471
O24   O     O_2   0.051472 0.562364 0.251263 -0.430702
P1    P     P_3+3 0.990700 0.707490 0.561920 1.001120
P2    P     P_3+3 0.340130 0.430100 0.338870 1.018349
P3    P     P_3+3 0.931631 0.620847 0.284939 0.955182
P4    P     P_3+3 0.819590 0.292500 0.438020 0.996402
P5    P     P_3+3 0.869273 0.374150 0.714821 0.971478
P6    P     P_3+3 0.433665 0.785506 0.417662 0.924597
P7    P     P_3+3 0.462417 0.569716 0.673962 0.956821
P8    P     P_3+3 0.382915 0.215469 0.580645 0.989979
O25   O     O_3   0.874911 0.401112 0.208857 -0.726052
H45   H     H_    0.845629 0.396719 0.156614 0.310869
O26   O     O_3   0.082600 0.609029 0.807139 -0.745298
H46   H     H_    0.970240 0.575386 0.805724 0.295116
N1    N     N_2   0.944218 0.732456 0.792791 -0.429736
H47   H     H_    0.827759 0.696227 0.783617 0.194919
C51   C     C_3   0.977705 0.781440 0.863519 -0.209544
H48   H     H_    0.877997 0.821933 0.874359 0.095893
H49   H     H_    0.094947 0.828389 0.867532 0.101375
H50   H     H_    0.984163 0.733569 0.904185 0.148195
N2    N     N_2   0.130186 0.286392 0.235930 -0.415119
H51   H     H_    0.040812 0.307794 0.265000 0.254939
C52   C     C_3   0.062071 0.233748 0.168713 -0.278701
H52   H     H_    0.156427 0.203685 0.139769 0.111323
H53   H     H_    0.963535 0.179312 0.177906 0.092795
H54   H     H_    0.008618 0.278385 0.133312 0.147092
N3    N     N_2   0.165618 0.167744 0.306691 -0.420868
H55   H     H_    0.102694 0.120702 0.267046 0.166391
C53   C     C_3   0.259307 0.125728 0.358488 -0.234969
H56   H     H_    0.175726 0.076349 0.383044 0.137247
H57   H     H_    0.323437 0.176328 0.402038 0.151649
H58   H     H_    0.350275 0.089252 0.331978 0.082416
N4    N     N_2   0.542607 0.855910 0.243777 -0.421971
H59   H     H_    0.606604 0.909477 0.277631 0.211848
C54   C     C_3   0.627751 0.833509 0.181622 -0.296933
H60   H     H_    0.698044 0.895818 0.166267 0.112548
H61   H     H_    0.538170 0.804001 0.135711 0.117284
H62   H     H_    0.713293 0.784910 0.192753 0.110968
O27   O     O_3   0.934899 0.948905 0.335631 -0.773889
H63   H     H_    0.922023 0.000089 0.307696 0.299477
N5    N     N_2   0.163447 0.884344 0.630759 -0.393608
H64   H     H_    0.275048 0.862065 0.629958 0.207119
C55   C     C_3   0.132669 0.927507 0.699398 -0.232904
H65   H     H_    0.172155 0.887848 0.742101 0.121542
H66   H     H_    0.999805 0.930506 0.701131 0.119579
H67   H     H_    0.202063 0.996681 0.709852 0.082588
N6    N     N_2   0.363084 0.018084 0.548354 -0.392832
H68   H     H_    0.385413 0.013090 0.495514 0.200838
C56   C     C_3   0.483189 0.989253 0.596595 -0.161401
H69   H     H_    0.604268 0.028984 0.592067 0.109483
H70   H     H_    0.493077 0.917533 0.580439 0.077339
H71   H     H_    0.453767 0.001284 0.652670 0.107684
O28   O     O_3   0.385705 0.637355 0.929731 -0.704637
H72   H     H_    0.426425 0.692941 0.962748 0.298449
O29   O     O_3   0.309577 0.314725 0.926917 -0.764505
H73   H     H_    0.373580 0.272084 0.948798 0.310006
O30   O     O_3   0.402700 0.337103 0.078605 -0.766473
H74   H     H_    0.314931 0.288337 0.056815 0.303533

loop_
_geom_bond_atom_site_label_1
_geom_bond_atom_site_label_2
_ccdc_geom_bond_type
C51   H50   S    
C19   C24   A    
Ba2   O13   S    
C23   H41   S    
N6    H68   S    
C2    H1    S    
C26   H32   S    
C17   C18   A    
C22   C25   A    
O12   P1    S    
C37   O29   S    
C41   P5    S    
C5    H18   S    
N3    H55   S    
C8    H26   S    
C51   H48   S    
C42   P7    S    
O17   P8    S    
O29   H73   S    
C13   N5    S    
O10   P5    D    
C32   P3    S    
O19   P6    D    
C45   O25   S    
C34   O7    S    
C20   H30   S    
C45   H3    S    
C53   H57   S    
C35   C36   A    
C22   C24   A    
C12   H35   S    
O6    P8    S    
C50   H9    S    
C52   H53   S    
N5    H64   S    
C5    H19   S    
C3    C4    S    
O18   P6    S    
C25   P6    S    
O13   P2    S    
C49   N3    S    
C13   C14   A    
C47   H5    S    
C34   C45   S    
C51   H49   S    
Ba1   Ba2   S    
C40   C44   A    
Ba1   P2    S    
O1    P1    D    
C50   H8    S    
Ba1   O13   S    
O27   H63   S    
Ba2   O14   S    
C53   H56   S    
C46   H39   S    
N4    H59   S    
N5    C55   S    
C7    H24   S    
C54   H61   S    
C7    C8    S    
O24   P3    D    
O14   P7    D    
C1    H17   S    
C49   O2    S    
C4    H16   S    
Ba2   O4    S    
C23   H42   S    
N6    C56   S    
C33   C39   A    
O7    P4    S    
C55   H66   S    
C8    H25   S    
C15   C16   A    
C56   H71   S    
Ba2   P4    S    
C17   P4    S    
C6    H20   S    
O5    P4    S    
C36   C44   S    
O20   P1    S    
N3    C53   S    
C49   C50   S    
C48   H6    S    
C10   C14   A    
C5    C6    S    
C53   H58   S    
O11   P5    S    
C56   H70   S    
C52   H54   S    
Ba1   O1    S    
C37   C38   A    
C8    H28   S    
C3    O15   S    
Ba2   O5    S    
C43   C44   A    
C27   C32   A    
C3    H12   S    
O4    P4    D    
C28   P2    S    
C43   H33   S    
Ba1   O23   S    
C27   C28   A    
C34   H44   S    
O30   H74   S    
Ba1   O8    S    
Ba2   O8    S    
C14   N6    S    
C21   C22   A    
C6    H22   S    
C16   H31   S    
C12   H27   S    
C54   H62   S    
C17   C26   A    
O28   H72   S    
C45   H2    S    
C3    H13   S    
C38   C39   A    
C18   C20   A    
O23   P3    S    
C11   C13   A    
O15   P7    S    
N1    H47   S    
C5    O11   S    
C2    O21   S    
C40   C41   A    
C30   C39   S    
C1    C2    S    
Ba1   O5    S    
C56   H69   S    
C55   H67   S    
C42   C43   A    
O3    P3    S    
O25   H45   S    
C41   C46   A    
C15   P1    S    
O2    P2    S    
C2    N4    S    
C28   C29   A    
C4    H15   S    
C29   H36   S    
C21   H29   S    
C33   C35   A    
C29   C30   A    
C16   C25   A    
C48   N1    S    
C35   O28   S    
C38   O30   S    
N2    H51   S    
C1    H11   S    
C47   H4    S    
Ba2   O9    S    
O9    P5    S    
C40   H37   S    
C7    O17   S    
C30   C31   A    
C9    P8    S    
C50   H10   S    
C52   H52   S    
C23   O27   S    
N2    C52   S    
C34   H43   S    
C12   O3    S    
C36   C37   A    
O8    P7    S    
C55   H65   S    
C9    C26   A    
O22   P2    D    
C10   C19   A    
Ba2   O12   S    
C6    H21   S    
C33   H34   S    
C31   C32   A    
Ba1   O22   S    
N4    C54   S    
C12   C23   S    
O26   H46   S    
C11   C24   A    
Ba1   P1    S    
O16   P8    D    
C48   O26   S    
Ba1   O12   S    
C11   C15   A    
C4    H14   S    
C47   O20   S    
C18   C19   A    
C47   C48   S    
Ba1   O18   S    
N1    C51   S    
Ba2   O6    S    
C20   C21   A    
O21   P6    S    
C7    H23   S    
C54   H60   S    
C31   H38   S    
C27   H40   S    
C42   C46   A    
C9    C10   A    
C49   N2    S    
C1    H7    S    
