data_mof_unit_37600.cif
_audit_creation_date              2012-10-26T19:40:08-0400
_audit_creation_method            fapswitch 2.2
_symmetry_space_group_name_H-M    P1
_symmetry_Int_Tables_number       1
_space_group_crystal_system       triclinic
_cell_length_a                    15.044605
_cell_length_b                    8.676022
_cell_length_c                    7.443295
_cell_angle_alpha                 102.897182
_cell_angle_beta                  94.514369
_cell_angle_gamma                 92.451379
_cell_volume                      942.283286866

loop_
_atom_site_label
_atom_site_type_symbol
_atom_type_description
_atom_site_fract_x
_atom_site_fract_y
_atom_site_fract_z
_atom_type_partial_charge
C1    C     C_R   0.497287 0.199697 0.453259 0.549403
C2    C     C_R   0.178010 0.440993 0.337693 -0.111776
C3    C     C_R   0.768018 0.502661 0.496396 -0.029252
C4    C     C_R   0.231982 0.497339 0.503604 -0.029253
C5    C     C_R   0.806491 0.445980 0.331043 -0.127272
C6    C     C_R   0.193509 0.554020 0.668957 -0.127268
C7    C     C_R   0.899263 0.442958 0.330467 0.023949
C8    C     C_R   0.100737 0.557043 0.669534 0.023953
C9    C     C_R   0.953435 0.500742 0.498630 -0.004181
C10   C     C_R   0.046564 0.499259 0.501371 -0.004182
C11   C     C_R   0.914412 0.559351 0.664458 -0.015529
C12   C     C_R   0.502713 0.800303 0.546740 0.549404
C13   C     C_R   0.085588 0.440650 0.335542 -0.015531
C14   C     C_R   0.938723 0.381097 0.166140 0.261917
C15   C     C_R   0.061277 0.618903 0.833861 0.261918
C16   C     C_3   0.888735 0.163869 0.941493 -0.131951
C17   C     C_3   0.111255 0.836124 0.058530 -0.131953
C18   C     C_R   0.031964 0.383221 0.169577 -0.085222
C19   C     C_R   0.968036 0.616779 0.830423 -0.085224
C20   C     C_2   0.495954 0.031816 0.426884 -0.157289
C21   C     C_2   0.504046 0.968183 0.573116 -0.157289
C22   C     C_R   0.328720 0.498980 0.501679 0.544773
C23   C     C_R   0.671280 0.501020 0.498321 0.544773
C24   C     C_R   0.821990 0.559008 0.662307 -0.111776
Cu1   Cu    Cu3+1 0.510010 0.517380 0.684380 0.956937
Cu2   Cu    Cu3+1 0.489990 0.482620 0.315620 0.956937
H1    H     H_    0.792091 0.603738 0.790204 0.137445
H2    H     H_    0.570029 0.622267 0.051842 0.237502
H3    H     H_    0.839538 0.122120 0.819269 0.149808
H4    H     H_    0.869651 0.102583 0.050626 0.107794
H5    H     H_    0.955516 0.129792 0.897881 0.104508
H6    H     H_    0.130320 0.897427 0.949402 0.107792
H7    H     H_    0.160459 0.877877 0.180739 0.149806
H8    H     H_    0.044477 0.870177 0.102168 0.104518
H9    H     H_    0.207908 0.396262 0.209795 0.137447
H10   H     H_    0.763904 0.401477 0.203973 0.176065
H11   H     H_    0.236096 0.598523 0.796027 0.176068
H12   H     H_    0.062440 0.341038 0.041902 0.128591
H13   H     H_    0.937559 0.658960 0.958098 0.128586
H14   H     H_    0.488307 0.960250 0.285945 0.134067
H15   H     H_    0.511693 0.039750 0.714055 0.134067
H16   H     H_    0.429970 0.377733 0.948158 0.237503
N1    N     N_2   0.474890 0.456420 0.038520 -0.256634
N2    N     N_2   0.525110 0.543580 0.961480 -0.256634
O1    O     O_R   0.506510 0.286130 0.619770 -0.502863
O2    O     O_3   0.113845 0.670291 0.999685 -0.579231
O3    O     O_R   0.493490 0.713870 0.380230 -0.502863
O4    O     O_R   0.489600 0.256770 0.308360 -0.500368
O5    O     O_R   0.510400 0.743230 0.691640 -0.500368
O6    O     O_R   0.378710 0.514640 0.655720 -0.511529
O7    O     O_R   0.621290 0.485360 0.344280 -0.511529
O8    O     O_R   0.361800 0.485290 0.344300 -0.499666
O9    O     O_R   0.638200 0.514710 0.655700 -0.499667
O10   O     O_3   0.886157 0.329708 0.000315 -0.579228

loop_
_geom_bond_atom_site_label_1
_geom_bond_atom_site_label_2
_ccdc_geom_bond_type
C2    H9    S    
C2    C4    A    
N1    N2    D    
C1    O4    A    
Cu2   O8    S    
C4    C22   S    
C9    C10   A    
C14   C18   A    
C23   O7    A    
C24   H1    S    
Cu2   O4    S    
C22   O6    A    
C11   C19   A    
C7    C9    A    
C12   O5    A    
C18   H12   S    
C6    H11   S    
Cu2   O7    S    
C17   O2    S    
C16   H5    S    
C15   C19   A    
C9    C11   A    
C1    O1    A    
C3    C24   A    
C17   H7    S    
C13   C18   A    
C12   O3    A    
C21   H15   S    
C19   H13   S    
Cu1   N2    S    
C4    C6    A    
C14   O10   S    
Cu1   O9    S    
Cu2   N1    S    
C23   O9    A    
C8    C15   A    
C16   O10   S    
C20   H14   S    
Cu1   O5    S    
C17   H8    S    
C16   H4    S    
C5    H10   S    
Cu1   O1    S    
C11   C24   A    
C20   C21   D    
C16   H3    S    
C8    C10   A    
H16   N1    S    
C17   H6    S    
C5    C7    A    
C2    C13   A    
Cu2   O3    S    
Cu1   O6    S    
C1    C20   S    
C6    C8    A    
C15   O2    S    
C22   O8    A    
Cu1   Cu2   S    
C3    C23   S    
C12   C21   S    
H2    N2    S    
C7    C14   A    
C3    C5    A    
C10   C13   A    
