data_mof_unit_20286.cif
_audit_creation_date              2013-03-05T16:36:16-0500
_audit_creation_method            fapswitch 2.2
_symmetry_space_group_name_H-M    P1
_symmetry_Int_Tables_number       1
_space_group_crystal_system       triclinic
_cell_length_a                    27.843433
_cell_length_b                    9.082302
_cell_length_c                    7.778694
_cell_angle_alpha                 89.986909
_cell_angle_beta                  89.58812
_cell_angle_gamma                 90.079369
_cell_volume                      1967.04256083

loop_
_atom_site_label
_atom_site_type_symbol
_atom_site_description
_atom_site_fract_x
_atom_site_fract_y
_atom_site_fract_z
_atom_type_partial_charge
O1    O     O_R   0.500000 0.288390 0.642760 -0.574655
O2    O     O_R   0.500000 0.711610 0.357240 -0.574658
O3    O     O_R   0.500000 0.711610 0.642760 -0.575343
O4    O     O_R   0.500000 0.288390 0.357240 -0.575339
C1    C     C_R   0.499995 0.220012 0.500012 0.853230
C2    C     C_R   0.500004 0.779988 0.499988 0.853220
O5    O     O_R   0.430260 0.500000 0.642770 -0.586313
O6    O     O_R   0.569740 0.500000 0.357230 -0.586328
O7    O     O_R   0.569740 0.500000 0.642770 -0.584897
O8    O     O_R   0.430260 0.500000 0.357230 -0.584886
C3    C     C_R   0.407185 0.500050 0.500699 0.797664
C4    C     C_R   0.592816 0.499957 0.499300 0.797699
Cu1   Cu    Cu3+1 0.500000 0.500000 0.669080 1.009597
Cu2   Cu    Cu3+1 0.500000 0.500000 0.330920 1.009596
C5    C     C_R   0.177965 0.383878 0.576899 0.589739
C6    C     C_R   0.822048 0.616187 0.423165 0.589708
C7    C     C_R   0.178294 0.625830 0.458143 0.550056
C8    C     C_R   0.821719 0.374153 0.541696 0.550051
O9    O     O_2   0.203341 0.266637 0.631712 -0.449739
O10   O     O_2   0.796676 0.733505 0.368549 -0.449770
O11   O     O_2   0.203816 0.738128 0.389803 -0.494183
O12   O     O_2   0.796199 0.261784 0.609885 -0.494243
N1    N     N_R   0.201998 0.503792 0.514466 -0.483812
N2    N     N_R   0.798012 0.496234 0.485498 -0.483759
C9    C     C_R   0.279254 0.510280 0.663958 -0.098735
C10   C     C_R   0.720747 0.490644 0.335986 -0.098611
C11   C     C_R   0.278179 0.493271 0.352863 -0.080818
C12   C     C_R   0.721822 0.505883 0.647164 -0.080680
C13   C     C_R   0.329288 0.509301 0.660716 -0.200856
C14   C     C_R   0.670713 0.491623 0.339237 -0.200925
C15   C     C_R   0.328296 0.492553 0.349230 -0.207032
C16   C     C_R   0.671705 0.506595 0.650802 -0.207108
C17   C     C_R   0.253529 0.502273 0.510236 0.338702
C18   C     C_R   0.746476 0.497762 0.489745 0.338444
C19   C     C_R   0.101910 0.505937 0.520295 -0.169447
C20   C     C_R   0.898103 0.494079 0.479617 -0.169480
C21   C     C_R   0.127283 0.381369 0.580557 -0.043332
C22   C     C_R   0.872730 0.618668 0.419426 -0.043313
C23   C     C_R   0.127730 0.632907 0.467883 -0.106147
C24   C     C_R   0.872284 0.367091 0.531973 -0.106099
C25   C     C_R   0.101581 0.258849 0.643977 0.474438
C26   C     C_R   0.898431 0.741184 0.355992 0.474478
C27   C     C_R   0.102088 0.761798 0.424949 0.426476
C28   C     C_R   0.897929 0.238193 0.574866 0.426433
C29   C     C_R   0.354294 0.500564 0.503286 -0.039835
C30   C     C_R   0.645707 0.499465 0.496710 -0.039853
H1    H     H_    0.346625 0.485453 0.226181 0.161194
H2    H     H_    0.653377 0.512968 0.773891 0.161180
H3    H     H_    0.348338 0.515902 0.781439 0.162159
H4    H     H_    0.651664 0.485750 0.218478 0.162154
H5    H     H_    0.258454 0.486666 0.233566 0.147791
H6    H     H_    0.741545 0.511798 0.766501 0.147883
H7    H     H_    0.260386 0.517722 0.785940 0.144513
H8    H     H_    0.739611 0.483899 0.213958 0.144593
C31   C     C_R   0.974293 0.371263 0.549086 0.001976
C32   C     C_R   0.025722 0.628745 0.450789 0.001965
C33   C     C_R   0.974802 0.623868 0.434798 0.036498
C34   C     C_R   0.025212 0.376148 0.565104 0.036503
C35   C     C_R   0.949213 0.496454 0.487869 0.069260
C36   C     C_R   0.050800 0.503559 0.512028 0.069264
C37   C     C_R   0.947643 0.242419 0.585728 -0.215812
C38   C     C_R   0.052373 0.757578 0.414103 -0.215788
C39   C     C_R   0.948651 0.741537 0.362644 -0.301490
C40   C     C_R   0.051361 0.258487 0.637286 -0.301491
H9    H     H_    0.964359 0.138832 0.615674 0.164429
H10   H     H_    0.035660 0.861162 0.384126 0.164430
H11   H     H_    0.966326 0.835232 0.306071 0.133484
H12   H     H_    0.033683 0.164795 0.693856 0.133493
C41   C     C_1   0.499998 0.065388 0.500016 -0.165354
C42   C     C_1   0.500001 0.934612 0.499983 -0.165353
N3    N     N_1   0.500000 0.500000 0.076820 -0.049254
N4    N     N_1   0.500000 0.500000 0.923180 -0.049253
O13   O     O_3   0.125857 0.140719 0.714429 -0.663893
H13   H     H_    0.102689 0.063512 0.750640 0.321159
O14   O     O_3   0.874153 0.859308 0.285532 -0.663921
H14   H     H_    0.897320 0.936505 0.249288 0.321146
O15   O     O_3   0.123954 0.895983 0.397388 -0.671251
H15   H     H_    0.147500 0.910434 0.490808 0.379798
O16   O     O_3   0.876065 0.104000 0.602391 -0.671209
H16   H     H_    0.852534 0.089542 0.508926 0.379861

loop_
_geom_bond_atom_site_label_1
_geom_bond_atom_site_label_2
_geom_bond_distance
_ccdc_geom_bond_type
C31   C35   1.419131 A    
Cu2   N3    1.976565 S    
C20   C35   1.425130 A    
C13   H3    1.083460 S    
O15   H15   0.990837 S    
C11   C17   1.401589 A    
O5    C3    1.282304 A    
C26   O14   1.383975 S    
C7    N1    1.364552 A    
O1    C1    1.272386 A    
C40   H12   1.074978 S    
C19   C21   1.416173 A    
C9    H7    1.083438 S    
C22   C26   1.409328 A    
C7    C23   1.410923 A    
C33   C35   1.417905 A    
C34   C36   1.417902 A    
O7    Cu1   1.951090 S    
C32   C33   1.424742 A    
C9    C13   1.393214 A    
O13   H13   0.991575 S    
C8    C24   1.410947 A    
C5    C21   1.411409 A    
C1    C41   1.404338 S    
C5    O9    1.349458 S    
C10   C18   1.400049 A    
N1    C17   1.435032 S    
C8    N2    1.364604 A    
C24   C28   1.413246 A    
O3    Cu1   1.932734 S    
C6    O10   1.349455 S    
O3    C2    1.272299 A    
C5    N1    1.364846 A    
C14   H4    1.083350 S    
C12   C18   1.401503 A    
C6    N2    1.364893 A    
C15   H1    1.083453 S    
Cu1   Cu2   2.630444 S    
C21   C25   1.409325 A    
C16   H2    1.083338 S    
O2    C2    1.272386 A    
C10   H8    1.083326 S    
C11   H5    1.083350 S    
C33   C39   1.412475 A    
C34   C40   1.412481 A    
C39   H11   1.074971 S    
C38   H10   1.076410 S    
C11   C15   1.395531 A    
C12   C16   1.395534 A    
C4    C30   1.472684 S    
O8    Cu2   1.951093 S    
C23   C27   1.413230 A    
C7    O11   1.349127 S    
C32   C36   1.419141 A    
C13   C29   1.406647 A    
C19   C36   1.425123 A    
C19   C23   1.416386 A    
O14   H14   0.991574 S    
C20   C24   1.416379 A    
O6    C4    1.282308 A    
C10   C14   1.393207 A    
C32   C38   1.412670 A    
C3    C29   1.472665 S    
O1    Cu1   1.932828 S    
C2    C42   1.404338 S    
O6    Cu2   1.954016 S    
C8    O12   1.349125 S    
C16   C30   1.406171 A    
C14   C30   1.406498 A    
C28   O16   1.377617 S    
O4    C1    1.272299 A    
Cu1   N4    1.976565 S    
C28   C37   1.387870 A    
C27   O15   1.377629 S    
C20   C22   1.416148 A    
N3    N4    1.195119 T    
C12   H6    1.083247 S    
C31   C37   1.412656 A    
O4    Cu2   1.932735 S    
C41   C42   1.187756 T    
O2    Cu2   1.932827 S    
O7    C4    1.283735 A    
N2    C18   1.435154 S    
O8    C3    1.283728 A    
C25   O13   1.383978 S    
O16   H16   0.990840 S    
C37   H9    1.076415 S    
O5    Cu1   1.954019 S    
C15   C29   1.406306 A    
C31   C34   1.424735 A    
C9    C17   1.400132 A    
C25   C40   1.399636 A    
C26   C39   1.399634 A    
C27   C38   1.387868 A    
C6    C22   1.411403 A    
