data_mof_unit_61959.cif
_audit_creation_date              2012-12-10T19:35:25-0500
_audit_creation_method            fapswitch 2.2
_symmetry_space_group_name_H-M    P1
_symmetry_Int_Tables_number       1
_space_group_crystal_system       triclinic
_cell_length_a                    16.366001
_cell_length_b                    16.928914
_cell_length_c                    19.222868
_cell_angle_alpha                 89.860223
_cell_angle_beta                  92.420084
_cell_angle_gamma                 88.015577
_cell_volume                      5317.87937106

loop_
_atom_site_label
_atom_site_type_symbol
_atom_type_description
_atom_site_fract_x
_atom_site_fract_y
_atom_site_fract_z
_atom_type_partial_charge
C1    C     C_R   0.488731 0.651929 0.496427 0.892005
C2    C     C_R   0.527463 0.099513 0.485606 0.124247
C3    C     C_R   0.403816 0.857434 0.461812 -0.124870
C4    C     C_R   0.598329 0.142489 0.481019 -0.112317
C5    C     C_R   0.408242 0.778261 0.481501 -0.192179
C6    C     C_R   0.593810 0.224051 0.487785 -0.188634
C7    C     C_2   0.475464 0.978353 0.435971 0.414020
C8    C     C_2   0.531988 0.014723 0.475876 0.410990
C9    C     C_R   0.760136 0.464213 0.465418 0.768510
C10   C     C_R   0.239756 0.536111 0.534248 0.770275
C11   C     C_R   0.844665 0.469276 0.465106 -0.325286
C12   C     C_R   0.511377 0.347914 0.500904 0.909030
C13   C     C_R   0.155224 0.531045 0.534475 -0.326424
C14   C     C_R   0.884846 0.521604 0.510506 0.000436
C15   C     C_R   0.115137 0.478391 0.489313 0.001413
C16   C     C_R   0.499940 0.497277 0.634012 0.904040
C17   C     C_R   0.500230 0.501726 0.365846 0.897380
C18   C     C_R   0.837960 0.568452 0.556453 -0.094045
C19   C     C_R   0.162152 0.431188 0.443719 -0.093830
C20   C     C_R   0.752616 0.561469 0.553709 -0.151290
C21   C     C_R   0.247494 0.438186 0.446550 -0.152103
C22   C     C_2   0.974099 0.530835 0.505449 -0.096023
C23   C     C_R   0.482673 0.735165 0.478041 -0.049986
C24   C     C_2   0.025853 0.469200 0.494284 -0.095768
C25   C     C_R   0.448123 0.439171 0.743295 -0.032175
C26   C     C_R   0.559928 0.544073 0.254358 -0.024747
C27   C     C_R   0.450353 0.437936 0.815907 -0.180897
C28   C     C_R   0.563721 0.534480 0.182656 -0.182472
C29   C     C_R   0.505475 0.484081 0.854268 0.052541
C30   C     C_R   0.508693 0.486396 0.146257 0.052501
C31   C     C_R   0.558057 0.533002 0.819825 -0.129741
C32   C     C_R   0.449838 0.446457 0.182120 -0.129674
C33   C     C_R   0.555385 0.536175 0.747919 -0.184623
C34   C     C_R   0.518336 0.262366 0.499752 -0.044648
C35   C     C_R   0.446377 0.454073 0.253659 -0.185265
C36   C     C_R   0.500506 0.490311 0.709265 -0.101549
C37   C     C_R   0.501443 0.501830 0.290295 -0.100385
C38   C     C_R   0.510404 0.481589 0.070562 0.308901
C39   C     C_R   0.508250 0.481377 0.930161 0.307872
C40   C     C_2   0.393990 0.383250 0.705842 0.931550
C41   C     C_2   0.615019 0.601493 0.288554 0.937607
C42   C     C_2   0.874859 0.623124 0.608495 0.927404
C43   C     C_2   0.125406 0.376103 0.391961 0.925953
C44   C     C_R   0.550774 0.770190 0.450545 -0.091118
C45   C     C_R   0.448413 0.218427 0.508042 -0.135909
C46   C     C_R   0.545537 0.848076 0.429056 -0.104593
C47   C     C_R   0.453112 0.137184 0.501453 -0.116670
C48   C     C_R   0.473453 0.892825 0.438057 0.117942
F1    F     F_    0.721387 0.414481 0.420956 -0.650104
F2    F     F_    0.278402 0.586172 0.578469 -0.646540
F3    F     F_    0.592754 0.972993 0.511875 -0.671682
F4    F     F_    0.414002 0.019753 0.400662 -0.669677
H1    H     H_    0.285640 0.403006 0.412953 0.195456
H2    H     H_    0.406554 0.409140 0.155076 0.165356
H3    H     H_    0.595823 0.575318 0.722333 0.164471
H4    H     H_    0.401654 0.421141 0.280659 0.166585
H5    H     H_    0.608383 0.737641 0.445745 0.194072
H6    H     H_    0.389960 0.246757 0.518843 0.186607
H7    H     H_    0.648623 0.257061 0.481819 0.198247
H8    H     H_    0.354605 0.751528 0.501192 0.190775
H9    H     H_    0.347897 0.892067 0.468958 0.175250
H10   H     H_    0.656324 0.113190 0.470259 0.177887
H11   H     H_    0.398714 0.103808 0.508318 0.175057
H12   H     H_    0.714558 0.596386 0.587569 0.197620
H13   H     H_    0.599276 0.874966 0.409640 0.168237
H14   H     H_    0.287543 0.326449 0.703287 0.352141
H15   H     H_    0.725072 0.651804 0.291440 0.350437
H16   H     H_    0.858644 0.718554 0.669824 0.361352
H17   H     H_    0.141769 0.280066 0.331383 0.362182
H18   H     H_    0.002344 0.410210 0.489286 0.175193
H19   H     H_    0.997562 0.589840 0.510456 0.175246
H20   H     H_    0.121791 0.566403 0.571351 0.206921
H21   H     H_    0.878035 0.434181 0.428005 0.207116
H22   H     H_    0.410794 0.398859 0.842521 0.188881
H23   H     H_    0.608051 0.567041 0.154881 0.189681
H24   H     H_    0.600957 0.569463 0.848294 0.164646
N1    N     N_R   0.566222 0.520542 0.967112 -0.163782
N2    N     N_R   0.453000 0.441487 0.033666 -0.162045
N3    N     N_R   0.567241 0.520669 0.036066 -0.160293
N4    N     N_R   0.452000 0.441321 0.964600 -0.157999
N5    N     N_R   0.716290 0.510230 0.508970 -0.156527
N6    N     N_R   0.283710 0.489770 0.491030 -0.155904
O1    O     O_R   0.422340 0.612130 0.496770 -0.580934
O2    O     O_R   0.318607 0.365911 0.732821 -0.781499
O3    O     O_2   0.591006 0.642870 0.336040 -0.658622
O4    O     O_R   0.693614 0.610462 0.264458 -0.780734
O5    O     O_2   0.945597 0.612507 0.630485 -0.617470
O6    O     O_R   0.827339 0.685909 0.634224 -0.797358
O7    O     O_2   0.054781 0.386655 0.369661 -0.616866
O8    O     O_R   0.172959 0.312988 0.366845 -0.799307
O9    O     O_R   0.577660 0.387870 0.503230 -0.588745
O10   O     O_R   0.561240 0.618700 0.502530 -0.620308
O11   O     O_R   0.438760 0.381300 0.497470 -0.613036
O12   O     O_R   0.430520 0.496720 0.598980 -0.547806
O13   O     O_R   0.569480 0.503280 0.401020 -0.551389
O14   O     O_R   0.569430 0.503290 0.604740 -0.635624
O15   O     O_R   0.430570 0.496710 0.395260 -0.638760
O16   O     O_2   0.416200 0.350092 0.653102 -0.644119
Zn1   Zn    Zn3+2 0.407250 0.495620 0.496160 1.037214
Zn2   Zn    Zn3+2 0.592750 0.504380 0.503840 1.033100

loop_
_geom_bond_atom_site_label_1
_geom_bond_atom_site_label_2
_ccdc_geom_bond_type
C33   H3    S    
C21   H1    S    
C27   C29   A    
N6    Zn1   S    
C40   O2    S    
C12   O9    A    
C24   H18   S    
C7    C8    D    
C15   C19   A    
C41   O4    S    
C43   O7    D    
C1    O1    A    
C39   N1    A    
C35   C37   A    
C7    F4    S    
C18   C42   S    
C25   C40   S    
C40   O16   D    
C11   C14   A    
N2    N4    A    
C38   N3    A    
C3    H9    S    
C4    H10   S    
C3    C48   A    
C33   C36   A    
C30   C38   S    
C14   C18   A    
C44   C46   A    
C31   C33   A    
C17   O13   A    
O9    Zn2   S    
C27   H22   S    
O11   Zn1   S    
N1    N3    A    
O1    Zn1   S    
C20   N5    A    
C32   H2    S    
O15   Zn1   S    
C19   C43   S    
C45   C47   A    
C46   C48   A    
C45   H6    S    
C16   O14   A    
C43   O8    S    
C32   C35   A    
C9    F1    S    
C46   H13   S    
C4    C6    A    
C11   H21   S    
O13   Zn2   S    
C38   N2    A    
C10   N6    A    
C23   C44   A    
C6    C34   A    
C47   H11   S    
C20   H12   S    
C2    C4    A    
C5    C23   A    
C44   H5    S    
C29   C39   S    
C34   C45   A    
C17   C37   S    
C9    C11   A    
C8    F3    S    
C15   C24   S    
C13   H20   S    
C1    C23   S    
C1    O10   A    
C13   C15   A    
H16   O6    S    
C22   C24   D    
C12   O11   A    
C42   O6    S    
C12   C34   S    
H17   O8    S    
C10   F2    S    
C22   H19   S    
O10   Zn2   S    
H15   O4    S    
C5    H8    S    
C19   C21   A    
C35   H4    S    
C26   C28   A    
C6    H7    S    
C2    C8    S    
C3    C5    A    
C10   C13   A    
C26   C37   A    
N5    Zn2   S    
C2    C47   A    
C25   C27   A    
C41   O3    D    
C16   O12   A    
C7    C48   S    
C14   C22   S    
C28   C30   A    
C29   C31   A    
C39   N4    A    
C30   C32   A    
C31   H24   S    
O12   Zn1   S    
O14   Zn2   S    
C18   C20   A    
C25   C36   A    
H14   O2    S    
C21   N6    A    
C42   O5    D    
C28   H23   S    
C17   O15   A    
C16   C36   S    
C26   C41   S    
C9    N5    A    
