data_mof_unit_9962.cif
_audit_creation_date              2012-12-10T20:57:47-0500
_audit_creation_method            fapswitch 2.2
_symmetry_space_group_name_H-M    P1
_symmetry_Int_Tables_number       1
_space_group_crystal_system       triclinic
_cell_length_a                    18.198334
_cell_length_b                    18.267726
_cell_length_c                    18.398372
_cell_angle_alpha                 120.02688
_cell_angle_beta                  89.957561
_cell_angle_gamma                 119.871687
_cell_volume                      4333.15044079

loop_
_atom_site_label
_atom_site_type_symbol
_atom_type_description
_atom_site_fract_x
_atom_site_fract_y
_atom_site_fract_z
_atom_type_partial_charge
C1    C     C_R   0.359729 0.220213 0.361455 0.789508
C2    C     C_3   0.799096 0.941890 0.733440 -0.376338
C3    C     C_2   0.326583 0.927811 0.912863 0.323781
C4    C     C_2   0.135075 0.772186 0.785001 0.475397
C5    C     C_2   0.028682 0.839011 0.047420 0.414215
C6    C     C_3   0.794792 0.770306 0.822253 -0.202265
C7    C     C_2   0.976239 0.906633 0.769863 0.394905
C8    C     C_3   0.923873 0.484040 0.691088 -0.201669
C9    C     C_3   0.570495 0.519679 0.811494 -0.262774
C10   C     C_3   0.042650 0.284479 0.141714 -0.268004
C11   C     C_3   0.427568 0.892744 0.623561 -0.310353
C12   C     C_3   0.448019 0.819801 0.883014 -0.324070
C13   C     C_3   0.698478 0.897091 0.700096 0.062091
C14   C     C_2   0.131556 0.505338 0.579582 0.401891
C15   C     C_3   0.488584 0.761929 0.390704 -0.338349
C16   C     C_R   0.641000 0.780875 0.640318 0.793445
C17   C     C_3   0.796526 0.101945 0.805896 -0.058774
C18   C     C_3   0.727500 0.055560 0.849535 0.498446
C19   C     C_3   0.856596 0.060949 0.793359 -0.342137
C20   C     C_3   0.641901 0.403537 0.203855 -0.426755
C21   C     C_3   0.704103 0.401039 0.147565 -0.393468
C22   C     C_3   0.745314 0.601846 0.309079 0.430466
C23   C     C_3   0.769727 0.489494 0.333013 -0.556682
C24   C     C_3   0.343404 0.613300 0.329270 0.419881
C25   C     C_3   0.697346 0.498732 0.301945 -0.025016
C26   C     C_3   0.801729 0.501766 0.202854 -0.027510
C27   C     C_3   0.793257 0.594654 0.237113 -0.385121
C28   C     C_R   0.358944 0.500234 0.640390 0.818740
C29   C     C_3   0.839367 0.503213 0.282133 0.486882
C30   C     C_R   0.467160 0.180057 0.559558 -0.104222
C31   C     C_R   0.426043 0.133413 0.470327 -0.143641
C32   C     C_R   0.339482 0.106380 0.441294 0.117991
C33   C     C_R   0.294185 0.128021 0.503445 0.081150
C34   C     C_R   0.336864 0.175185 0.593134 -0.092534
C35   C     C_3   0.300930 0.501160 0.302113 0.037712
C36   C     C_R   0.422298 0.200003 0.620584 -0.065930
C37   C     C_R   0.248438 0.945079 0.288225 -0.067165
C38   C     C_R   0.203031 0.892778 0.197063 -0.138744
C39   C     C_R   0.215863 0.949944 0.161390 -0.008624
C40   C     C_R   0.640309 0.498674 0.359452 0.875407
C41   C     C_R   0.265454 0.056206 0.217821 -0.250828
C42   C     C_R   0.305278 0.108113 0.308164 -0.084902
C43   C     C_R   0.296470 0.052975 0.344813 -0.087183
C44   C     C_R   0.261504 0.924232 0.029170 -0.252833
C45   C     C_R   0.246291 0.889973 0.940088 -0.049102
C46   C     C_3   0.198296 0.500175 0.199852 0.022784
C47   C     C_R   0.157033 0.827390 0.882851 -0.019545
C48   C     C_R   0.087119 0.812916 0.919482 -0.036315
C49   C     C_R   0.103490 0.853419 0.010477 0.003827
C50   C     C_R   0.191356 0.905458 0.064808 0.068974
C51   C     C_R   0.908039 0.644118 0.576512 -0.056473
C52   C     C_R   0.641853 0.502596 0.642419 0.828435
C53   C     C_R   0.855164 0.580024 0.601855 -0.166594
C54   C     C_R   0.841333 0.621564 0.683902 0.131873
C55   C     C_R   0.879513 0.728736 0.740299 0.571656
C56   C     C_R   0.931730 0.793233 0.713205 -0.056349
C57   C     C_3   0.148097 0.463801 0.256950 0.426818
C58   C     C_R   0.944537 0.749412 0.630684 -0.190213
C59   C     C_R   0.838059 0.538100 0.755884 0.498491
C60   C     C_R   0.799307 0.495992 0.803368 -0.233480
C61   C     C_R   0.708939 0.458120 0.799222 -0.194856
C62   C     C_R   0.659944 0.468617 0.752094 0.475193
C63   C     C_R   0.698708 0.509652 0.703905 -0.265064
C64   C     C_R   0.358492 0.500585 0.359458 0.844413
C65   C     C_R   0.790654 0.553709 0.713158 -0.128404
C66   C     C_R   0.618812 0.296837 0.793052 -0.108271
C67   C     C_R   0.571939 0.244683 0.830429 -0.134981
C68   C     C_3   0.284019 0.611813 0.266793 -0.562906
C69   C     C_R   0.567132 0.299087 0.914939 -0.095631
C70   C     C_R   0.610054 0.405881 0.962553 -0.177160
C71   C     C_R   0.658104 0.458557 0.925977 -0.116345
C72   C     C_R   0.661917 0.404046 0.840583 0.251314
C73   C     C_R   0.390306 0.796189 0.713064 -0.297525
C74   C     C_R   0.371851 0.728296 0.736664 0.546215
C75   C     C_R   0.287747 0.632157 0.692838 -0.080149
C76   C     C_3   0.289271 0.431279 0.202448 -0.365350
C77   C     C_R   0.221379 0.605625 0.626605 -0.140788
C78   C     C_R   0.241485 0.675169 0.604248 -0.209938
C79   C     C_3   0.687867 0.939630 0.649319 -0.495421
C80   C     C_R   0.325618 0.769434 0.645439 0.544201
C81   C     C_R   0.216204 0.560696 0.775213 -0.292179
C82   C     C_R   0.194093 0.497170 0.804352 -0.056919
C83   C     C_R   0.225450 0.433501 0.778035 -0.013641
C84   C     C_R   0.279320 0.436830 0.724870 -0.250973
C85   C     C_R   0.301956 0.500951 0.696201 -0.029751
C86   C     C_R   0.268885 0.562841 0.720857 0.069148
C87   C     C_R   0.259391 0.394927 0.881123 -0.136172
C88   C     C_3   0.233092 0.434557 0.143408 -0.414997
C89   C     C_R   0.238411 0.326583 0.904632 -0.137305
C90   C     C_3   0.747859 0.059548 0.709232 -0.211041
C91   C     C_R   0.161821 0.224944 0.850604 -0.104564
C92   C     C_R   0.106414 0.191225 0.772603 -0.116402
C93   C     C_R   0.127138 0.259276 0.748819 -0.074395
C94   C     C_R   0.203485 0.361675 0.803306 0.142600
C95   C     C_R   0.857406 0.499473 0.143065 0.795626
C96   C     C_R   0.138311 0.499247 0.861348 0.787856
C97   C     C_R   0.856394 0.218877 0.862978 0.779610
C98   C     C_R   0.141063 0.780004 0.141299 0.751246
C99   C     C_R   0.855907 0.498692 0.861005 0.884743
C100  C     C_3   0.206531 0.458012 0.312536 -0.582802
C101  C     C_3   0.667976 0.934700 0.782139 -0.349244
C102  C     C_R   0.140048 0.500128 0.142672 0.828284
C103  C     C_2   0.695247 0.101014 0.704629 0.388526
C104  C     C_2   0.663034 0.088869 0.868280 0.242846
C105  C     C_3   0.798655 0.169011 0.009064 -0.224833
C106  C     C_3   0.648018 0.618949 0.240149 -0.261815
C107  C     C_3   0.888330 0.414324 0.304555 -0.280850
C108  C     C_2   0.932568 0.604314 0.344786 0.340534
C109  C     C_2   0.880208 0.697228 0.268445 0.448227
C110  C     C_2   0.203092 0.101771 0.475460 0.434626
C111  C     C_2   0.253526 0.888498 0.322732 0.461369
H1    H     H_    0.255891 0.350070 0.180696 0.172742
H2    H     H_    0.356025 0.457101 0.192994 0.212108
H3    H     H_    0.822988 0.915212 0.675970 0.186319
H4    H     H_    0.905852 0.090167 0.762435 0.166668
H5    H     H_    0.896751 0.089833 0.858656 0.230353
H6    H     H_    0.669336 0.898792 0.815925 0.192236
H7    H     H_    0.588600 0.403913 0.175322 0.193424
H8    H     H_    0.606781 0.330991 0.200372 0.189976
H9    H     H_    0.704059 0.331553 0.122783 0.228742
H10   H     H_    0.675952 0.392118 0.088003 0.189507
H11   H     H_    0.275985 0.470104 0.111852 0.184718
H12   H     H_    0.265418 0.665555 0.308023 0.161273
H13   H     H_    0.751481 0.574041 0.177462 0.124336
H14   H     H_    0.803326 0.545987 0.405851 0.188263
H15   H     H_    0.735392 0.412323 0.321170 0.195385
H16   H     H_    0.799098 0.659926 0.374930 0.198958
H17   H     H_    0.453771 0.235075 0.689527 0.166718
H18   H     H_    0.533737 0.200317 0.581314 0.123629
H19   H     H_    0.461263 0.117459 0.423450 0.110554
H20   H     H_    0.178565 0.355049 0.087237 0.183550
H21   H     H_    0.303992 0.192470 0.642152 0.164372
H22   H     H_    0.274554 0.098921 0.189729 0.180136
H23   H     H_    0.212970 0.504451 0.383827 0.174251
H24   H     H_    0.329578 0.969492 0.072658 0.137177
H25   H     H_    0.019280 0.769016 0.876710 0.245592
H26   H     H_    0.985310 0.797457 0.609252 0.188194
H27   H     H_    0.174887 0.378114 0.293213 0.201873
H28   H     H_    0.922411 0.612347 0.515446 0.164002
H29   H     H_    0.826360 0.498250 0.558218 0.118348
H30   H     H_    0.621456 0.253925 0.727187 0.140190
H31   H     H_    0.538917 0.162087 0.793691 0.138393
H32   H     H_    0.530365 0.258582 0.943648 0.144782
H33   H     H_    0.606264 0.447907 0.027910 0.110879
H34   H     H_    0.143902 0.528121 0.307080 0.111740
H35   H     H_    0.691855 0.541387 0.963842 0.111414
H36   H     H_    0.454897 0.869700 0.748266 0.180026
H37   H     H_    0.191564 0.656040 0.553631 0.209603
H38   H     H_    0.192124 0.609271 0.794416 0.165751
H39   H     H_    0.303436 0.388300 0.705715 0.184515
H40   H     H_    0.318797 0.473545 0.923434 0.114443
H41   H     H_    0.281635 0.352268 0.964572 0.123389
H42   H     H_    0.343582 0.658986 0.398565 0.084635
H43   H     H_    0.145631 0.172205 0.868958 0.144455
H44   H     H_    0.047560 0.112301 0.730481 0.127600
H45   H     H_    0.615879 0.908538 0.625957 0.156729
H46   H     H_    0.083781 0.232487 0.688300 0.140177
H47   H     H_    0.322837 0.641491 0.229893 0.206815
H48   H     H_    0.629070 0.070209 0.711064 0.030789
H49   H     H_    0.669499 0.146214 0.860335 0.103507
H50   H     H_    0.740614 0.153554 0.033750 0.208267
H51   H     H_    0.822582 0.235314 0.005164 0.142689
H52   H     H_    0.853529 0.191982 0.059309 0.181468
H53   H     H_    0.612545 0.537171 0.183120 0.130008
H54   H     H_    0.696744 0.671690 0.224144 0.168902
H55   H     H_    0.596481 0.635265 0.252574 0.205408
H56   H     H_    0.707136 0.911260 0.588623 0.189848
H57   H     H_    0.864180 0.333148 0.274738 0.206507
H58   H     H_    0.874502 0.443229 0.368442 0.142609
H59   H     H_    0.961913 0.459395 0.317695 0.200449
H60   H     H_    0.992245 0.610622 0.329725 0.134975
H61   H     H_    0.917631 0.702172 0.223253 0.062247
H62   H     H_    0.168973 0.064393 0.406414 0.072803
H63   H     H_    0.267764 0.831567 0.284605 0.044980
H64   H     H_    0.391311 0.961147 0.955090 0.073744
H65   H     H_    0.182753 0.762327 0.753531 0.108779
H66   H     H_    0.041055 0.871541 0.117769 0.049079
H67   H     H_    0.801317 0.084790 0.680143 0.185568
H68   H     H_    0.742219 0.706531 0.825130 0.137836
H69   H     H_    0.767170 0.763221 0.763258 0.126463
H70   H     H_    0.810898 0.843672 0.882332 0.207626
H71   H     H_    0.012323 0.951798 0.744377 0.046695
H72   H     H_    0.877620 0.442234 0.623924 0.136983
H73   H     H_    0.905358 0.429775 0.710191 0.135823
H74   H     H_    0.992468 0.511500 0.686870 0.197523
H75   H     H_    0.581857 0.567426 0.786592 0.145199
H76   H     H_    0.620286 0.568736 0.878712 0.136908
H77   H     H_    0.502863 0.490425 0.818519 0.183445
H78   H     H_    0.596186 0.903343 0.757737 0.168923
H79   H     H_    0.096908 0.275432 0.151249 0.158101
H80   H     H_    0.030605 0.277358 0.078677 0.177259
H81   H     H_    0.980921 0.218669 0.134987 0.188130
H82   H     H_    0.454945 0.845558 0.595357 0.133510
H83   H     H_    0.470973 0.961479 0.692658 0.171448
H84   H     H_    0.428358 0.921354 0.582532 0.195331
H85   H     H_    0.495351 0.828696 0.929765 0.195435
H86   H     H_    0.382839 0.790460 0.895768 0.145029
H87   H     H_    0.476991 0.897176 0.897347 0.219415
H88   H     H_    0.116040 0.448557 0.592810 0.072825
H89   H     H_    0.808119 0.913868 0.771840 0.196360
H90   H     H_    0.501453 0.776240 0.457133 0.163007
H91   H     H_    0.460651 0.803532 0.389445 0.162399
H92   H     H_    0.553980 0.793591 0.379299 0.201805
O1    O     O_3   0.500000 0.500000 0.500000 -0.485888
O2    O     O_R   0.113800 0.731630 0.056520 -0.641558
O3    O     O_R   0.819390 0.439310 0.886160 -0.639952
O4    O     O_R   0.383400 0.268380 0.323710 -0.652598
O5    O     O_R   0.115110 0.560720 0.179280 -0.649213
O6    O     O_R   0.941380 0.560750 0.885620 -0.592487
O7    O     O_R   0.115110 0.439270 0.057830 -0.651267
O8    O     O_R   0.942690 0.268390 0.886930 -0.637670
O9    O     O_R   0.114340 0.731630 0.178520 -0.644576
O10   O     O_R   0.820160 0.439310 0.057830 -0.645400
O11   O     O_R   0.113800 0.560730 0.885620 -0.648632
O12   O     O_R   0.383400 0.560740 0.616060 -0.630452
O13   O     O_R   0.555060 0.731630 0.615290 -0.642269
O14   O     O_R   0.383950 0.439280 0.616600 -0.651296
O15   O     O_R   0.677590 0.560710 0.444390 -0.647064
O16   O     O_R   0.556370 0.439260 0.616600 -0.582309
O17   O     O_R   0.382640 0.439290 0.322940 -0.644338
O18   O     O_R   0.678360 0.560700 0.616060 -0.681826
O19   O     O_R   0.382640 0.560750 0.444390 -0.661543
O20   O     O_2   0.725745 0.167837 0.691041 -0.592706
O21   O     O_2   0.603254 0.052409 0.895566 -0.603148
O22   O     O_3   0.776269 0.078103 0.927528 -0.626068
O23   O     O_R   0.555060 0.439270 0.322940 -0.640454
O24   O     O_3   0.690857 0.639580 0.318324 -0.605296
O25   O     O_3   0.844943 0.416617 0.242491 -0.648059
O26   O     O_2   0.942351 0.678795 0.412147 -0.592327
O27   O     O_2   0.907556 0.776058 0.342098 -0.503656
O28   O     O_2   0.164868 0.121835 0.529396 -0.578730
O29   O     O_2   0.239326 0.902520 0.391896 -0.551127
O30   O     O_2   0.323353 0.929330 0.847427 -0.568252
O31   O     O_2   0.062038 0.734091 0.737598 -0.565249
O32   O     O_2   0.952072 0.790407 0.999671 -0.556306
O33   O     O_3   0.872990 0.771456 0.824762 -0.564066
O34   O     O_R   0.383950 0.268380 0.445700 -0.651341
O35   O     O_2   0.974163 0.951402 0.845254 -0.549324
O36   O     O_3   0.924914 0.570538 0.755229 -0.578601
O37   O     O_3   0.572319 0.434160 0.750809 -0.594005
O38   O     O_3   0.056599 0.376853 0.213005 -0.617988
O39   O     O_3   0.338403 0.834405 0.620620 -0.569400
O40   O     O_3   0.439273 0.750386 0.795574 -0.604510
O41   O     O_2   0.073391 0.484595 0.525059 -0.585681
O42   O     O_3   0.431246 0.654976 0.323310 -0.605980
O43   O     O_R   0.677590 0.731610 0.615290 -0.652872
O44   O     O_3   0.997750 0.500010 0.002220 -0.488451
O45   O     O_R   0.942690 0.560750 0.179280 -0.667048
O46   O     O_R   0.114340 0.439270 0.886160 -0.638931
O47   O     O_R   0.820160 0.268410 0.886930 -0.653722
Zn1   Zn    Zn3+2 0.456040 0.586770 0.543190 0.977534
Zn2   Zn    Zn3+2 0.456820 0.413240 0.543960 0.977919
Zn3   Zn    Zn3+2 0.631110 0.586750 0.543190 0.956064
Zn4   Zn    Zn3+2 0.456040 0.413240 0.369660 0.969983
Zn5   Zn    Zn3+2 0.041710 0.413240 0.959030 0.969243
Zn6   Zn    Zn3+2 0.866640 0.413270 0.959030 0.983865
Zn7   Zn    Zn3+2 0.040930 0.586780 0.958260 0.982430
Zn8   Zn    Zn3+2 0.041710 0.586770 0.132560 0.974847

loop_
_geom_bond_atom_site_label_1
_geom_bond_atom_site_label_2
_ccdc_geom_bond_type
C55   C56   A    
C90   H67   S    
O15   Zn3   S    
C28   O14   A    
C57   H34   S    
C6    H68   S    
C111  H63   S    
C2    H3    S    
C41   C42   A    
C11   H83   S    
C55   O33   S    
C38   C98   S    
C60   C99   S    
O3    Zn6   S    
O44   Zn8   S    
C63   C65   A    
C81   C82   A    
C96   O11   A    
C39   C41   A    
C66   H30   S    
O2    Zn7   S    
C77   C78   A    
C44   C45   A    
C46   C102  S    
C107  H59   S    
C26   C27   S    
C10   H79   S    
C73   H36   S    
C83   C84   A    
C2    H89   S    
C23   C29   S    
O4    Zn4   S    
C11   H84   S    
C31   H19   S    
C101  H78   S    
C25   C40   S    
C85   C86   A    
C38   C39   A    
C29   O25   S    
C78   C80   A    
C8    O36   S    
C20   C25   S    
C67   H31   S    
C53   H29   S    
C87   C94   A    
C62   O37   S    
C13   C79   S    
O34   Zn2   S    
C73   C74   A    
C14   C77   S    
C16   O13   A    
C2    C13   S    
C79   C90   S    
C57   O38   S    
C103  O20   D    
C79   H45   S    
C54   C55   A    
O1    Zn1   S    
C32   C43   S    
C89   H41   S    
C66   C72   A    
C62   C63   A    
C15   O42   S    
C56   C58   A    
C22   C25   S    
O17   Zn4   S    
C12   H86   S    
C105  H52   S    
C29   C108  S    
C70   C71   A    
O14   Zn2   S    
C105  O22   S    
C89   C91   A    
C93   C94   A    
C76   C88   S    
C81   C86   A    
C109  H61   S    
C78   H37   S    
C23   H14   S    
C40   O15   A    
O44   Zn6   S    
C8    H73   S    
C44   H24   S    
C66   C67   A    
C34   H21   S    
C59   C60   A    
C87   H40   S    
O12   Zn1   S    
C111  O29   D    
C12   H85   S    
C79   H56   S    
C5    C49   S    
C24   O42   S    
C36   H17   S    
C10   O38   S    
C96   O46   A    
C104  H49   S    
C68   H47   S    
C68   H12   S    
C41   H22   S    
O44   Zn7   S    
C21   C26   S    
C100  H23   S    
C33   C34   A    
C59   C65   A    
C46   C88   S    
C108  O26   D    
C45   C47   A    
O47   Zn6   S    
C90   C103  S    
O18   Zn3   S    
C35   C76   S    
O44   Zn5   S    
C24   C35   S    
C82   C96   S    
C74   C75   A    
C64   O17   A    
C6    H70   S    
C106  H54   S    
O5    Zn8   S    
C84   C85   A    
C91   H43   S    
C88   H11   S    
C9    H75   S    
C91   C92   A    
C54   C65   S    
C102  O7    A    
C18   C104  S    
C22   O24   S    
C99   O3    A    
C1    O34   A    
C53   C54   A    
C57   C100  S    
C98   O9    A    
C3    C45   S    
C10   H81   S    
C60   C61   A    
C51   C53   A    
C18   C101  S    
C37   C43   A    
C59   O36   S    
O10   Zn6   S    
C46   C68   S    
C37   C38   A    
C18   O22   S    
C95   O45   A    
O1    Zn4   S    
C109  O27   D    
C75   C86   S    
O6    Zn7   S    
C47   C48   A    
C7    O35   D    
C19   H4    S    
C76   H1    S    
C12   O40   S    
C107  O25   S    
C39   C50   S    
C9    O37   S    
C17   C18   S    
C64   O19   A    
C98   O2    A    
C51   C58   A    
C20   H7    S    
C93   H46   S    
C75   C77   A    
C5    H66   S    
C99   O6    A    
C35   C64   S    
C100  H27   S    
C23   H15   S    
C14   O41   D    
C74   O40   S    
C8    H72   S    
C3    H64   S    
C48   C49   A    
C21   H10   S    
O46   Zn5   S    
C106  H53   S    
C22   C27   S    
C87   C89   A    
C46   C57   S    
C5    O32   D    
C95   O10   A    
O45   Zn8   S    
C108  H60   S    
C42   C43   A    
C13   C101  S    
C35   C100  S    
C106  H55   S    
C15   H91   S    
C24   H42   S    
C61   C72   S    
C107  H58   S    
C110  H62   S    
C44   C50   A    
C26   C95   S    
C6    O33   S    
C107  H57   S    
C52   O16   A    
C15   H90   S    
C97   O8    A    
C7    H71   S    
C6    H69   S    
C2    C19   S    
C106  O24   S    
C4    O31   D    
C48   H25   S    
C31   C32   A    
C17   C90   S    
C11   H82   S    
O8    Zn5   S    
C9    H76   S    
C52   C63   S    
C61   C62   A    
C15   H92   S    
C27   H13   S    
C97   O47   A    
O43   Zn3   S    
C16   O43   A    
C8    H74   S    
C69   H32   S    
C30   H18   S    
C14   H88   S    
C70   H33   S    
C10   H80   S    
C7    C56   S    
C30   C36   A    
O16   Zn2   S    
C101  H6    S    
C32   C33   A    
C76   H2    S    
C71   C72   A    
C82   C83   A    
O19   Zn1   S    
O1    Zn3   S    
C83   C94   S    
C103  H48   S    
C22   H16   S    
C30   C31   A    
O11   Zn7   S    
C102  O5    A    
C19   H5    S    
C28   O12   A    
O13   Zn1   S    
C81   H38   S    
O9    Zn8   S    
C92   C93   A    
C17   C19   S    
C73   C80   A    
C80   O39   S    
C92   H44   S    
C34   C36   A    
C23   C25   S    
C40   O23   A    
C69   C70   A    
C1    O4    A    
C58   H26   S    
O7    Zn5   S    
C37   C111  S    
C110  O28   D    
C24   C68   S    
O1    Zn2   S    
C1    C42   S    
O23   Zn4   S    
C71   H35   S    
C20   C21   S    
C27   C109  S    
C26   C29   S    
C49   C50   A    
C4    H65   S    
C13   C16   S    
C28   C85   S    
C11   O39   S    
C12   H87   S    
C105  H51   S    
C105  H50   S    
C33   C110  S    
C88   H20   S    
C67   C69   A    
C9    H77   S    
C17   C97   S    
C21   H9    S    
C104  O21   D    
C20   H8    S    
C3    O30   D    
C51   H28   S    
C52   O18   A    
C4    C47   S    
C84   H39   S    
