data_mof_unit_35814.cif
_audit_creation_date              2012-12-10T16:56:29-0500
_audit_creation_method            fapswitch 2.2
_symmetry_space_group_name_H-M    P1
_symmetry_Int_Tables_number       1
_space_group_crystal_system       triclinic
_cell_length_a                    7.764387
_cell_length_b                    8.597473
_cell_length_c                    15.696057
_cell_angle_alpha                 90.532158
_cell_angle_beta                  87.624263
_cell_angle_gamma                 93.032046
_cell_volume                      1045.38373877

loop_
_atom_site_label
_atom_site_type_symbol
_atom_type_description
_atom_site_fract_x
_atom_site_fract_y
_atom_site_fract_z
_atom_type_partial_charge
C1    C     C_R   0.544586 0.794213 0.496889 0.924044
C2    C     C_3   0.409840 0.368315 0.024254 -0.072002
C3    C     C_1   0.517135 0.500889 0.750362 -0.078340
C4    C     C_1   0.482604 0.498590 0.249653 -0.084339
C5    C     C_3   0.343344 0.495139 0.967415 -0.054239
C6    C     C_3   0.654599 0.503155 0.032535 -0.063157
C7    C     C_3   0.516555 0.501497 0.916663 0.006930
C8    C     C_3   0.481398 0.497003 0.083404 0.016529
C9    C     C_1   0.522963 0.501379 0.825540 0.068623
C10   C     C_1   0.476091 0.497601 0.174502 0.067785
C11   C     C_2   0.683715 0.779129 0.949564 0.971834
C12   C     C_R   0.455412 0.205787 0.503101 0.924818
C13   C     C_2   0.310063 0.221555 0.051044 1.014386
C14   C     C_2   0.825840 0.504286 0.073448 0.956352
C15   C     C_2   0.173941 0.492779 0.924958 0.969607
C16   C     C_2   0.675094 0.002882 0.405459 0.955820
C17   C     C_2   0.324871 0.997097 0.594495 0.956179
C18   C     C_R   0.504984 0.500309 0.661854 0.915480
C19   C     C_R   0.495000 0.499668 0.338148 0.915031
C20   C     C_2   0.559607 0.954956 0.480552 -0.288108
C21   C     C_2   0.440385 0.045041 0.519419 -0.289214
C22   C     C_3   0.413546 0.625301 0.027544 -0.222064
C23   C     C_3   0.583953 0.372934 0.972452 -0.233216
C24   C     C_3   0.587737 0.630198 0.975853 -0.067890
H1    H     H_    0.780559 0.916251 0.853738 0.366187
H2    H     H_    0.987055 0.617227 0.563264 0.212858
H3    H     H_    0.201174 0.091556 0.147100 0.362046
H4    H     H_    0.342610 0.726770 0.051504 0.204913
H5    H     H_    0.654447 0.271249 0.948435 0.214118
H6    H     H_    0.000237 0.621430 0.144725 0.345905
H7    H     H_    0.969580 0.610817 0.893823 0.345104
H8    H     H_    0.907948 0.990152 0.344486 0.353677
H9    H     H_    0.091885 0.009578 0.655365 0.355375
H10   H     H_    0.012945 0.382775 0.436735 0.212826
N1    N     N_2   0.950320 0.457950 0.477300 -0.153118
N2    N     N_2   0.049680 0.542050 0.522700 -0.152634
O1    O     O_R   0.389250 0.738570 0.505570 -0.608976
O2    O     O_R   0.715202 0.812211 0.863182 -0.795450
O3    O     O_2   0.265916 0.125835 0.997085 -0.553273
O4    O     O_R   0.268507 0.194533 0.137264 -0.778838
O5    O     O_2   0.912777 0.390048 0.067115 -0.601001
O6    O     O_R   0.883076 0.634547 0.120265 -0.749713
O7    O     O_2   0.123656 0.376621 0.885851 -0.578999
O8    O     O_R   0.077818 0.625466 0.927514 -0.772112
O9    O     O_2   0.621571 0.083089 0.349280 -0.609141
O10   O     O_R   0.842983 0.951432 0.398190 -0.758797
O11   O     O_2   0.378434 0.917025 0.650722 -0.606570
O12   O     O_R   0.610750 0.261430 0.494430 -0.607689
O13   O     O_R   0.156891 0.048342 0.601681 -0.756832
O14   O     O_R   0.678390 0.711630 0.491020 -0.590745
O15   O     O_R   0.321610 0.288370 0.508980 -0.590128
O16   O     O_R   0.355460 0.513480 0.630490 -0.587063
O17   O     O_R   0.644540 0.486520 0.369510 -0.588080
O18   O     O_R   0.644600 0.486540 0.615950 -0.629587
O19   O     O_R   0.355400 0.513460 0.384050 -0.631864
O20   O     O_2   0.732480 0.871844 0.004072 -0.542143
Zn1   Zn    Zn3+2 0.306940 0.517990 0.509710 1.029304
Zn2   Zn    Zn3+2 0.693060 0.482010 0.490290 1.029588

loop_
_geom_bond_atom_site_label_1
_geom_bond_atom_site_label_2
_ccdc_geom_bond_type
C16   O9    D    
C11   O2    S    
C8    C22   S    
O17   Zn2   S    
O12   Zn2   S    
C3    C9    T    
C19   O19   A    
H1    O2    S    
C6    C14   S    
C1    O14   A    
N1    N2    D    
C1    O1    A    
H3    O4    S    
C14   O6    S    
C6    C24   S    
C19   O17   A    
O18   Zn2   S    
C18   O16   A    
C11   O20   D    
H8    O10   S    
C22   H4    S    
C14   O5    D    
N1    Zn2   S    
O15   Zn1   S    
C6    C23   S    
C23   H5    S    
H2    N2    S    
C16   C20   S    
C12   O12   A    
C15   O8    S    
N2    Zn1   S    
C22   C24   S    
O19   Zn1   S    
C16   O10   S    
O1    Zn1   S    
C7    C23   S    
C13   O3    D    
C2    C5    S    
C5    C15   S    
H7    O8    S    
C18   O18   A    
C15   O7    D    
C7    C24   S    
O14   Zn2   S    
C7    C9    S    
C11   C24   S    
C12   O15   A    
C20   C21   D    
C3    C18   S    
C8    C10   S    
H10   N1    S    
O16   Zn1   S    
H9    O13   S    
C17   O13   S    
C2    C23   S    
C5    C7    S    
C2    C13   S    
H6    O6    S    
C1    C20   S    
C6    C8    S    
C4    C19   S    
C4    C10   T    
C12   C21   S    
C2    C8    S    
C5    C22   S    
C17   O11   D    
C13   O4    S    
C17   C21   S    
