data_mof_unit_20059.cif
_audit_creation_date              2012-12-11T15:41:27-0500
_audit_creation_method            fapswitch 2.2
_symmetry_space_group_name_H-M    P1
_symmetry_Int_Tables_number       1
_space_group_crystal_system       triclinic
_cell_length_a                    14.881042
_cell_length_b                    15.114597
_cell_length_c                    14.892108
_cell_angle_alpha                 109.187903
_cell_angle_beta                  109.119921
_cell_angle_gamma                 109.62305
_cell_volume                      2593.68775865

loop_
_atom_site_label
_atom_site_type_symbol
_atom_type_description
_atom_site_fract_x
_atom_site_fract_y
_atom_site_fract_z
_atom_type_partial_charge
C1    C     C_R   0.250060 0.063934 0.972442 -0.110097
C2    C     C_R   0.763632 0.843694 0.303077 -0.071697
C3    C     C_R   0.350152 0.207804 0.686040 -0.147521
C4    C     C_R   0.676377 0.745458 0.212756 -0.153907
C5    C     C_R   0.332883 0.286941 0.747343 0.102494
C6    C     C_R   0.693101 0.687086 0.130774 0.131837
C7    C     C_R   0.225575 0.263230 0.724451 -0.234370
C8    C     C_R   0.798837 0.723645 0.143811 -0.257343
C9    C     C_R   0.136514 0.159259 0.646133 -0.059533
C10   C     C_R   0.886953 0.821966 0.234573 -0.137187
C11   C     C_R   0.156066 0.079395 0.589683 -0.142918
C12   C     C_R   0.805053 0.006144 0.096212 -0.143212
C13   C     C_R   0.867979 0.882448 0.313243 -0.118333
C14   C     C_R   0.431003 0.486699 0.853687 -0.232610
C15   C     C_R   0.597347 0.493854 0.017008 -0.229525
C16   C     C_R   0.802643 0.208246 0.299682 -0.114819
C17   C     C_R   0.223926 0.776478 0.685568 -0.123167
C18   C     C_R   0.515060 0.584615 0.947372 0.066550
C19   C     C_R   0.509050 0.395214 0.928973 0.057399
C20   C     C_R   0.600672 0.588352 0.028907 0.024575
C21   C     C_R   0.426798 0.390315 0.843109 0.038314
C22   C     C_R   0.024530 0.477467 0.378228 -0.150831
C23   C     C_R   0.865459 0.299876 0.300043 0.045377
C24   C     C_R   0.102640 0.475861 0.574915 -0.153273
C25   C     C_R   0.101693 0.573146 0.473865 -0.151920
C26   C     C_R   0.025281 0.380270 0.479305 -0.151073
C27   C     C_R   0.131783 0.573535 0.573468 0.129995
C28   C     C_R   0.976893 0.383227 0.383199 0.120205
C29   C     C_R   0.596677 0.924066 0.563716 -0.077688
C30   C     C_R   0.398292 0.873538 0.397544 -0.085227
C31   C     C_R   0.593670 0.936283 0.473797 -0.227149
C32   C     C_R   0.400321 0.845455 0.477273 -0.222061
C33   C     C_R   0.496770 0.920352 0.395045 0.048983
C34   C     C_R   0.190560 0.674542 0.674645 0.047748
C35   C     C_R   0.500353 0.894556 0.571710 0.075570
C36   C     C_R   0.128575 0.062016 0.158050 -0.115066
C37   C     C_R   0.034520 0.156968 0.055149 -0.153616
C38   C     C_R   0.038681 0.066576 0.162472 -0.146529
C39   C     C_R   0.125161 0.153416 0.051953 -0.152087
C40   C     C_R   0.408851 0.910055 0.211401 -0.093168
C41   C     C_R   0.593300 0.024764 0.778296 -0.092166
C42   C     C_R   0.984125 0.103117 0.100519 0.114735
C43   C     C_R   0.164217 0.094437 0.092494 0.116242
C44   C     C_R   0.592349 0.298704 0.998377 -0.133294
C45   C     C_R   0.498959 0.950106 0.310767 0.081785
C46   C     C_R   0.412159 0.686184 0.948530 -0.139330
C47   C     C_R   0.591028 0.007432 0.306185 -0.126218
C48   C     C_R   0.410861 0.938295 0.686320 -0.135970
C49   C     C_R   0.409495 0.211484 0.910481 -0.138009
C50   C     C_R   0.594190 0.782244 0.024237 -0.105727
C51   C     C_R   0.802119 0.299097 0.207891 -0.123016
C52   C     C_R   0.227682 0.686302 0.777856 -0.117850
C53   C     C_R   0.249943 0.973486 0.065294 -0.101443
C54   C     C_R   0.804307 0.095958 0.004376 -0.085663
C55   C     C_R   0.223508 0.049459 0.049355 0.039859
C56   C     C_R   0.502608 0.946770 0.676008 0.078019
C57   C     C_R   0.868868 0.068567 0.067252 0.058641
C58   C     C_2   0.024312 0.134060 0.626367 0.977188
C59   C     C_2   0.999062 0.860825 0.248839 1.025781
C60   C     C_2   0.698423 0.939191 0.645098 0.972094
C61   C     C_2   0.299434 0.877010 0.338692 0.988757
C62   C     C_R   0.501985 0.303221 0.941677 0.061228
C63   C     C_R   0.506328 0.679721 0.963943 0.054859
C64   C     C_R   0.261962 0.104286 0.607933 -0.060287
H1    H     H_    0.239095 0.115021 0.938883 0.093718
H2    H     H_    0.660237 0.498334 0.083963 0.138383
H3    H     H_    0.994728 0.480763 0.303451 0.119571
H4    H     H_    0.132165 0.472584 0.649740 0.120583
H5    H     H_    0.130656 0.646611 0.469415 0.120835
H6    H     H_    0.995880 0.307104 0.484173 0.125220
H7    H     H_    0.667712 0.962085 0.468122 0.157844
H8    H     H_    0.323895 0.807686 0.476348 0.133979
H9    H     H_    0.162098 0.023178 0.196517 0.145774
H10   H     H_    0.998658 0.192192 0.012268 0.116252
H11   H     H_    0.829337 0.176723 0.352278 0.090047
H12   H     H_    0.832823 0.983148 0.156906 0.089263
H13   H     H_    0.193922 0.795727 0.622526 0.093266
H14   H     H_    0.006484 0.031615 0.205222 0.108165
H15   H     H_    0.155857 0.186959 0.007523 0.115097
H16   H     H_    0.326936 0.845232 0.176575 0.098944
H17   H     H_    0.678590 0.057558 0.800749 0.107922
H18   H     H_    0.676821 0.349926 0.023065 0.096343
H19   H     H_    0.331238 0.619934 0.913528 0.099809
H20   H     H_    0.675739 0.037777 0.362306 0.095278
H21   H     H_    0.328193 0.897359 0.621938 0.090456
H22   H     H_    0.325112 0.185026 0.857956 0.115504
H23   H     H_    0.276067 0.042482 0.563378 0.152496
H24   H     H_    0.678893 0.806708 0.048159 0.121858
H25   H     H_    0.827877 0.351118 0.175491 0.088793
H26   H     H_    0.204570 0.624490 0.799703 0.091210
H27   H     H_    0.238879 0.941697 0.118330 0.129989
H28   H     H_    0.831392 0.156117 0.980913 0.077336
H29   H     H_    0.089679 0.997598 0.531988 0.173690
H30   H     H_    0.933761 0.960227 0.381761 0.148794
H31   H     H_    0.923995 0.190071 0.650559 0.344351
H32   H     H_    0.950366 0.796605 0.086771 0.281887
H33   H     H_    0.863151 0.009091 0.717864 0.336556
H34   H     H_    0.750115 0.890613 0.364461 0.142783
H35   H     H_    0.237722 0.968061 0.303276 0.357114
H36   H     H_    0.432329 0.224901 0.702322 0.125747
H37   H     H_    0.595287 0.717078 0.204302 0.121746
H38   H     H_    0.212473 0.324264 0.772140 0.161213
H39   H     H_    0.811162 0.675001 0.082257 0.134714
H40   H     H_    0.366817 0.485340 0.790840 0.134831
N1    N     N_R   0.293810 0.002730 0.945950 -0.043784
N2    N     N_R   0.443210 0.997250 0.791090 -0.042654
N3    N     N_R   0.443180 0.152110 0.945950 -0.042188
N4    N     N_R   0.556820 0.847890 0.054050 -0.047676
N5    N     N_R   0.706170 0.208950 0.152090 -0.040937
N6    N     N_R   0.293830 0.791050 0.847910 -0.038725
N7    N     N_R   0.293800 0.945910 0.002760 -0.046459
N8    N     N_R   0.706200 0.054090 0.997240 -0.038728
N9    N     N_R   0.706190 0.997270 0.054050 -0.038243
N10   N     N_R   0.706160 0.152130 0.208910 -0.039522
N11   N     N_R   0.293840 0.847870 0.791090 -0.038390
N12   N     N_R   0.443140 0.945920 0.152090 -0.048501
N13   N     N_R   0.556860 0.054080 0.847910 -0.050630
N14   N     N_R   0.556830 0.208940 0.002760 -0.039706
N15   N     N_R   0.443170 0.791060 0.997240 -0.042819
N16   N     N_R   0.556790 0.002750 0.208910 -0.043393
Ni1   Ni    Ni4+2 0.369690 0.999990 0.869700 0.224545
Ni2   Ni    Ni4+2 0.630310 0.000010 0.130300 0.213078
Ni3   Ni    Ni4+2 0.369670 0.869670 0.000000 0.227893
Ni4   Ni    Ni4+2 0.630330 0.130330 0.000000 0.213803
O1    O     O_2   0.949402 0.040548 0.571610 -0.652500
O2    O     O_R   0.003839 0.217365 0.670671 -0.817784
O3    O     O_2   0.077972 0.920295 0.340638 -0.645643
O4    O     O_R   0.017675 0.831451 0.160039 -0.783990
O5    O     O_2   0.693418 0.892492 0.698123 -0.637343
O6    O     O_R   0.800001 0.005104 0.659898 -0.788195
O7    O     O_2   0.208609 0.797471 0.291269 -0.610679
O8    O     O_R   0.310682 0.974032 0.343041 -0.801531

loop_
_geom_bond_atom_site_label_1
_geom_bond_atom_site_label_2
_ccdc_geom_bond_type
C37   H10   S    
N11   Ni1   S    
N12   Ni3   S    
C16   H11   S    
C33   C45   S    
C14   C18   A    
C53   C55   A    
C52   H26   S    
C24   C27   A    
C49   N3    A    
C3    C64   A    
C15   C19   A    
H35   O8    S    
C14   C21   A    
C19   C21   A    
N13   Ni4   S    
C24   C26   A    
H33   O6    S    
C38   C42   A    
C44   H18   S    
C18   C63   S    
C19   C62   S    
C59   O3    D    
H32   O4    S    
C48   C56   A    
C9    C58   S    
C37   C42   A    
C2    C13   A    
C61   O8    S    
C14   H40   S    
C3    H36   S    
C48   N2    A    
N9    Ni2   S    
C22   C25   A    
C53   H27   S    
C1    H1    S    
C40   H16   S    
C44   N14   A    
N3    N14   A    
C50   H24   S    
C53   N7    A    
C31   H7    S    
N1    N7    A    
C51   N5    A    
C22   C28   A    
C50   N4    A    
C50   C63   A    
N4    N15   A    
C40   C45   A    
C42   C57   S    
N8    N9    A    
N16   Ni2   S    
C45   C47   A    
C27   C34   S    
C15   C20   A    
C31   C33   A    
N7    Ni3   S    
C32   C35   A    
N1    Ni1   S    
C4    C6    A    
C11   C64   A    
C60   O6    S    
C5    C7    A    
C24   H4    S    
C39   C43   A    
C38   H14   S    
C44   C62   A    
C59   O4    S    
C47   H20   S    
C15   H2    S    
C7    H38   S    
N12   N16   A    
C39   H15   S    
C2    C4    A    
C41   C56   A    
C54   H28   S    
N6    Ni3   S    
C23   C51   A    
C29   C60   S    
C52   N6    A    
C41   H17   S    
C4    H37   S    
C17   H13   S    
C54   N8    A    
N14   Ni4   S    
C23   C28   S    
C9    C11   A    
N5    N10   A    
C12   C57   A    
C43   C55   S    
C47   N16   A    
C58   O2    S    
C16   C23   A    
C12   H12   S    
N2    N13   A    
C26   H6    S    
C25   H5    S    
C17   C34   A    
N3    Ni1   S    
C17   N11   A    
C12   N9    A    
C7    C9    A    
C49   C62   A    
C64   H23   S    
C30   C33   A    
C35   C56   S    
C34   C52   A    
C49   H22   S    
C8    C10   A    
N4    Ni2   S    
C3    C5    A    
C10   C13   A    
C16   N10   A    
C60   O5    D    
C6    C8    A    
N5    Ni4   S    
N8    Ni4   S    
N15   Ni3   S    
C25   C27   A    
C6    C20   S    
C29   C35   A    
C26   C28   A    
C13   H30   S    
C36   C38   A    
C10   C59   S    
C1    C55   A    
C29   C31   A    
C51   H25   S    
C30   C32   A    
H31   O2    S    
C11   H29   S    
C40   N12   A    
C46   C63   A    
N2    Ni1   S    
C46   N15   A    
C18   C20   A    
C8    H39   S    
C22   H3    S    
C36   H9    S    
C61   O7    D    
C46   H19   S    
N10   Ni2   S    
C5    C21   S    
C2    H34   S    
C58   O1    D    
C37   C39   A    
C30   C61   S    
C48   H21   S    
C36   C43   A    
C41   N13   A    
N6    N11   A    
C1    N1    A    
C32   H8    S    
C54   C57   A    
