data_mof_unit_51828.cif
_audit_creation_date              2013-03-05T15:51:40-0500
_audit_creation_method            fapswitch 2.2
_symmetry_space_group_name_H-M    P1
_symmetry_Int_Tables_number       1
_space_group_crystal_system       triclinic
_cell_length_a                    30.17472
_cell_length_b                    22.526346
_cell_length_c                    18.083807
_cell_angle_alpha                 90.161464
_cell_angle_beta                  122.863348
_cell_angle_gamma                 89.929425
_cell_volume                      10324.8658607

loop_
_atom_site_label
_atom_site_type_symbol
_atom_site_description
_atom_site_fract_x
_atom_site_fract_y
_atom_site_fract_z
_atom_type_partial_charge
C1    C     C_R   0.537150 0.600393 0.722105 -0.003734
C2    C     C_R   0.455491 0.421242 0.255859 0.002213
C3    C     C_R   0.455410 0.582114 0.257622 -0.073083
C4    C     C_R   0.544467 0.423441 0.744630 0.009859
C5    C     C_R   0.036126 0.103556 0.717343 0.018299
C6    C     C_R   0.956032 0.920890 0.256937 0.006693
C7    C     C_R   0.963450 0.102492 0.281308 0.001870
C8    C     C_R   0.044417 0.919668 0.743036 0.024415
N1    N     N_R   0.532910 0.558440 0.665240 -0.073402
N2    N     N_R   0.467090 0.441560 0.334760 -0.045397
N3    N     N_R   0.467090 0.558440 0.334760 -0.079941
N4    N     N_R   0.532910 0.441560 0.665240 -0.043471
N5    N     N_R   0.032910 0.058440 0.665240 -0.067801
N6    N     N_R   0.967090 0.941560 0.334760 -0.043254
N7    N     N_R   0.967090 0.058440 0.334760 -0.073235
N8    N     N_R   0.032910 0.941560 0.665240 -0.045501
C9    C     C_R   0.630721 0.604885 0.572585 -0.110789
C10   C     C_R   0.375323 0.390636 0.425882 -0.100648
C11   C     C_R   0.354974 0.579871 0.425189 -0.129663
C12   C     C_R   0.624244 0.390428 0.574451 -0.101614
C13   C     C_R   0.145195 0.079411 0.574602 -0.144752
C14   C     C_R   0.858286 0.911472 0.427351 -0.134322
C15   C     C_R   0.854462 0.078221 0.425727 -0.156502
C16   C     C_R   0.125086 0.890988 0.573912 -0.111914
H1    H     H_    0.662556 0.613904 0.639181 0.111382
H2    H     H_    0.348698 0.378489 0.357840 0.107998
H3    H     H_    0.321991 0.576367 0.357598 0.108322
H4    H     H_    0.650930 0.378691 0.642558 0.109423
H5    H     H_    0.178440 0.075381 0.641850 0.109231
H6    H     H_    0.823987 0.911999 0.360727 0.107558
H7    H     H_    0.821324 0.073760 0.358432 0.106885
H8    H     H_    0.151944 0.878986 0.641883 0.104898
N9    N     N_R   0.597030 0.558910 0.545540 -0.048275
N10   N     N_R   0.402970 0.441090 0.454460 -0.052457
N11   N     N_R   0.402970 0.558910 0.454460 -0.049816
N12   N     N_R   0.597030 0.441090 0.545540 -0.051392
N13   N     N_R   0.097030 0.058910 0.545540 -0.047451
N14   N     N_R   0.902970 0.941090 0.454460 -0.049525
N15   N     N_R   0.902970 0.058910 0.454460 -0.045115
N16   N     N_R   0.097030 0.941090 0.545540 -0.051590
C17   C     C_R   0.576880 0.609138 0.427088 -0.029465
C18   C     C_R   0.425005 0.389024 0.572600 0.108434
C19   C     C_R   0.401258 0.577980 0.570534 0.034186
C20   C     C_R   0.573936 0.387744 0.428177 0.063803
C21   C     C_R   0.098724 0.077745 0.429388 0.036150
C22   C     C_R   0.908195 0.909804 0.573997 0.061462
C23   C     C_R   0.900995 0.076678 0.570724 0.022973
C24   C     C_R   0.075426 0.889263 0.427130 0.101918
H9    H     H_    0.555654 0.626667 0.361881 0.073406
H10   H     H_    0.443678 0.375093 0.640084 0.120977
H11   H     H_    0.408533 0.571975 0.635099 0.127064
H12   H     H_    0.554276 0.371968 0.361497 0.140081
H13   H     H_    0.091389 0.071548 0.364747 0.122861
H14   H     H_    0.918336 0.908180 0.640844 0.147639
H15   H     H_    0.908816 0.070485 0.635583 0.126285
H16   H     H_    0.057044 0.875278 0.359626 0.114676
N17   N     N_R   0.566200 0.559270 0.454460 -0.052526
N18   N     N_R   0.433800 0.440730 0.545540 -0.036068
N19   N     N_R   0.433800 0.559270 0.545540 -0.059544
N20   N     N_R   0.566200 0.440730 0.454460 -0.039448
N21   N     N_R   0.066200 0.059270 0.454460 -0.056819
N22   N     N_R   0.933800 0.940730 0.545540 -0.055447
N23   N     N_R   0.933800 0.059270 0.545540 -0.058662
N24   N     N_R   0.066200 0.940730 0.454460 -0.035407
C25   C     C_R   0.382753 0.585593 0.261461 -0.169197
C26   C     C_R   0.617330 0.417720 0.742607 -0.107050
C27   C     C_R   0.612080 0.599207 0.725511 -0.175847
C28   C     C_R   0.382638 0.416815 0.258040 -0.107835
C29   C     C_R   0.889876 0.103732 0.283034 -0.155072
C30   C     C_R   0.117186 0.916260 0.740327 -0.127138
C31   C     C_R   0.109813 0.104359 0.716139 -0.152357
C32   C     C_R   0.883425 0.913755 0.260505 -0.081135
H17   H     H_    0.341742 0.587469 0.240709 0.116604
H18   H     H_    0.658445 0.418328 0.764387 0.101976
H19   H     H_    0.652964 0.604696 0.747603 0.118321
H20   H     H_    0.341530 0.417564 0.236319 0.098521
H21   H     H_    0.851021 0.113002 0.269508 0.112371
H22   H     H_    0.158731 0.917802 0.764318 0.112930
H23   H     H_    0.148589 0.113783 0.729519 0.110541
H24   H     H_    0.842620 0.911058 0.240471 0.102228
N25   N     N_R   0.421050 0.559750 0.334770 -0.045210
N26   N     N_R   0.578950 0.440250 0.665230 -0.048673
N27   N     N_R   0.578950 0.559750 0.665230 -0.050727
N28   N     N_R   0.421050 0.440250 0.334770 -0.047500
N29   N     N_R   0.921050 0.059750 0.334770 -0.052100
N30   N     N_R   0.078950 0.940250 0.665230 -0.050398
N31   N     N_R   0.078950 0.059750 0.665230 -0.050203
N32   N     N_R   0.921050 0.940250 0.334770 -0.049456
C33   C     C_R   0.585802 0.628527 0.758752 0.016433
C34   C     C_R   0.403172 0.402456 0.207307 -0.027407
C35   C     C_R   0.403386 0.600420 0.212137 0.032259
C36   C     C_R   0.596736 0.404597 0.793677 -0.031660
C37   C     C_R   0.083490 0.134323 0.748962 0.010679
C38   C     C_R   0.904554 0.899654 0.210340 -0.035288
C39   C     C_R   0.915899 0.133043 0.249284 0.016745
C40   C     C_R   0.096219 0.901410 0.789140 -0.049937
C41   C     C_R   0.617914 0.637829 0.498986 0.069699
C42   C     C_R   0.389474 0.355922 0.498453 0.017115
C43   C     C_R   0.351981 0.591077 0.496702 0.037859
C44   C     C_R   0.609498 0.354957 0.502302 0.016930
C45   C     C_R   0.148038 0.090860 0.503126 0.043567
C46   C     C_R   0.860879 0.890786 0.501613 0.084829
C47   C     C_R   0.851330 0.088854 0.497307 0.050457
C48   C     C_R   0.111125 0.856425 0.501153 0.021190
Ni1   Ni    Ni4+2 0.483090 0.500000 0.604440 0.289391
Ni2   Ni    Ni4+2 0.516910 0.500000 0.395560 0.278617
Ni3   Ni    Ni4+2 0.983090 0.000000 0.604440 0.279035
Ni4   Ni    Ni4+2 0.016910 0.000000 0.395560 0.291705
Ni5   Ni    Ni4+2 0.586780 0.500000 0.604440 0.234677
Ni6   Ni    Ni4+2 0.413220 0.500000 0.395560 0.223503
Ni7   Ni    Ni4+2 0.086780 0.000000 0.604440 0.225974
Ni8   Ni    Ni4+2 0.913220 0.000000 0.395560 0.218758
C49   C     C_R   0.225317 0.668533 0.422007 -0.141798
C50   C     C_R   0.708870 0.233584 0.573578 -0.136493
C51   C     C_R   0.680077 0.788442 0.568949 -0.116228
C52   C     C_R   0.290597 0.233772 0.426100 -0.139117
C53   C     C_R   0.723478 0.164898 0.421063 -0.106500
C54   C     C_R   0.210666 0.735535 0.571964 -0.026944
C55   C     C_R   0.273973 0.169871 0.576941 -0.104236
C56   C     C_R   0.725065 0.882812 0.459165 -0.171376
H25   H     H_    0.201596 0.702053 0.373379 0.139282
H26   H     H_    0.750331 0.228175 0.624160 0.138536
H27   H     H_    0.697770 0.815698 0.627759 0.141670
H28   H     H_    0.249260 0.227930 0.375087 0.137546
H29   H     H_    0.698845 0.196950 0.370499 0.178557
H30   H     H_    0.252357 0.730509 0.621462 0.163204
H31   H     H_    0.297411 0.203829 0.625189 0.181424
H32   H     H_    0.686526 0.901656 0.413432 0.137416
C57   C     C_R   0.268264 0.644947 0.423925 -0.154795
C58   C     C_R   0.682947 0.283937 0.574622 -0.161617
C59   C     C_R   0.656178 0.735082 0.566350 -0.146433
C60   C     C_R   0.316359 0.284350 0.425499 -0.153581
C61   C     C_R   0.766271 0.140713 0.422844 -0.152460
C62   C     C_R   0.185029 0.786259 0.572499 -0.140842
C63   C     C_R   0.231125 0.146101 0.575127 -0.149019
C64   C     C_R   0.767747 0.899279 0.454250 -0.104530
H33   H     H_    0.276370 0.660506 0.375775 0.133958
H34   H     H_    0.705495 0.316025 0.626540 0.135667
H35   H     H_    0.652406 0.723900 0.620881 0.111503
H36   H     H_    0.293884 0.316113 0.373289 0.133551
H37   H     H_    0.773254 0.154566 0.372686 0.147240
H38   H     H_    0.207852 0.818944 0.623331 0.127831
H39   H     H_    0.222738 0.162027 0.622903 0.145920
H40   H     H_    0.762301 0.933849 0.408510 0.126295
C65   C     C_R   0.302736 0.605699 0.491038 0.118702
C66   C     C_R   0.630599 0.295221 0.505901 0.127219
C67   C     C_R   0.640202 0.694977 0.496603 0.103620
C68   C     C_R   0.368415 0.296256 0.494968 0.125049
C69   C     C_R   0.802027 0.103420 0.492139 0.093762
C70   C     C_R   0.132424 0.797029 0.504522 0.104216
C71   C     C_R   0.197152 0.105979 0.508670 0.101846
C72   C     C_R   0.816671 0.870582 0.506508 0.134572
C73   C     C_R   0.290223 0.585241 0.551828 -0.056783
C74   C     C_R   0.602513 0.251356 0.439785 -0.022744
C75   C     C_R   0.644385 0.711255 0.424822 -0.047946
C76   C     C_R   0.396467 0.252810 0.561438 -0.025905
C77   C     C_R   0.790842 0.085608 0.555729 -0.017590
C78   C     C_R   0.103850 0.752604 0.439646 -0.031028
C79   C     C_R   0.209999 0.085039 0.448394 -0.045319
C80   C     C_R   0.823543 0.826972 0.568020 -0.065714
C81   C     C_R   0.248553 0.612270 0.552306 -0.221238
C82   C     C_R   0.630243 0.202382 0.436862 -0.265402
C83   C     C_R   0.664283 0.766989 0.425186 -0.240177
C84   C     C_R   0.368858 0.203658 0.563852 -0.254989
C85   C     C_R   0.749067 0.112897 0.555550 -0.280117
C86   C     C_R   0.131162 0.702944 0.437591 -0.261416
C87   C     C_R   0.251615 0.112113 0.447895 -0.258694
C88   C     C_R   0.780894 0.812807 0.574402 -0.212536
H41   H     H_    0.742425 0.103522 0.607591 0.127472
H42   H     H_    0.111262 0.670798 0.384597 0.138961
H43   H     H_    0.259528 0.100305 0.397954 0.135359
H44   H     H_    0.784557 0.775919 0.615565 0.186970
H45   H     H_    0.241027 0.601156 0.602846 0.162011
H46   H     H_    0.610678 0.170791 0.383039 0.134133
H47   H     H_    0.670903 0.777867 0.373459 0.133373
H48   H     H_    0.388258 0.172542 0.618098 0.137624
C89   C     C_R   0.217040 0.654711 0.488726 0.105877
C90   C     C_R   0.683564 0.194380 0.502529 0.130284
C91   C     C_R   0.686159 0.803162 0.499922 0.106710
C92   C     C_R   0.315763 0.195067 0.497460 0.127842
C93   C     C_R   0.716405 0.153540 0.489781 0.106703
C94   C     C_R   0.184627 0.695233 0.502560 0.111979
C95   C     C_R   0.282705 0.155289 0.510836 0.104829
C96   C     C_R   0.731305 0.838455 0.517837 0.112950
C97   C     C_R   0.373902 0.630320 0.128154 0.160631
C98   C     C_R   0.626798 0.382665 0.885928 0.112330
C99   C     C_R   0.605050 0.682694 0.813960 0.132060
C100  C     C_R   0.372986 0.380020 0.115114 0.108002
C101  C     C_R   0.896479 0.187054 0.193413 0.130744
C102  C     C_R   0.128657 0.879525 0.878272 0.102247
C103  C     C_R   0.102323 0.189171 0.803556 0.131671
C104  C     C_R   0.875685 0.874683 0.120426 0.113682
C105  C     C_R   0.330435 0.631975 0.970610 -0.119213
C106  C     C_R   0.629946 0.333371 0.007924 -0.099702
C107  C     C_R   0.604178 0.753398 0.914287 -0.097155
C108  C     C_R   0.369701 0.330357 0.992859 -0.107957
C109  C     C_R   0.897075 0.254827 0.090067 -0.103182
C110  C     C_R   0.187801 0.900792 0.032848 -0.098724
C111  C     C_R   0.100853 0.258426 0.905151 -0.101010
C112  C     C_R   0.874601 0.818482 0.005233 -0.112863
C113  C     C_R   0.363907 0.603978 0.050694 -0.092623
C114  C     C_R   0.601170 0.356182 0.922909 -0.194077
C115  C     C_R   0.588755 0.699131 0.870395 -0.105916
C116  C     C_R   0.398455 0.352304 0.078510 -0.194188
C117  C     C_R   0.912332 0.201516 0.135791 -0.110216
C118  C     C_R   0.142946 0.915181 0.951207 -0.199415
C119  C     C_R   0.085794 0.204716 0.860056 -0.108822
C120  C     C_R   0.902355 0.844336 0.088234 -0.187200
C121  C     C_R   0.351272 0.684088 0.126592 -0.218237
C122  C     C_R   0.681931 0.383889 0.934976 -0.182702
C123  C     C_R   0.640675 0.718973 0.808591 -0.198118
C124  C     C_R   0.317895 0.382853 0.065224 -0.192312
C125  C     C_R   0.860353 0.224167 0.196839 -0.197158
C126  C     C_R   0.157606 0.829635 0.886890 -0.183960
C127  C     C_R   0.138656 0.225887 0.800335 -0.196345
C128  C     C_R   0.820785 0.877867 0.068807 -0.191352
C129  C     C_R   0.316167 0.712404 0.047122 0.085907
C130  C     C_R   0.712000 0.355309 0.017177 0.087933
C131  C     C_R   0.663010 0.769235 0.862640 0.085370
C132  C     C_R   0.287663 0.355045 0.982201 0.088678
C133  C     C_R   0.838946 0.274480 0.142218 0.087590
C134  C     C_R   0.206831 0.820305 0.963348 0.078863
C135  C     C_R   0.159786 0.276679 0.854380 0.087632
C136  C     C_R   0.791434 0.846664 0.988683 0.089998
C137  C     C_R   0.305387 0.685679 0.967379 -0.014748
C138  C     C_R   0.685288 0.330029 0.054446 -0.025163
C139  C     C_R   0.640937 0.789357 0.910438 -0.021052
C140  C     C_R   0.314292 0.328970 0.945123 -0.025564
C141  C     C_R   0.860888 0.292223 0.093249 -0.018148
C142  C     C_R   0.220703 0.853451 0.039983 -0.012242
C143  C     C_R   0.137514 0.295222 0.902631 -0.018528
C144  C     C_R   0.819176 0.816337 0.956614 -0.023388
C145  C     C_R   0.287375 0.762747 0.045015 0.036888
C146  C     C_R   0.766812 0.344498 0.056884 0.026658
C147  C     C_R   0.710684 0.794930 0.879487 0.039374
C148  C     C_R   0.232573 0.345698 0.941237 0.026690
C149  C     C_R   0.792378 0.302910 0.126361 0.035999
C150  C     C_R   0.242418 0.779314 0.963938 0.028403
C151  C     C_R   0.206646 0.304561 0.870918 0.036511
C152  C     C_R   0.736211 0.838012 0.946989 0.026645
C153  C     C_R   0.795735 0.369728 0.024385 -0.300899
C154  C     C_R   0.300920 0.795668 0.121423 -0.300935
C155  C     C_R   0.203643 0.371709 0.973327 -0.304421
C156  C     C_R   0.737196 0.773167 0.840317 -0.315731
C157  C     C_R   0.235283 0.756212 0.885281 -0.314540
C158  C     C_R   0.767407 0.286621 0.170430 -0.290044
C159  C     C_R   0.706815 0.866366 0.976629 -0.311068
C160  C     C_R   0.231595 0.287976 0.826857 -0.294186
C161  C     C_R   0.842715 0.344276 0.042345 0.318058
C162  C     C_R   0.268310 0.840531 0.119719 0.322348
C163  C     C_R   0.156021 0.347288 0.953921 0.321599
C164  C     C_R   0.791059 0.782242 0.879108 0.334521
C165  C     C_R   0.267101 0.710955 0.886339 0.352585
C166  C     C_R   0.714396 0.299665 0.135274 0.344216
C167  C     C_R   0.659466 0.842363 0.959256 0.327600
C168  C     C_R   0.284928 0.299722 0.863173 0.342722
H49   H     H_    0.700719 0.403671 0.905059 0.114886
H50   H     H_    0.358605 0.700213 0.188526 0.129677
H51   H     H_    0.299167 0.403436 0.094876 0.114665
H52   H     H_    0.651547 0.705948 0.763378 0.107722
H53   H     H_    0.142872 0.801645 0.829461 0.140926
H54   H     H_    0.847956 0.211541 0.240133 0.118662
H55   H     H_    0.801712 0.901655 0.095509 0.114466
H56   H     H_    0.151725 0.212391 0.758184 0.117338
H57   H     H_    0.558784 0.351056 0.885553 0.121203
H58   H     H_    0.380411 0.560955 0.051998 0.132021
H59   H     H_    0.440701 0.345870 0.116425 0.125737
H60   H     H_    0.564675 0.670289 0.882089 0.141500
H61   H     H_    0.121377 0.955498 0.944063 0.124969
H62   H     H_    0.935620 0.171552 0.123717 0.134453
H63   H     H_    0.944739 0.838895 0.127957 0.118257
H64   H     H_    0.062213 0.175252 0.871963 0.132260
H65   H     H_    0.321845 0.609262 0.911470 0.173431
H66   H     H_    0.608121 0.315004 0.034049 0.179098
H67   H     H_    0.590135 0.764726 0.956320 0.173791
H68   H     H_    0.391472 0.311139 0.967054 0.179610
H69   H     H_    0.910800 0.264220 0.047086 0.173344
H70   H     H_    0.198414 0.929659 0.087933 0.172060
H71   H     H_    0.086728 0.268497 0.947451 0.173815
H72   H     H_    0.897198 0.797293 0.982387 0.175835
H73   H     H_    0.782222 0.409020 0.983972 0.178085
H74   H     H_    0.337466 0.788251 0.183568 0.178523
H75   H     H_    0.217672 0.410769 0.014530 0.174998
H76   H     H_    0.718292 0.744860 0.783190 0.160759
H77   H     H_    0.206416 0.774541 0.821715 0.168190
H78   H     H_    0.787272 0.261033 0.230272 0.164745
H79   H     H_    0.720458 0.906601 0.015150 0.174984
H80   H     H_    0.211338 0.263180 0.766064 0.164107
C169  C     C_2   0.498144 0.611571 0.744792 0.399075
H81   H     H_    0.485727 0.575817 0.769415 0.071336
O1    O     O_2   0.478921 0.660896 0.735054 -0.551653
C170  C     C_2   0.485554 0.438746 0.216393 0.359441
H82   H     H_    0.465797 0.443051 0.145664 0.056327
O2    O     O_2   0.532402 0.450598 0.261976 -0.592559
C171  C     C_2   0.489836 0.580007 0.222784 0.435508
H83   H     H_    0.527075 0.556812 0.258608 0.115725
O3    O     O_2   0.478235 0.606109 0.155563 -0.563240
C172  C     C_2   0.514524 0.444950 0.782551 0.363577
H84   H     H_    0.532375 0.445984 0.853092 0.048854
O4    O     O_2   0.469993 0.464653 0.735342 -0.593634
C173  C     C_2   0.996688 0.116811 0.738380 0.390438
H85   H     H_    0.985151 0.082941 0.767034 0.082714
O5    O     O_2   0.976420 0.165914 0.723388 -0.554811
C174  C     C_2   0.985377 0.940801 0.217294 0.363294
H86   H     H_    0.968518 0.936415 0.147276 0.043800
O6    O     O_2   0.028226 0.964983 0.262203 -0.597692
C175  C     C_2   0.002153 0.113680 0.258005 0.391492
H87   H     H_    0.013994 0.077955 0.232153 0.066857
O7    O     O_2   0.021863 0.162810 0.268824 -0.555855
C176  C     C_2   0.014256 0.931355 0.783676 0.392970
H88   H     H_    0.022424 0.906013 0.840692 0.051255
O8    O     O_2   0.981790 0.971212 0.756645 -0.626759
C177  C     C_2   0.317457 0.535089 0.612950 0.516065
H89   H     H_    0.318265 0.532472 0.673603 0.043713
O9    O     O_2   0.336349 0.494431 0.593973 -0.559100
C178  C     C_2   0.544819 0.253426 0.374647 0.477485
H90   H     H_    0.527906 0.229984 0.312459 0.031963
O10   O     O_2   0.515286 0.278232 0.391464 -0.561512
C179  C     C_2   0.635550 0.669957 0.353983 0.501929
H91   H     H_    0.621636 0.687141 0.288861 0.037302
O11   O     O_2   0.646980 0.617441 0.368780 -0.546116
C180  C     C_2   0.453993 0.255569 0.627690 0.474951
H92   H     H_    0.470527 0.232735 0.690088 0.033911
O12   O     O_2   0.483855 0.280202 0.611615 -0.563988
C181  C     C_2   0.819693 0.038232 0.621318 0.472394
H93   H     H_    0.821560 0.038755 0.682976 0.029976
O13   O     O_2   0.838756 0.996277 0.605281 -0.606554
C182  C     C_2   0.046134 0.754950 0.374613 0.484505
H94   H     H_    0.028996 0.730778 0.312959 0.030187
O14   O     O_2   0.016813 0.780815 0.390933 -0.565503
C183  C     C_2   0.183181 0.034297 0.387879 0.513634
H95   H     H_    0.182812 0.030940 0.327655 0.033211
O15   O     O_2   0.164121 0.994001 0.406904 -0.562432
C184  C     C_2   0.872379 0.791266 0.621495 0.487794
H96   H     H_    0.879848 0.769114 0.680466 0.069230
O16   O     O_2   0.903333 0.783653 0.598661 -0.561715
N33   N     N_R   0.870174 0.370394 0.005669 0.240467
O17   O     O_R   0.921431 0.373845 0.052491 -0.347599
O18   O     O_R   0.844077 0.397926 0.930510 -0.372631
N34   N     N_R   0.283651 0.870988 0.200194 0.233975
O19   O     O_R   0.250997 0.874453 0.226015 -0.397561
O20   O     O_R   0.332797 0.885556 0.255067 -0.373896
N35   N     N_R   0.128387 0.374223 0.989908 0.239716
O21   O     O_R   0.077172 0.378253 0.942386 -0.346682
O22   O     O_R   0.154378 0.401866 0.065195 -0.382537
N36   N     N_R   0.817176 0.750428 0.844389 0.230891
O23   O     O_R   0.852493 0.710609 0.892530 -0.376103
O24   O     O_R   0.796597 0.750033 0.759940 -0.445196
N37   N     N_R   0.258325 0.689736 0.804353 0.223136
O25   O     O_R   0.297881 0.683034 0.795032 -0.427927
O26   O     O_R   0.210500 0.685015 0.735523 -0.410099
N38   N     N_R   0.690065 0.276967 0.179022 0.227921
O27   O     O_R   0.654385 0.235617 0.141615 -0.409587
O28   O     O_R   0.711853 0.287212 0.262666 -0.400655
N39   N     N_R   0.631975 0.871008 0.994278 0.237406
O29   O     O_R   0.580730 0.874583 0.947111 -0.368035
O30   O     O_R   0.658067 0.900429 0.068014 -0.394471
N40   N     N_R   0.309188 0.276931 0.819236 0.226850
O31   O     O_R   0.343501 0.234158 0.854936 -0.411711
O32   O     O_R   0.288391 0.288890 0.736390 -0.408373

loop_
_geom_bond_atom_site_label_1
_geom_bond_atom_site_label_2
_geom_bond_distance
_ccdc_geom_bond_type
C180  O12   1.220962 D    
C108  C140  1.405402 A    
C10   C42   1.383079 A    
C58   C66   1.405154 A    
C49   C89   1.394401 A    
C53   C61   1.385081 A    
C18   N18   1.345895 A    
N33   O17   1.301468 A    
C173  H85   1.081880 S    
C22   N22   1.334883 A    
C19   C43   1.388223 A    
C166  N38   1.435237 S    
C107  C115  1.391404 A    
C80   C184  1.486128 S    
C89   C94   1.454140 S    
C14   N14   1.336577 A    
C105  C113  1.389722 A    
C98   C114  1.402076 A    
C48   C70   1.470631 S    
C2    C34   1.391943 A    
C111  C143  1.403588 A    
C126  C134  1.390746 A    
C140  C168  1.409360 A    
C102  C118  1.395833 A    
C15   C47   1.368516 A    
C6    C38   1.389499 A    
C28   C34   1.394634 A    
C144  C164  1.406831 A    
C4    N4    1.344979 A    
C67   C75   1.419856 A    
C5    N5    1.351175 A    
N7    N29   1.389619 A    
C32   C38   1.398542 A    
C7    N7    1.349450 A    
C8    N8    1.347717 A    
C50   C58   1.382937 A    
C4    C172  1.480161 S    
C17   H9    1.067232 S    
C64   C72   1.406182 A    
C54   C94   1.393527 A    
C85   H41   1.084603 S    
C176  O8    1.218759 D    
C156  H76   1.075582 S    
C51   H27   1.083492 S    
C157  H77   1.079690 S    
C153  C161  1.393990 A    
N34   O19   1.301490 A    
C129  C145  1.415689 A    
C11   C43   1.367164 A    
C87   H43   1.084396 S    
C124  C132  1.410103 A    
C13   H5    1.081626 S    
C45   C71   1.470428 S    
C133  C149  1.424215 A    
C151  C160  1.410607 A    
C146  C149  1.415734 A    
C15   H7    1.081597 S    
N7    Ni4   1.846967 S    
C128  C136  1.407464 A    
C26   N26   1.341872 A    
N39   O29   1.301442 A    
C66   C74   1.421213 A    
N38   O27   1.301108 A    
C1    C169  1.462815 S    
N1    N27   1.389695 A    
C182  O14   1.220862 D    
C34   C100  1.487600 S    
C99   C123  1.395966 A    
C52   C92   1.394033 A    
C157  C165  1.392568 A    
C97   C121  1.382484 A    
C172  H84   1.082638 S    
C81   C89   1.399139 A    
C58   H34   1.082134 S    
C25   C35   1.378297 A    
C61   H37   1.083360 S    
C127  H56   1.074050 S    
C128  H55   1.072822 S    
C29   C39   1.395989 A    
C26   C36   1.396870 A    
C31   C37   1.395306 A    
C124  H51   1.071749 S    
C107  C139  1.406257 A    
C9    H1    1.076101 S    
C170  O2    1.218254 D    
C105  C137  1.410115 A    
C135  C151  1.423200 A    
C167  N39   1.439504 S    
C100  C124  1.397802 A    
C73   C81   1.400599 A    
C150  C157  1.415695 A    
C79   C87   1.401123 A    
C80   C88   1.390563 A    
N13   Ni7   1.832397 S    
C3    N3    1.350795 A    
N6    N32   1.389692 A    
C57   H33   1.083483 S    
N25   Ni6   1.834909 S    
C137  C165  1.404353 A    
C8    C176  1.470337 S    
N10   N18   1.384015 A    
C11   N11   1.329795 A    
C112  C144  1.405904 A    
C16   C48   1.381435 A    
C5    C173  1.462832 S    
C154  H74   1.078232 S    
C141  C161  1.407002 A    
C71   C79   1.419928 A    
C121  C129  1.394867 A    
N14   N22   1.384015 A    
C78   C182  1.481957 S    
C179  O11   1.220915 D    
C27   N27   1.338558 A    
N37   O25   1.301390 A    
C147  C152  1.414208 A    
C126  H53   1.081517 S    
C29   H21   1.080024 S    
C86   C94   1.398786 A    
N29   Ni8   1.834911 S    
C143  C163  1.407511 A    
C31   H23   1.079679 S    
C177  H89   1.085547 S    
C171  O3    1.219702 D    
C122  H49   1.071205 S    
C178  O10   1.221001 D    
C115  H60   1.078654 S    
C36   C98   1.487019 S    
C177  O9    1.221022 D    
N1    Ni1   1.845189 S    
C26   H18   1.078990 S    
C40   C102  1.445756 S    
C181  O13   1.219169 D    
C50   C90   1.394388 A    
C152  C159  1.412340 A    
C59   C67   1.405074 A    
C54   C62   1.382033 A    
C19   N19   1.351195 A    
C109  H69   1.082066 S    
C20   H12   1.074255 S    
C63   H39   1.083741 S    
N17   Ni2   1.845751 S    
C43   C65   1.470006 S    
C21   H13   1.073923 S    
C41   C67   1.464669 S    
C74   C178  1.481558 S    
N24   Ni4   1.847444 S    
C10   N10   1.336380 A    
C155  C163  1.394376 A    
N26   Ni5   1.834911 S    
C131  C147  1.422204 A    
C77   C85   1.400188 A    
C184  H96   1.085797 S    
C55   C95   1.394928 A    
C75   C83   1.390778 A    
C100  C116  1.402567 A    
N32   Ni8   1.829934 S    
C30   C40   1.378282 A    
C163  N35   1.439582 S    
C6    N6    1.340059 A    
C56   C96   1.395820 A    
N36   O24   1.299475 A    
C52   C60   1.383442 A    
N5    N31   1.389695 A    
C169  H81   1.082191 S    
C103  C119  1.402127 A    
N40   O32   1.300928 A    
C136  C152  1.421131 A    
C6    C174  1.480190 S    
C18   H10   1.077374 S    
N39   O30   1.301571 A    
C86   H42   1.084414 S    
N35   O22   1.301566 A    
C107  H67   1.081969 S    
N10   Ni6   1.832397 S    
C17   C41   1.375280 A    
N2    Ni2   1.845190 S    
C27   H19   1.077977 S    
N14   Ni8   1.832397 S    
C29   N29   1.337740 A    
C91   C96   1.454320 S    
C117  H62   1.077778 S    
C14   H6    1.081496 S    
C57   C65   1.403680 A    
C74   C82   1.401928 A    
C182  H94   1.085596 S    
C108  H68   1.080554 S    
C109  C141  1.403910 A    
C28   H20   1.079093 S    
C123  C131  1.404344 A    
C148  C151  1.415371 A    
N18   Ni1   1.845751 S    
N30   Ni7   1.834913 S    
C3    C171  1.479264 S    
C32   H24   1.080247 S    
C83   C91   1.397580 A    
C20   C44   1.391522 A    
C75   C179  1.483516 S    
C130  C138  1.421643 A    
C82   C90   1.399390 A    
C59   H35   1.082646 S    
C145  C154  1.417157 A    
C49   H25   1.084001 S    
C134  C142  1.420798 A    
C112  C120  1.387638 A    
C9    C41   1.384974 A    
C129  C137  1.426277 A    
C55   H31   1.083735 S    
C109  C117  1.388854 A    
C10   H2    1.077098 S    
N20   Ni2   1.847444 S    
N19   Ni1   1.847441 S    
C9    N9    1.343659 A    
C148  C155  1.410228 A    
N34   O20   1.301491 A    
C18   C42   1.392682 A    
C23   N23   1.352156 A    
N4    Ni1   1.846968 S    
C24   N24   1.345802 A    
N31   Ni7   1.829933 S    
C106  C114  1.391451 A    
C99   C115  1.400863 A    
C132  C140  1.421813 A    
C3    C35   1.381971 A    
C97   C113  1.393724 A    
C168  N40   1.434830 S    
N8    Ni3   1.846968 S    
C103  C127  1.400421 A    
C125  C133  1.410496 A    
C111  H71   1.082059 S    
C101  C117  1.401461 A    
C112  H72   1.080401 S    
N38   O28   1.301011 A    
C37   C103  1.486651 S    
C1    C33   1.392881 A    
C84   C92   1.399153 A    
N5    Ni3   1.845189 S    
N6    Ni4   1.845190 S    
C180  H92   1.085549 S    
C35   C97   1.445561 S    
C83   H47   1.085893 S    
C123  H52   1.073205 S    
N8    N30   1.389622 A    
C33   C99   1.479346 S    
C172  O4    1.219439 D    
N33   O18   1.301556 A    
C135  C143  1.421662 A    
C173  O5    1.221095 D    
C23   C47   1.387616 A    
C175  H87   1.082722 S    
C28   N28   1.341431 A    
C1    N1    1.348691 A    
C171  H83   1.079707 S    
N22   Ni3   1.845751 S    
C158  C166  1.394799 A    
C55   C63   1.383839 A    
C56   C64   1.389176 A    
C154  C162  1.398335 A    
C145  C150  1.404464 A    
C62   H38   1.082479 S    
C81   H45   1.084559 S    
C106  H66   1.080526 S    
C25   N25   1.331124 A    
C110  H70   1.080914 S    
C101  C125  1.400631 A    
C22   H14   1.074734 S    
N3    Ni2   1.846967 S    
C110  C142  1.413753 A    
N11   Ni6   1.827489 S    
C21   C45   1.387473 A    
C31   N31   1.338379 A    
N15   Ni8   1.827489 S    
C98   C122  1.397738 A    
C113  H58   1.083538 S    
N15   N23   1.383974 A    
C78   C86   1.400979 A    
C116  H59   1.080585 S    
C176  H88   1.084857 S    
C16   N16   1.335373 A    
C70   C78   1.420912 A    
C2    C170  1.480842 S    
C122  C130  1.409833 A    
C56   H32   1.083272 S    
C165  N37   1.437695 S    
C60   H36   1.082134 S    
C12   H4    1.077128 S    
C79   C183  1.480904 S    
C106  C138  1.406214 A    
C17   N17   1.337126 A    
C64   H40   1.083235 S    
C19   H11   1.073492 S    
C121  H50   1.079007 S    
C42   C68   1.473901 S    
C20   N20   1.349650 A    
C63   C71   1.403990 A    
N16   N24   1.383974 A    
C21   N21   1.351625 A    
C149  C158  1.411202 A    
C84   H48   1.084395 S    
C53   C93   1.394663 A    
C181  H93   1.085511 S    
C164  N36   1.435942 S    
C147  C156  1.412131 A    
C90   C93   1.458084 S    
C47   C69   1.475736 S    
C179  H91   1.085605 S    
C12   N12   1.336120 A    
C88   H44   1.082035 S    
C13   N13   1.331564 A    
C118  H61   1.083083 S    
C133  C141  1.421702 A    
C178  H90   1.085554 S    
C68   C76   1.421122 A    
C131  C139  1.420606 A    
C69   C77   1.421783 A    
C4    C36   1.391653 A    
C62   C70   1.404527 A    
N35   O21   1.301461 A    
C72   C80   1.414486 A    
C30   H22   1.082024 S    
C8    C40   1.376060 A    
C183  H95   1.085506 S    
C16   H8    1.077491 S    
C51   C59   1.389987 A    
N3    N25   1.389619 A    
C22   C46   1.380419 A    
C49   C57   1.382935 A    
C170  H82   1.083417 S    
C136  C144  1.423725 A    
C184  O16   1.220693 D    
C105  H65   1.081268 S    
C24   C48   1.392169 A    
C27   C33   1.392869 A    
C25   H17   1.081634 S    
N2    N28   1.389692 A    
N21   Ni4   1.845751 S    
C155  H75   1.078634 S    
C52   H28   1.084013 S    
C44   C66   1.474384 S    
C88   C96   1.399724 A    
C12   C44   1.379735 A    
N27   Ni5   1.829933 S    
C161  N33   1.439572 S    
C11   H3    1.081748 S    
C92   C95   1.456633 S    
C13   C45   1.366322 A    
C5    C37   1.401141 A    
N37   O26   1.301297 A    
C104  C120  1.399523 A    
C32   N32   1.338355 A    
N16   Ni7   1.827492 S    
N11   N19   1.383974 A    
C87   C95   1.399545 A    
C60   C68   1.405357 A    
C61   C69   1.405869 A    
C76   C180  1.481620 S    
C130  C146  1.421794 A    
C159  H79   1.078117 S    
C160  H80   1.078118 S    
C139  C167  1.406304 A    
C134  C150  1.411032 A    
N28   Ni6   1.829934 S    
C175  O7    1.221037 D    
C110  C118  1.396295 A    
C108  C116  1.390891 A    
C119  H64   1.077711 S    
C159  C167  1.395042 A    
C73   C177  1.480656 S    
C120  H63   1.081559 S    
C111  C119  1.388883 A    
N4    N26   1.389622 A    
C183  O15   1.221018 D    
C30   N30   1.330260 A    
C174  H86   1.082657 S    
C77   C181  1.479143 S    
C102  C126  1.378836 A    
N9    Ni5   1.832397 S    
N23   Ni3   1.847441 S    
C2    N2    1.350024 A    
C23   H15   1.072973 S    
C24   H16   1.077265 S    
N9    N17   1.384015 A    
C156  C164  1.392168 A    
C132  C148  1.421267 A    
C153  H73   1.078489 S    
N12   N20   1.383974 A    
C127  C135  1.410686 A    
N13   N21   1.384015 A    
C160  C168  1.394383 A    
C82   H46   1.084365 S    
C7    C39   1.402057 A    
C14   C46   1.384257 A    
C125  H54   1.073864 S    
C85   C93   1.398529 A    
C65   C73   1.420250 A    
N36   O23   1.301268 A    
C53   H29   1.083818 S    
C15   N15   1.332650 A    
C174  O6    1.219693 D    
C169  O1    1.220937 D    
C162  N34   1.437671 S    
N40   O31   1.301065 A    
C114  H57   1.080615 S    
C38   C104  1.475798 S    
C39   C101  1.485645 S    
C146  C153  1.410597 A    
C7    C175  1.463022 S    
C50   H26   1.083993 S    
C138  C166  1.409488 A    
C76   C84   1.401375 A    
C46   C72   1.457488 S    
N12   Ni5   1.827492 S    
C158  H78   1.077643 S    
C54   H30   1.083853 S    
C142  C162  1.407413 A    
C104  C128  1.393786 A    
C51   C91   1.397484 A    
