data_mof_unit_44958.cif
_audit_creation_date              2013-03-05T15:52:31-0500
_audit_creation_method            fapswitch 2.2
_symmetry_space_group_name_H-M    P1
_symmetry_Int_Tables_number       1
_space_group_crystal_system       triclinic
_cell_length_a                    27.809885
_cell_length_b                    10.852385
_cell_length_c                    9.561355
_cell_angle_alpha                 90.662612
_cell_angle_beta                  89.995688
_cell_angle_gamma                 92.622876
_cell_volume                      2882.43502497

loop_
_atom_site_label
_atom_site_type_symbol
_atom_site_description
_atom_site_fract_x
_atom_site_fract_y
_atom_site_fract_z
_atom_type_partial_charge
O1    O     O_R   0.500000 0.319640 0.618810 -0.586254
O2    O     O_R   0.500000 0.319660 0.381240 -0.580429
C1    C     C_R   0.504181 0.263291 0.499915 0.808556
O3    O     O_R   0.430260 0.500010 0.618770 -0.583242
O4    O     O_R   0.430270 0.500030 0.381200 -0.580666
C2    C     C_R   0.407481 0.499766 0.499987 0.835204
Cu1   Cu    Cu3+1 0.500000 0.499990 0.640660 0.925381
Cu2   Cu    Cu3+1 0.500000 0.500010 0.359340 0.932762
O5    O     O_R   0.500000 0.680340 0.618760 -0.613453
O6    O     O_R   0.500000 0.680360 0.381190 -0.598465
O7    O     O_R   0.569730 0.499970 0.618800 -0.605073
O8    O     O_R   0.569740 0.499990 0.381230 -0.600848
C3    C     C_R   0.497855 0.737877 0.501948 0.790831
C4    C     C_R   0.592511 0.501888 0.500149 0.805227
C5    C     C_R   0.175589 0.395930 0.474789 0.600781
O9    O     O_2   0.198106 0.290534 0.448647 -0.515609
N1    N     N_R   0.202047 0.502788 0.502180 -0.453010
C6    C     C_R   0.180342 0.610809 0.530598 0.521070
C7    C     C_R   0.278389 0.490219 0.373435 0.492859
C8    C     C_R   0.328726 0.487827 0.373912 -0.308426
C9    C     C_R   0.329318 0.513876 0.626244 -0.216555
C10   C     C_R   0.279238 0.514476 0.626339 -0.176815
C11   C     C_R   0.253608 0.501796 0.500636 0.274404
C12   C     C_R   0.101881 0.505361 0.503590 -0.048805
C13   C     C_R   0.125096 0.395324 0.474502 -0.040133
C14   C     C_R   0.097585 0.287461 0.444824 -0.149496
C15   C     C_R   0.129935 0.614064 0.532001 -0.018245
C16   C     C_R   0.354529 0.500497 0.500043 -0.096874
H1    H     H_    0.348243 0.523966 0.724998 0.168148
H2    H     H_    0.260207 0.524480 0.724285 0.154842
H3    H     H_    0.114564 0.202069 0.419746 0.186525
C17   C     C_R   0.645477 0.508043 0.501157 -0.078334
C18   C     C_R   0.971940 0.396043 0.484460 -0.019610
C19   C     C_R   0.976878 0.621272 0.525145 0.060129
C20   C     C_R   0.949093 0.509176 0.504361 0.068309
C21   C     C_R   0.942767 0.286398 0.472610 -0.303080
C22   C     C_R   0.892614 0.287369 0.469744 0.469537
C23   C     C_R   0.869627 0.399556 0.487114 -0.130779
C24   C     C_R   0.897915 0.510323 0.504374 -0.104313
C25   C     C_R   0.874924 0.622658 0.521986 -0.001499
C26   C     C_R   0.824529 0.623058 0.521467 0.565824
N2    N     N_R   0.797845 0.515254 0.504716 -0.450572
C27   C     C_R   0.818989 0.404808 0.488208 0.585093
C28   C     C_R   0.721443 0.505285 0.377378 -0.204968
C29   C     C_R   0.671348 0.501621 0.375486 -0.221319
C30   C     C_R   0.670558 0.521402 0.628465 -0.318348
C31   C     C_R   0.721183 0.529494 0.630800 0.494756
C32   C     C_R   0.746354 0.517485 0.504365 0.297484
O10   O     O_2   0.790843 0.300864 0.473564 -0.492911
C33   C     C_R   0.023041 0.395501 0.478575 0.069867
C34   C     C_R   0.050749 0.506705 0.504163 0.070677
C35   C     C_R   0.027964 0.619249 0.530121 0.038215
C36   C     C_R   0.047659 0.287405 0.445984 -0.205918
H4    H     H_    0.652929 0.491979 0.275879 0.173430
H5    H     H_    0.741073 0.497657 0.280053 0.151293
H6    H     H_    0.957598 0.196569 0.468342 0.149450
H7    H     H_    0.029529 0.200941 0.417759 0.135764
O11   O     O_2   0.207487 0.714883 0.556371 -0.548316
C37   C     C_R   0.107230 0.723400 0.561433 -0.145590
H8    H     H_    0.347404 0.475466 0.275680 0.167280
H9    H     H_    0.127980 0.807971 0.585301 0.189152
C38   C     C_R   0.952378 0.732121 0.539782 -0.204472
C39   C     C_R   0.902531 0.732419 0.538856 -0.163272
O12   O     O_2   0.802265 0.730316 0.537074 -0.562758
C40   C     C_R   0.057359 0.726172 0.560933 -0.210919
H10   H     H_    0.970529 0.821440 0.550312 0.137154
H11   H     H_    0.650826 0.524114 0.725856 0.162729
H12   H     H_    0.885684 0.819889 0.551585 0.184771
H13   H     H_    0.043136 0.813967 0.587461 0.138923
H14   H     H_    0.495708 0.108253 0.279180 0.162457
C41   C     C_R   0.536467 0.126541 0.749949 -0.151908
H15   H     H_    0.555458 0.215568 0.745453 0.160080
C42   C     C_R   0.532929 0.070468 0.879937 -0.151302
H16   H     H_    0.546985 0.118075 0.972389 0.130177
C43   C     C_R   0.509748 0.955099 0.891242 -0.138909
H17   H     H_    0.504455 0.914072 0.993112 0.131024
C44   C     C_R   0.494406 0.890859 0.771006 -0.151422
H18   H     H_    0.474555 0.804747 0.787808 0.166320
C45   C     C_R   0.502430 0.941245 0.636043 0.108483
C46   C     C_R   0.516571 0.067282 0.628865 0.097354
C47   C     C_R   0.509277 0.129853 0.501694 -0.120955
C48   C     C_R   0.500110 0.062591 0.378240 -0.207956
H19   H     H_    0.491229 0.886035 0.282154 0.164624
C49   C     C_R   0.496073 0.935366 0.380686 -0.210169
C50   C     C_R   0.496858 0.872835 0.508022 -0.110315
H20   H     H_    0.445119 0.361288 0.127770 0.138231
C51   C     C_R   0.564953 0.661905 0.145874 -0.217689
H21   H     H_    0.567684 0.670764 0.256143 0.224109
C52   C     C_R   0.597481 0.739119 0.074794 -0.361282
H22   H     H_    0.622565 0.796438 0.136168 0.148746
C53   C     C_R   0.597326 0.741446 0.928564 0.449859
C54   C     C_R   0.564793 0.662028 0.857602 -0.214666
H23   H     H_    0.566626 0.670444 0.747495 0.224827
C55   C     C_R   0.531860 0.579847 0.926214 0.120390
C56   C     C_R   0.531853 0.579858 0.075725 0.214543
N3    N     N_R   0.500460 0.501210 0.147910 -0.190504
C57   C     C_R   0.469810 0.423729 0.073027 -0.070369
H24   H     H_    0.445166 0.361274 0.868437 0.144510
C58   C     C_R   0.469832 0.423744 0.924852 -0.055414
N4    N     N_R   0.500480 0.501290 0.852040 -0.192240
O13   O     O_3   0.252903 0.473382 0.250088 -0.560565
C59   C     C_3   0.255644 0.584539 0.174747 0.044883
H25   H     H_    0.293115 0.605725 0.138250 0.140757
H26   H     H_    0.243278 0.663098 0.239698 0.164745
C60   C     C_3   0.223136 0.570955 0.047065 -0.742711
H27   H     H_    0.185198 0.553186 0.080376 0.252163
H28   H     H_    0.225642 0.656950 0.985115 0.207943
H29   H     H_    0.234307 0.492842 0.980288 0.246762
O14   O     O_3   0.747094 0.538166 0.754981 -0.580934
C61   C     C_3   0.731787 0.636999 0.839162 0.093008
H30   H     H_    0.698833 0.608154 0.898345 0.150687
H31   H     H_    0.724724 0.720149 0.776063 0.184210
C62   C     C_3   0.771045 0.673000 0.944582 -0.762134
H32   H     H_    0.804596 0.702915 0.889048 0.261835
H33   H     H_    0.759347 0.750208 0.011820 0.194787
H34   H     H_    0.778382 0.593191 0.011806 0.243279
O15   O     O_3   0.628802 0.814229 0.846949 -0.596429
C63   C     C_3   0.649399 0.918224 0.918537 0.047457
H35   H     H_    0.678459 0.889638 0.989469 0.142736
H36   H     H_    0.621847 0.968089 0.978621 0.153032
C64   C     C_3   0.671630 0.007116 0.812307 -0.734843
H37   H     H_    0.643477 0.037382 0.739511 0.251460
H38   H     H_    0.688115 0.089382 0.867072 0.205607
H39   H     H_    0.699913 0.961332 0.751375 0.255764
O16   O     O_3   0.866290 0.176186 0.460114 -0.533862
C65   C     C_3   0.866900 0.133679 0.319912 0.078580
H40   H     H_    0.903638 0.106749 0.289455 0.122466
H41   H     H_    0.854704 0.205447 0.246982 0.146231
C66   C     C_3   0.832760 0.020724 0.304700 -0.691608
H42   H     H_    0.795581 0.044894 0.332923 0.270337
H43   H     H_    0.832951 0.986415 0.194830 0.183195
H44   H     H_    0.844259 0.946398 0.374321 0.253481

loop_
_geom_bond_atom_site_label_1
_geom_bond_atom_site_label_2
_geom_bond_distance
_ccdc_geom_bond_type
C51   H21   1.059994 S    
C26   N2    1.364294 A    
C65   H40   1.113272 S    
C17   C29   1.403151 A    
C20   C24   1.423887 A    
C56   N3    1.382886 A    
Cu2   N3    2.021786 S    
C12   C15   1.408026 A    
C47   C48   1.397930 A    
Cu1   Cu2   2.689803 S    
C44   H18   1.077089 S    
Cu1   O7    1.950409 S    
C60   H28   1.110619 S    
C38   C39   1.386431 A    
C25   C39   1.395059 A    
H19   C49   1.083543 S    
C21   C22   1.395525 A    
C66   H42   1.110784 S    
C23   C24   1.414219 A    
O7    C4    1.299251 A    
C5    C13   1.403930 A    
C5    O9    1.349733 S    
C19   C38   1.414950 A    
C18   C21   1.412614 A    
C59   C60   1.520935 S    
Cu1   O5    1.970803 S    
C19   C20   1.422962 A    
C42   H16   1.082643 S    
H20   C57   1.081764 S    
O5    C3    1.288576 A    
C63   H35   1.112298 S    
C64   H39   1.110834 S    
C61   H31   1.116100 S    
C61   H30   1.111687 S    
C6    O11   1.349752 S    
C2    C16   1.472965 S    
C58   N4    1.366441 A    
C51   C56   1.414666 A    
C1    C47   1.461776 S    
C53   O15   1.396401 S    
C8    H8    1.083213 S    
C66   H44   1.109985 S    
C12   C34   1.422704 A    
C14   H3    1.083578 S    
C9    C10   1.393035 A    
C42   C43   1.387126 A    
C55   C56   1.429530 A    
O3    Cu1   1.950750 S    
C41   C46   1.417881 A    
C57   C58   1.416750 A    
C33   C34   1.420611 A    
C22   O16   1.384525 S    
C44   C45   1.420953 A    
C60   H29   1.111016 S    
C37   H9    1.083575 S    
C33   C36   1.416694 A    
Cu1   N4    2.021007 S    
C38   H10   1.075869 S    
C34   C35   1.420797 A    
O13   C59   1.411249 S    
C12   C13   1.408205 A    
O3    C2    1.300411 A    
C53   C54   1.391736 A    
C41   C42   1.391648 A    
C36   H7    1.076276 S    
C27   O10   1.349183 S    
N2    C32   1.433273 S    
C8    C16   1.405526 A    
C65   C66   1.521382 S    
C18   C33   1.422497 A    
C31   O14   1.388945 S    
C9    H1    1.083020 S    
C30   H11   1.081621 S    
O1    C1    1.292361 A    
C63   C64   1.520687 S    
C7    C11   1.405041 A    
C43   H17   1.082874 S    
C22   C23   1.408936 A    
C21   H6    1.076104 S    
C31   C32   1.404625 A    
C55   N4    1.381790 A    
Cu2   O8    1.950745 S    
N3    C57   1.366310 A    
C54   C55   1.415373 A    
N1    C6    1.367416 A    
N1    C11   1.434506 S    
C49   C50   1.401352 A    
C59   H26   1.115959 S    
C43   C44   1.394280 A    
C61   C62   1.520712 S    
C64   H37   1.110980 S    
C25   C26   1.401697 A    
C9    C16   1.404917 A    
O8    C4    1.301027 A    
C29   H4    1.083144 S    
C48   C49   1.380584 A    
C51   C52   1.387835 A    
O16   C65   1.412973 S    
C52   C53   1.398689 A    
N2    C27   1.366534 A    
C14   C36   1.388441 A    
C45   C50   1.428972 A    
C28   C29   1.392016 A    
C62   H32   1.110896 S    
C5    N1    1.367373 A    
C39   H12   1.083243 S    
C65   H41   1.115641 S    
C10   H2    1.082483 S    
O1    Cu1   1.965942 S    
C17   C30   1.405697 A    
O2    Cu2   1.970803 S    
C6    C15   1.403932 A    
C4    C17   1.471443 S    
C46   C47   1.418615 A    
O6    C3    1.308825 A    
O4    Cu2   1.950411 S    
C60   H27   1.111087 S    
C19   C35   1.422694 A    
C62   H34   1.110855 S    
C7    C8    1.401314 A    
O2    C1    1.303016 A    
C13   C14   1.395170 A    
C23   C27   1.412032 A    
C15   C37   1.395217 A    
O14   C61   1.414638 S    
C37   C40   1.388602 A    
C7    O13   1.381989 S    
C28   H5    1.083084 S    
O4    C2    1.300551 A    
C40   H13   1.075852 S    
C54   H23   1.058798 S    
C18   C20   1.418899 A    
C59   H25   1.113734 S    
H14   C48   1.083552 S    
C63   H36   1.113847 S    
C64   H38   1.110483 S    
C30   C31   1.406766 A    
C45   C46   1.408252 A    
C24   C25   1.410654 A    
C41   H15   1.080959 S    
Cu2   O6    1.965942 S    
H24   C58   1.081729 S    
C3    C50   1.466626 S    
C10   C11   1.399578 A    
C26   O12   1.349977 S    
C66   H43   1.110560 S    
C52   H22   1.081587 S    
O15   C63   1.411867 S    
C35   C40   1.416624 A    
C28   C32   1.399883 A    
C62   H33   1.110707 S    
