data_mof_unit_8502.cif
_audit_creation_date              2013-03-05T15:46:21-0500
_audit_creation_method            fapswitch 2.2
_symmetry_space_group_name_H-M    P1
_symmetry_Int_Tables_number       1
_space_group_crystal_system       triclinic
_cell_length_a                    10.140503
_cell_length_b                    10.707424
_cell_length_c                    10.66759
_cell_angle_alpha                 90.42228
_cell_angle_beta                  94.521078
_cell_angle_gamma                 80.049982
_cell_volume                      1137.2780323

loop_
_atom_site_label
_atom_site_type_symbol
_atom_site_description
_atom_site_fract_x
_atom_site_fract_y
_atom_site_fract_z
_atom_type_partial_charge
O1    O     O_R   0.568950 0.489660 0.307530 -0.637622
O2    O     O_R   0.348880 0.522640 0.340350 -0.627023
C1    C     C_R   0.444786 0.503701 0.266232 0.902748
O3    O     O_R   0.610060 0.300270 0.483590 -0.578706
O4    O     O_R   0.389990 0.333260 0.516410 -0.581186
C2    C     C_R   0.505751 0.259592 0.513690 0.950633
Zn1   Zn    Zn3+2 0.646940 0.477980 0.478090 0.978861
Zn2   Zn    Zn3+2 0.353060 0.522020 0.521910 0.981186
O5    O     O_R   0.651120 0.477360 0.659650 -0.622064
O6    O     O_R   0.431050 0.510340 0.692470 -0.537291
O7    O     O_R   0.610010 0.666740 0.483590 -0.644497
O8    O     O_R   0.389940 0.699730 0.516410 -0.571547
C3    C     C_R   0.554987 0.484554 0.733429 0.959272
C4    C     C_R   0.497646 0.740766 0.495364 0.918285
C5    C     C_R   0.760478 0.064213 0.479518 0.531627
C6    C     C_R   0.846106 0.992551 0.397956 0.486294
C7    C     C_R   0.798730 0.895683 0.327189 -0.389333
H1    H     H_    0.856764 0.844317 0.256535 0.167280
C8    C     C_R   0.678444 0.859135 0.352780 -0.190343
C9    C     C_R   0.598985 0.923998 0.443767 -0.028145
C10   C     C_R   0.626931 0.039890 0.487303 -0.192132
C11   C     C_R   0.518591 0.124799 0.534648 -0.263633
C12   C     C_R   0.410299 0.079121 0.581801 0.378097
C13   C     C_R   0.409387 0.949783 0.576478 0.384212
C14   C     C_R   0.496434 0.874663 0.498122 -0.272009
H2    H     H_    0.612486 0.388526 0.110793 0.137627
C15   C     C_2   0.415279 0.485233 0.133235 -0.358793
C16   C     C_2   0.512597 0.422592 0.067721 -0.307450
C17   C     C_2   0.583857 0.457110 0.866358 -0.495876
C18   C     C_2   0.493137 0.413901 0.932322 0.571516
H3    H     H_    0.315408 0.520060 0.089295 0.173599
H4    H     H_    0.885102 0.595063 0.561630 0.089672
H5    H     H_    0.114018 0.422531 0.419061 0.200670
N1    N     N_2   0.157290 0.551390 0.551110 -0.201555
C19   C     C_2   0.074231 0.491389 0.487588 -0.143235
N2    N     N_2   0.842740 0.448550 0.448960 0.098032
C20   C     C_2   0.925520 0.515454 0.504467 0.043198
H6    H     H_    0.117083 0.617008 0.615021 0.168105
O9    O     O_3   0.317305 0.158650 0.647598 -0.620551
C21   C     C_3   0.187742 0.167771 0.585304 -0.108099
H7    H     H_    0.141963 0.084012 0.605661 0.211839
H8    H     H_    0.187881 0.181557 0.481869 0.161404
H9    H     H_    0.122344 0.251521 0.622184 0.188376
O10   O     O_3   0.903179 0.339217 0.399250 -0.516150
C22   C     C_3   0.834243 0.322900 0.282894 -0.075344
H10   H     H_    0.815464 0.411616 0.225586 0.102508
H11   H     H_    0.740184 0.287026 0.295756 0.176860
H12   H     H_    0.898025 0.249930 0.229509 0.141436
O11   O     O_3   0.813854 0.150282 0.557163 -0.527409
C23   C     C_3   0.832969 0.102684 0.681344 -0.317174
H13   H     H_    0.896352 0.006611 0.686644 0.144934
H14   H     H_    0.735381 0.101065 0.721529 0.152722
H15   H     H_    0.886522 0.166754 0.740377 0.184362
O12   O     O_3   0.970865 0.026368 0.385122 -0.597611
C24   C     C_3   0.072343 0.918832 0.376613 -0.299201
H16   H     H_    0.070939 0.880517 0.279559 0.151567
H17   H     H_    0.065115 0.844001 0.446643 0.176159
H18   H     H_    0.171265 0.948477 0.396854 0.194705
H19   H     H_    0.648482 0.779690 0.301460 0.177109
O13   O     O_3   0.320190 0.898277 0.643707 -0.599872
C25   C     C_3   0.378224 0.872705 0.767375 -0.270882
H20   H     H_    0.475175 0.805328 0.768344 0.137937
H21   H     H_    0.308828 0.827414 0.820048 0.181830
H22   H     H_    0.392847 0.961496 0.817287 0.161126
O14   O     O_3   0.373465 0.386482 0.874385 -0.562552
C26   C     C_3   0.345984 0.272318 0.923207 -0.238358
H23   H     H_    0.320961 0.282364 0.022695 0.143043
H24   H     H_    0.431099 0.192768 0.913482 0.147237
H25   H     H_    0.256316 0.247807 0.868888 0.211280
H26   H     H_    0.677800 0.476676 0.912088 0.108292

loop_
_geom_bond_atom_site_label_1
_geom_bond_atom_site_label_2
_geom_bond_distance
_ccdc_geom_bond_type
C7    H1    1.081134 S    
C25   H22   1.112727 S    
C26   H24   1.113553 S    
C24   H16   1.110790 S    
C17   C18   1.345162 D    
N1    C19   1.293033 D    
O4    Zn2   1.992188 S    
Zn1   N2    2.004426 S    
C18   O14   1.393932 S    
H2    C16   1.082406 S    
C8    C9    1.411967 A    
C13   O13   1.384587 S    
Zn2   O8    2.003756 S    
C15   C16   1.336136 D    
C8    H19   1.082525 S    
C26   H25   1.108422 S    
C21   H9    1.108669 S    
C22   H11   1.106403 S    
C26   H23   1.110697 S    
Zn2   N1    2.004312 S    
C10   C11   1.422724 A    
C13   C14   1.409202 A    
C5    O11   1.385192 S    
Zn1   O7    1.992190 S    
C11   C12   1.405147 A    
C25   H20   1.113788 S    
O13   C25   1.410301 S    
O3    Zn1   2.003756 S    
C12   O9    1.387479 S    
C16   C18   1.446815 S    
C21   H7    1.108884 S    
C19   C20   1.510210 S    
O8    C4    1.281523 A    
O14   C26   1.411790 S    
O9    C21   1.412888 S    
C1    C15   1.445986 S    
C24   H17   1.114995 S    
C4    C14   1.431724 S    
O4    C2    1.298484 A    
H5    C19   1.084677 S    
O7    C4    1.285037 A    
C6    O12   1.391654 S    
N2    O10   1.349612 S    
C23   H15   1.109313 S    
H4    C20   1.085097 S    
C9    C14   1.409292 A    
C12   C13   1.387223 A    
C15   H3    1.087036 S    
C5    C6    1.406686 A    
C2    C11   1.444040 S    
C7    C8    1.390869 A    
C22   H10   1.113579 S    
C5    C10   1.431301 A    
C9    C10   1.388575 A    
Zn2   O6    1.921944 S    
O11   C23   1.409795 S    
C24   H18   1.108375 S    
C3    C17   1.447008 S    
C23   H14   1.111871 S    
Zn1   O5    1.933962 S    
O5    C3    1.292200 A    
O12   C24   1.413037 S    
N2    C20   1.300629 D    
O1    Zn1   1.921944 S    
O2    C1    1.289493 A    
C22   H12   1.109043 S    
C23   H13   1.114072 S    
C17   H26   1.087923 S    
O3    C2    1.275324 A    
C25   H21   1.109232 S    
O2    Zn2   1.933962 S    
O10   C22   1.400734 S    
C6    C7    1.407120 A    
C21   H8    1.114451 S    
O1    C1    1.284565 A    
O6    C3    1.281386 A    
N1    H6    1.030763 S    
