data_mof_unit_58780.cif
_audit_creation_date              2013-03-05T15:43:54-0500
_audit_creation_method            fapswitch 2.2
_symmetry_space_group_name_H-M    P1
_symmetry_Int_Tables_number       1
_space_group_crystal_system       triclinic
_cell_length_a                    8.439559
_cell_length_b                    14.994104
_cell_length_c                    18.831586
_cell_angle_alpha                 99.319108
_cell_angle_beta                  92.494478
_cell_angle_gamma                 98.005084
_cell_volume                      2323.32181821

loop_
_atom_site_label
_atom_site_type_symbol
_atom_site_description
_atom_site_fract_x
_atom_site_fract_y
_atom_site_fract_z
_atom_type_partial_charge
P1    P     P_3+3 0.038110 0.412300 0.335300 0.512874
O1    O     O_2   0.871030 0.438240 0.324420 -0.412556
O2    O     O_3   0.120590 0.445310 0.413740 -0.269830
O3    O     O_3   0.663040 0.605930 0.370050 -0.318050
O4    O     O_2   0.752273 0.536885 0.243748 -0.407145
O5    O     O_3   0.025089 0.291385 0.322643 -0.578111
O6    O     O_3   0.706129 0.705030 0.254087 -0.546763
H1    H     H_    0.728379 0.775102 0.358967 0.124333
C1    C     C_3   0.712686 0.866173 0.282925 -0.943285
H2    H     H_    0.842683 0.876178 0.274449 0.278336
H3    H     H_    0.644109 0.869380 0.231942 0.256388
P2    P     P_3+3 0.679950 0.711710 0.558590 0.543842
P3    P     P_3+3 0.142756 0.770366 0.400224 0.583188
O7    O     O_2   0.855660 0.723510 0.537160 -0.347655
O8    O     O_3   0.086340 0.654970 0.406630 -0.320890
O9    O     O_2   0.031558 0.822859 0.449388 -0.304033
O10   O     O_3   0.701927 0.762099 0.650370 -0.633364
O11   O     O_3   0.084782 0.787002 0.313538 -0.502187
C2    C     C_3   0.128515 0.716353 0.263186 0.398751
H4    H     H_    0.056025 0.650229 0.268452 0.099490
H5    H     H_    0.257994 0.711073 0.271139 -0.014351
C3    C     C_3   0.094191 0.734013 0.186511 -0.418652
H6    H     H_    0.965350 0.740129 0.177363 0.227343
C4    C     C_3   0.221686 0.768957 0.651584 0.736745
C5    C     C_3   0.133839 0.853305 0.661989 0.062312
H7    H     H_    0.136053 0.883941 0.719694 0.117563
H8    H     H_    0.006617 0.833843 0.642205 0.156891
Ba1   Ba    Ba6+2 0.854120 0.540280 0.465540 1.664264
C6    C     C_3   0.868659 0.241266 0.309987 0.531476
H9    H     H_    0.777851 0.284616 0.328049 0.075864
C7    C     C_3   0.828045 0.202306 0.228800 -0.443439
H10   H     H_    0.699995 0.170672 0.221576 0.165140
H11   H     H_    0.839044 0.256893 0.196117 0.168073
C8    C     C_3   0.776938 0.713810 0.696356 0.646166
H12   H     H_    0.876317 0.683381 0.670828 0.087183
C9    C     C_3   0.834016 0.780830 0.766660 -0.035139
H13   H     H_    0.886403 0.848327 0.755028 0.131396
H14   H     H_    0.731389 0.792749 0.800035 0.157305
P4    P     P_3+3 0.151600 0.587780 0.664700 0.549289
O12   O     O_2   0.318670 0.561790 0.675630 -0.324742
O13   O     O_3   0.069120 0.554770 0.586270 -0.328650
O14   O     O_3   0.526680 0.394150 0.629950 -0.323333
O15   O     O_3   0.161969 0.707145 0.696305 -0.617405
P5    P     P_3+3 0.052314 0.226959 0.586630 0.528259
O16   O     O_3   0.607620 0.388570 0.462320 -0.371109
O17   O     O_3   0.103380 0.345110 0.593380 -0.377883
O18   O     O_2   0.193655 0.182596 0.554040 -0.334868
O19   O     O_3   0.053800 0.207180 0.675741 -0.516273
Ba2   Ba    Ba6+2 0.335710 0.459790 0.534460 1.651046
P6    P     P_3+3 0.634403 0.598766 0.276923 0.457455
C10   C     C_3   0.663794 0.774184 0.306086 0.462518
H15   H     H_    0.532210 0.764616 0.311304 0.028937
H16   H     H_    0.688534 0.922227 0.325326 0.245722
O20   O     O_3   0.582100 0.611510 0.537680 -0.312169
C11   C     C_3   0.454249 0.323785 0.310767 0.419395
H17   H     H_    0.330979 0.335834 0.321876 0.137870
H18   H     H_    0.541752 0.385500 0.332887 0.157459
C12   C     C_3   0.468148 0.305545 0.229532 -1.097722
H19   H     H_    0.421864 0.233367 0.206362 0.291571
H20   H     H_    0.400062 0.350604 0.202990 0.240186
H21   H     H_    0.595547 0.319897 0.217765 0.243861
P7    P     P_3+3 0.508518 0.276066 0.434173 0.472126
O21   O     O_2   0.334040 0.276520 0.462890 -0.342093
O22   O     O_3   0.485842 0.247474 0.339955 -0.586897
H22   H     H_    0.117290 0.674078 0.147784 0.132754
C13   C     C_3   0.943235 0.257016 0.711904 0.219441
H23   H     H_    0.989955 0.331137 0.720588 0.096945
H24   H     H_    0.825344 0.244430 0.680431 0.050967
C14   C     C_3   0.915204 0.227199 0.784709 0.048590
H25   H     H_    0.800058 0.245610 0.803670 0.196242
H26   H     H_    0.911059 0.152087 0.780105 0.205699
P8    P     P_3+3 0.565863 0.399566 0.723394 0.493666
C15   C     C_3   0.408872 0.238653 0.745194 0.378518
O23   O     O_2   0.429490 0.442162 0.762619 -0.395549
O24   O     O_3   0.563359 0.288884 0.745104 -0.597263
H27   H     H_    0.315053 0.283654 0.752006 0.145189
C16   C     C_3   0.400460 0.184000 0.808509 0.593981
H28   H     H_    0.278583 0.144225 0.806711 0.077238
C17   C     C_R   0.998103 0.468050 0.048122 0.008019
C18   C     C_R   0.893963 0.432732 0.096441 0.115615
C19   C     C_R   0.730521 0.407009 0.075412 -0.179283
C20   C     C_R   0.671774 0.414034 0.006572 -0.111761
C21   C     C_R   0.776150 0.442051 0.955812 0.115986
C22   C     C_R   0.939522 0.471144 0.976965 0.039316
C23   C     C_R   0.718902 0.442255 0.884843 -0.156438
C24   C     C_R   0.822741 0.468670 0.832816 -0.055715
C25   C     C_R   0.985325 0.503930 0.855160 0.043063
C26   C     C_R   0.042666 0.505568 0.927784 0.055218
C27   C     C_R   0.768856 0.460352 0.759248 0.306624
C28   C     C_R   0.876672 0.488787 0.709756 -0.483479
C29   C     C_R   0.034360 0.530507 0.731557 0.272076
C30   C     C_R   0.090044 0.538557 0.805637 0.007513
C31   C     C_R   0.158940 0.502015 0.071459 0.029946
C32   C     C_R   0.214447 0.502004 0.144118 -0.002398
C33   C     C_R   0.109658 0.463716 0.192683 -0.122452
C34   C     C_R   0.951980 0.427117 0.166136 -0.133839
H29   H     H_    0.646863 0.383821 0.112803 0.151658
H30   H     H_    0.543940 0.398747 0.993733 0.196014
H31   H     H_    0.834631 0.481470 0.653699 0.181302
H32   H     H_    0.592626 0.421232 0.870862 0.208279
H33   H     H_    0.868175 0.399248 0.200474 0.156820
C35   C     C_R   0.245656 0.581693 0.832672 -0.035897
C36   C     C_R   0.303684 0.580660 0.903736 0.068502
C37   C     C_R   0.203032 0.541367 0.951354 0.034740
C38   C     C_R   0.261451 0.540135 0.023059 0.013212
C39   C     C_R   0.462365 0.618206 0.927306 -0.215945
C40   C     C_R   0.524089 0.617168 0.998176 0.145770
C41   C     C_R   0.421248 0.578344 0.046651 0.015277
C42   C     C_R   0.372944 0.542638 0.168171 -0.072008
C43   C     C_R   0.473906 0.579223 0.118903 -0.205354
C44   C     C_R   0.424959 0.548732 0.241509 0.091865
C45   C     C_R   0.317535 0.515063 0.289764 0.043503
C46   C     C_R   0.162792 0.468098 0.266815 0.125314
H34   H     H_    0.324853 0.616371 0.799280 0.182642
H35   H     H_    0.538059 0.646804 0.889200 0.176751
H36   H     H_    0.593940 0.610629 0.137251 0.185431
C47   C     C_R   0.773448 0.230942 0.504640 -0.501759
C48   C     C_R   0.859487 0.174022 0.536511 0.155822
C49   C     C_R   0.792541 0.081340 0.535000 0.337135
C50   C     C_R   0.648265 0.042139 0.490184 -0.025045
C51   C     C_R   0.559070 0.106237 0.466327 -0.279514
C52   C     C_R   0.620762 0.198209 0.472903 0.248992
C53   C     C_R   0.431791 0.902836 0.431322 0.328459
C54   C     C_R   0.357942 0.812738 0.432384 0.204984
C55   C     C_R   0.589954 0.785423 0.502082 0.287737
C56   C     C_R   0.660847 0.875213 0.502812 -0.263899
C57   C     C_R   0.579315 0.939733 0.474461 0.007495
C58   C     C_R   0.443305 0.754328 0.463951 -0.446891
H37   H     H_    0.783432 0.890538 0.522830 0.241200
H38   H     H_    0.434624 0.089248 0.448984 0.234245
H39   H     H_    0.389098 0.685428 0.463841 0.250915
H40   H     H_    0.823422 0.301974 0.507086 0.184289
Cl1   Cl    Cl    0.219018 0.938458 0.612664 -0.584936
N1    N     N_2   0.851377 0.166583 0.351333 -0.148947
H41   H     H_    0.749074 0.119322 0.337659 0.160856
C59   C     C_3   0.991706 0.128421 0.372065 -0.735942
H42   H     H_    0.955398 0.071928 0.402186 0.228713
H43   H     H_    0.076367 0.181360 0.407890 0.287291
H44   H     H_    0.052590 0.100303 0.324520 0.246273
N2    N     N_2   0.923716 0.133520 0.199648 -0.076426
H45   H     H_    0.903104 0.071783 0.217557 0.192836
C60   C     C_3   0.087708 0.164605 0.186003 -0.709192
H46   H     H_    0.133760 0.110006 0.149146 0.226342
H47   H     H_    0.163763 0.179966 0.237158 0.256196
H48   H     H_    0.095590 0.226476 0.160093 0.248226
Cl2   Cl    Cl    0.634715 0.628298 0.719942 -0.681733
Cl3   Cl    Cl    0.975548 0.740833 0.821723 -0.678005
Cl4   Cl    Cl    0.064774 0.284740 0.852050 -0.626661
N3    N     N_2   0.369271 0.174972 0.678054 -0.093024
H49   H     H_    0.277959 0.122378 0.680324 0.238329
C61   C     C_3   0.497776 0.146031 0.636314 -0.599043
H50   H     H_    0.583066 0.116235 0.668535 0.264539
H51   H     H_    0.561822 0.204982 0.615462 0.213928
H52   H     H_    0.445371 0.092764 0.590553 0.259987
Cl5   Cl    Cl    0.540071 0.104749 0.806063 -0.642047
Cl6   Cl    Cl    0.431892 0.256043 0.893432 -0.576368
N4    N     N_2   0.687873 0.653911 0.021575 -0.125726
H53   H     H_    0.748239 0.612681 0.048307 0.159422
C62   C     C_3   0.788343 0.702362 0.975670 -0.787321
H54   H     H_    0.905553 0.731528 0.005314 0.255835
H55   H     H_    0.731503 0.759598 0.960282 0.267278
H56   H     H_    0.810610 0.654432 0.927028 0.273265
Cl7   Cl    Cl    0.379090 0.531327 0.380997 -0.586889
Cl8   Cl    Cl    0.359166 0.952223 0.359548 -0.717286
Cl9   Cl    Cl    0.864113 0.030925 0.606420 -0.610949
N5    N     N_2   0.197077 0.814017 0.171783 -0.076516
H57   H     H_    0.316667 0.818906 0.188228 0.211589
C63   C     C_3   0.133006 0.899462 0.182585 -0.687253
H58   H     H_    0.217510 0.952855 0.163648 0.226340
H59   H     H_    0.117047 0.921897 0.240530 0.286460
H60   H     H_    0.016105 0.892063 0.151093 0.221980
N6    N     N_2   0.391433 0.794696 0.669000 -0.107354
H61   H     H_    0.440188 0.735463 0.662803 0.239940
C64   C     C_3   0.443741 0.851288 0.738456 -0.719210
H62   H     H_    0.575163 0.871135 0.741569 0.262790
H63   H     H_    0.409321 0.813914 0.783129 0.244355
H64   H     H_    0.395381 0.916739 0.744977 0.279737
Cl10  Cl    Cl    0.188497 0.722793 0.559972 -0.570170

loop_
_geom_bond_atom_site_label_1
_geom_bond_atom_site_label_2
_geom_bond_distance
_ccdc_geom_bond_type
C13   H24   1.112186 S    
C25   C26   1.425985 A    
C56   C57   1.419553 A    
Ba2   O21   2.855889 S    
C35   C36   1.408102 A    
C15   O24   1.412191 S    
O16   P7    1.762086 S    
C33   C34   1.404195 A    
C1    C10   1.521489 S    
P7    C52   1.820920 S    
C51   H38   1.069257 S    
C11   H17   1.103529 S    
C19   C20   1.392948 A    
O2    Ba2   2.807572 S    
C50   C57   1.540430 S    
N3    H49   1.030594 S    
C53   C54   1.410390 A    
P4    O13   1.577570 S    
C23   C24   1.410147 A    
C50   C51   1.415656 A    
O17   Ba2   2.810817 S    
C40   N4    1.436867 S    
P3    O11   1.750069 S    
P2    Ba1   3.414106 S    
C21   C22   1.406556 A    
C9    H13   1.106039 S    
C2    H5    1.111969 S    
N2    C60   1.445295 S    
C17   C31   1.406440 A    
C42   C44   1.415469 A    
C16   Cl6   1.765942 S    
C17   C22   1.418111 A    
C8    H12   1.101529 S    
C13   C14   1.527376 S    
C39   C40   1.414637 A    
C12   H20   1.108583 S    
O12   Ba2   2.864416 S    
Ba1   O13   2.807088 S    
P1    O1    1.528072 D    
C61   H52   1.105285 S    
O13   Ba2   2.945448 S    
C14   H26   1.110983 S    
C47   H40   1.082434 S    
C48   C49   1.420682 A    
C37   C38   1.421070 A    
P7    O22   1.752070 S    
C7    N2    1.450589 S    
C31   C38   1.416173 A    
C64   H62   1.104063 S    
C63   H60   1.111142 S    
C2    H4    1.111445 S    
P5    O17   1.746419 S    
P2    O10   1.761429 S    
P1    Ba1   3.427253 S    
C40   C41   1.423327 A    
C7    H11   1.097409 S    
P5    C48   1.852860 S    
C18   C34   1.400263 A    
C5    Cl1   1.787832 S    
C1    H2    1.108518 S    
C49   Cl9   1.769434 S    
P5    O18   1.547438 D    
C30   C35   1.414508 A    
C54   C58   1.395171 A    
C12   H21   1.105980 S    
C63   H59   1.108411 S    
C6    N1    1.458844 S    
N4    C62   1.445565 S    
Ba2   O20   2.851258 S    
N3    C61   1.441233 S    
C34   H33   1.066768 S    
N5    C63   1.446817 S    
C20   H30   1.079543 S    
C60   H48   1.111470 S    
C14   H25   1.105011 S    
P1    C46   1.921694 S    
C59   H44   1.105242 S    
P4    C29   1.877119 S    
C45   C46   1.408675 A    
C26   C37   1.408929 A    
N6    C64   1.453143 S    
C38   C41   1.412298 A    
Ba1   O16   2.851728 S    
C10   H15   1.110482 S    
C2    C3    1.532221 S    
N2    H45   1.030664 S    
P8    O23   1.550530 D    
C29   C30   1.433230 A    
P3    C54   1.877995 S    
Ba1   O20   2.956533 S    
C24   C25   1.419488 A    
O11   C2    1.404108 S    
P4    O15   1.781020 S    
P2    C55   1.864198 S    
C56   H37   1.066309 S    
C12   H19   1.108467 S    
C16   H28   1.111037 S    
P1    O5    1.777126 S    
N4    H53   1.030206 S    
O3    P6    1.743672 S    
P1    O2    1.577734 S    
C47   C52   1.385778 A    
C3    H22   1.107437 S    
C6    H9    1.102432 S    
C35   H34   1.076205 S    
C55   C58   1.385010 A    
Ba1   Ba2   4.590728 S    
C9    Cl3   1.776155 S    
C53   C57   1.445926 A    
C62   H54   1.110755 S    
C64   H64   1.105288 S    
O16   Ba2   2.955687 S    
C61   H50   1.106908 S    
C11   O22   1.399407 S    
P7    O21   1.591135 D    
O14   P8    1.762965 S    
C62   H56   1.109170 S    
C31   C32   1.426866 A    
C4    C5    1.543092 S    
C1    H3    1.110575 S    
H1    C10   1.111383 S    
C51   C52   1.388262 A    
C59   H43   1.105602 S    
C63   H58   1.110090 S    
C21   C23   1.401813 A    
P2    O7    1.547689 D    
P3    O8    1.754482 S    
C4    Cl10  1.746725 S    
C55   C56   1.392725 A    
C15   H27   1.108281 S    
C60   H47   1.107333 S    
O4    P6    1.537592 D    
C11   C12   1.522448 S    
C1    H16   1.109081 S    
O10   C8    1.399275 S    
C28   C29   1.402977 A    
C58   H39   1.069650 S    
C43   H36   1.073004 S    
C28   H31   1.082290 S    
P4    O12   1.528424 D    
N6    H61   1.021825 S    
C14   Cl4   1.774527 S    
C45   Cl7   1.741365 S    
O2    Ba1   2.944458 S    
C44   C45   1.412598 A    
C15   N3    1.450994 S    
C60   H46   1.109534 S    
P8    C27   1.867261 S    
C7    H10   1.111267 S    
C22   C26   1.407763 A    
O6    P6    1.751012 S    
C18   C19   1.401098 A    
C24   C27   1.419555 A    
N1    C59   1.450281 S    
C49   C50   1.445994 A    
P4    Ba2   3.427898 S    
N1    H41   1.032019 S    
C5    H8    1.104309 S    
C32   C42   1.412993 A    
C39   H35   1.081744 S    
O7    Ba1   2.855822 S    
C11   H18   1.110504 S    
C62   H55   1.110721 S    
C5    H7    1.107428 S    
O6    C10   1.402312 S    
C6    C7    1.550986 S    
C23   H32   1.076831 S    
C47   C48   1.384360 A    
C16   Cl5   1.783098 S    
C53   Cl8   1.769005 S    
C8    Cl2   1.756184 S    
P8    O24   1.769897 S    
O8    Ba1   2.810220 S    
N5    H57   1.031877 S    
C19   H29   1.081368 S    
C33   C46   1.435913 A    
C9    H14   1.109618 S    
P6    C44   1.870303 S    
C41   C43   1.410284 A    
C13   H23   1.109440 S    
C36   C39   1.401692 A    
C8    C9    1.540603 S    
C61   H51   1.107019 S    
C32   C33   1.430795 A    
C4    N6    1.439772 S    
C64   H63   1.111205 S    
O14   Ba2   2.750017 S    
C17   C18   1.406010 A    
C3    N5    1.452076 S    
O5    C6    1.415188 S    
C20   C21   1.402302 A    
O3    Ba1   2.750664 S    
P3    O9    1.550068 D    
C42   C43   1.411106 A    
C36   C37   1.403866 A    
C4    O15   1.407784 S    
C15   C16   1.551067 S    
C3    H6    1.112220 S    
C59   H42   1.109775 S    
O1    Ba1   2.863674 S    
O19   C13   1.406261 S    
C27   C28   1.404580 A    
C25   C30   1.421668 A    
P2    O20   1.590216 S    
P5    O19   1.750573 S    
