data_mof_unit_14173.cif
_audit_creation_date              2012-12-11T14:52:50-0500
_audit_creation_method            fapswitch 2.2
_symmetry_space_group_name_H-M    P1
_symmetry_Int_Tables_number       1
_space_group_crystal_system       triclinic
_cell_length_a                    20.607982
_cell_length_b                    7.265837
_cell_length_c                    20.298702
_cell_angle_alpha                 90.0
_cell_angle_beta                  101.522924
_cell_angle_gamma                 89.99999
_cell_volume                      2978.15092851

loop_
_atom_site_label
_atom_site_type_symbol
_atom_type_description
_atom_site_fract_x
_atom_site_fract_y
_atom_site_fract_z
_atom_type_partial_charge
O1    O     O_R   0.673670 0.377510 0.185950 -0.533299
O2    O     O_R   0.326330 0.622490 0.814050 -0.534459
O3    O     O_R   0.826330 0.877510 0.314050 -0.533300
O4    O     O_R   0.173670 0.122490 0.685950 -0.534458
O5    O     O_R   0.806260 0.705340 0.185590 -0.535643
O6    O     O_R   0.193740 0.294660 0.814410 -0.536109
O7    O     O_R   0.693740 0.205340 0.314410 -0.535643
O8    O     O_R   0.306260 0.794660 0.685590 -0.536110
C1    C     C_R   0.825632 0.538692 0.170830 0.720880
C2    C     C_R   0.174381 0.461310 0.829185 0.723671
C3    C     C_R   0.674368 0.038692 0.329170 0.720881
C4    C     C_R   0.325618 0.961310 0.670815 0.723670
O9    O     O_R   0.672940 0.707120 0.178050 -0.529999
O10   O     O_R   0.327060 0.292880 0.821950 -0.530166
O11   O     O_R   0.827060 0.207120 0.321950 -0.529999
O12   O     O_R   0.172940 0.792880 0.678050 -0.530166
O13   O     O_R   0.692060 0.879040 0.306460 -0.536700
O14   O     O_R   0.307940 0.120960 0.693540 -0.536279
O15   O     O_R   0.807940 0.379040 0.193540 -0.536700
O16   O     O_R   0.192060 0.620960 0.806460 -0.536279
C5    C     C_R   0.648860 0.539768 0.161011 0.709219
C6    C     C_R   0.351146 0.460215 0.839000 0.715789
C7    C     C_R   0.851140 0.039768 0.338989 0.709219
C8    C     C_R   0.148854 0.960215 0.661000 0.715788
O17   O     O_3   0.756430 0.544390 0.292140 -0.372771
O18   O     O_3   0.243570 0.455610 0.707860 -0.373364
O19   O     O_3   0.743570 0.044390 0.207860 -0.372771
O20   O     O_3   0.256430 0.955610 0.792140 -0.373364
V1    V     V_3+5 0.748810 0.818610 0.242180 1.490166
V2    V     V_3+5 0.251190 0.181390 0.757820 1.495538
V3    V     V_3+5 0.751190 0.318610 0.257820 1.490166
V4    V     V_3+5 0.248810 0.681390 0.742180 1.495537
C9    C     C_R   0.087731 0.959553 0.607515 -0.165075
C10   C     C_R   0.912348 0.040156 0.392334 -0.144032
C11   C     C_R   0.412269 0.459553 0.892485 -0.165075
C12   C     C_R   0.587652 0.540156 0.107666 -0.144033
C13   C     C_R   0.014530 0.197894 0.445361 0.492386
C14   C     C_R   0.986307 0.799442 0.553742 0.524067
C15   C     C_R   0.485470 0.697894 0.054639 0.492386
C16   C     C_R   0.513693 0.299441 0.946259 0.524062
C17   C     C_R   0.959106 0.180587 0.392951 -0.191726
C18   C     C_R   0.041374 0.817814 0.606469 -0.180342
C19   C     C_R   0.540894 0.680587 0.107049 -0.191724
C20   C     C_R   0.458626 0.317813 0.893531 -0.180344
C21   C     C_R   0.921802 0.913068 0.445181 -0.099636
C22   C     C_R   0.078243 0.086753 0.554687 -0.106198
C23   C     C_R   0.578198 0.413068 0.054819 -0.099637
C24   C     C_R   0.421757 0.586753 0.945312 -0.106212
C25   C     C_R   0.976829 0.926610 0.499517 -0.030041
C26   C     C_R   0.023581 0.072058 0.499994 -0.019891
C27   C     C_R   0.523171 0.426610 0.000483 -0.030045
C28   C     C_R   0.476418 0.572058 0.000006 -0.019904
H1    H     H_    0.115290 0.192468 0.555998 0.204023
H2    H     H_    0.884334 0.808754 0.444281 0.201082
H3    H     H_    0.384710 0.692469 0.944002 0.204026
H4    H     H_    0.615666 0.308755 0.055718 0.201082
H5    H     H_    0.048744 0.719343 0.647305 0.175577
H6    H     H_    0.951794 0.278636 0.351993 0.150935
H7    H     H_    0.451256 0.219341 0.852695 0.175577
H8    H     H_    0.548206 0.778636 0.148007 0.150935
C29   C     C_3   0.541097 0.139333 0.518867 0.181007
C30   C     C_3   0.458787 0.860694 0.481005 0.179936
C31   C     C_3   0.958903 0.639333 0.981133 0.181007
C32   C     C_3   0.041213 0.360695 0.018995 0.179937
C33   C     C_3   0.533285 0.971395 0.563396 -0.167712
C34   C     C_3   0.466600 0.028634 0.436475 -0.169192
C35   C     C_3   0.966715 0.471395 0.936604 -0.167714
C36   C     C_3   0.033400 0.528634 0.063525 -0.169193
H9    H     H_    0.560620 0.948628 0.615683 0.137667
H10   H     H_    0.439269 0.051398 0.384186 0.133706
H11   H     H_    0.939380 0.448628 0.884317 0.137665
H12   H     H_    0.060731 0.551398 0.115814 0.133706
H13   H     H_    0.563893 0.713748 0.503942 0.135374
H14   H     H_    0.435990 0.286280 0.495927 0.135683
H15   H     H_    0.936107 0.213748 0.996058 0.135374
H16   H     H_    0.064010 0.786281 0.004073 0.135683
C37   C     C_1   0.371244 0.969709 0.624944 -0.151502
C38   C     C_1   0.628702 0.030301 0.374997 -0.158964
C39   C     C_1   0.128756 0.469709 0.875056 -0.151503
C40   C     C_1   0.871298 0.530300 0.125003 -0.158964
C41   C     C_3   0.465053 0.157696 0.497267 -0.169837
C42   C     C_3   0.534831 0.842332 0.502605 -0.172124
C43   C     C_3   0.034947 0.657696 0.002733 -0.169837
C44   C     C_3   0.965169 0.342332 0.997395 -0.172124
C45   C     C_3   0.457330 0.988382 0.541017 0.087291
C46   C     C_3   0.542555 0.011643 0.458857 0.088283
C47   C     C_3   0.042670 0.488382 0.958983 0.087291
C48   C     C_3   0.957445 0.511643 0.041143 0.088283
C49   C     C_1   0.409870 0.977461 0.586988 -0.038904
C50   C     C_1   0.590041 0.022555 0.412916 -0.043683
C51   C     C_1   0.090130 0.477461 0.913012 -0.038905
C52   C     C_1   0.909959 0.522555 0.087084 -0.043683
S1    S     S_3+6 0.070994 0.379521 0.440272 0.022117
O21   O     O_2   0.077591 0.499831 0.501437 -0.304209
O22   O     O_2   0.137780 0.299983 0.437639 -0.344356
O23   O     O_3   0.044998 0.509981 0.371562 -0.487158
H17   H     H_    0.056698 0.439210 0.333875 0.331076
S2    S     S_3+6 0.931380 0.613226 0.557574 -0.002355
O24   O     O_2   0.865139 0.688226 0.564601 -0.340342
O25   O     O_2   0.923194 0.501833 0.494059 -0.335137
O26   O     O_3   0.960753 0.476107 0.623610 -0.512034
H18   H     H_    0.932559 0.364606 0.616421 0.368031
S3    S     S_3+6 0.429006 0.879520 0.059729 0.022117
O27   O     O_2   0.422408 0.999831 0.998563 -0.304211
O28   O     O_2   0.362220 0.799981 0.062361 -0.344354
O29   O     O_3   0.455002 0.009980 0.128439 -0.487157
H19   H     H_    0.443301 0.939208 0.166125 0.331076
S4    S     S_3+6 0.568619 0.113222 0.942427 -0.002350
O30   O     O_2   0.634860 0.188218 0.935398 -0.340326
O31   O     O_2   0.576805 0.001834 0.005943 -0.335150
O32   O     O_3   0.539244 0.976099 0.876392 -0.512031
H20   H     H_    0.567419 0.864563 0.883597 0.368029
C53   C     C_3   0.589147 0.298330 0.539830 -0.358222
C54   C     C_3   0.572122 0.404860 0.598893 -0.729835
H21   H     H_    0.521829 0.465793 0.584779 0.219783
H22   H     H_    0.574074 0.312599 0.642868 0.239230
H23   H     H_    0.608423 0.517898 0.613354 0.228769
H24   H     H_    0.640224 0.242755 0.554246 0.201842
H25   H     H_    0.587144 0.392153 0.496329 0.174156
C55   C     C_3   0.410736 0.701706 0.460029 -0.353880
C56   C     C_3   0.427755 0.595229 0.400952 -0.734509
H26   H     H_    0.425797 0.687524 0.356984 0.234026
H27   H     H_    0.478049 0.534299 0.415053 0.219970
H28   H     H_    0.391455 0.482192 0.386484 0.230274
H29   H     H_    0.412743 0.607850 0.503522 0.174202
H30   H     H_    0.359658 0.757285 0.445624 0.203947
C57   C     C_3   0.910853 0.798330 0.960169 -0.358220
C58   C     C_3   0.927878 0.904860 0.901107 -0.729836
H31   H     H_    0.978171 0.965793 0.915221 0.219783
H32   H     H_    0.925926 0.812599 0.857132 0.239228
H33   H     H_    0.891576 0.017898 0.886646 0.228769
H34   H     H_    0.859776 0.742754 0.945753 0.201843
H35   H     H_    0.912856 0.892153 0.003671 0.174156
C59   C     C_3   0.089264 0.201706 0.039971 -0.353881
C60   C     C_3   0.072245 0.095229 0.099048 -0.734510
H36   H     H_    0.074203 0.187524 0.143016 0.234026
H37   H     H_    0.021951 0.034299 0.084946 0.219970
H38   H     H_    0.108545 0.982191 0.113516 0.230274
H39   H     H_    0.087257 0.107850 0.996478 0.174202
H40   H     H_    0.140341 0.257285 0.054376 0.203947

loop_
_geom_bond_atom_site_label_1
_geom_bond_atom_site_label_2
_ccdc_geom_bond_type
O17   V3    S    
C60   H38   S    
C43   C47   S    
O1    C5    A    
S1    O21   D    
C47   C51   S    
C31   C48   S    
C24   H3    S    
O13   V1    S    
O3    C7    A    
O32   H20   S    
C14   S2    S    
O15   V3    S    
C58   H31   S    
C54   H21   S    
C60   H36   S    
C5    C12   S    
C38   C50   T    
O7    C3    A    
C6    C11   S    
C37   C49   T    
O26   H18   S    
C9    C18   A    
C32   C36   S    
O9    V1    S    
C17   H6    S    
C14   C18   A    
C59   H40   S    
O4    C8    A    
C55   H30   S    
H15   C44   S    
O19   V1    S    
O29   H19   S    
C20   H7    S    
O1    V3    S    
S4    O30   D    
C18   H5    S    
C12   C23   A    
O2    V4    S    
O3    V1    S    
C57   H34   S    
C32   C44   S    
C56   H28   S    
C53   H25   S    
C1    O15   A    
C48   C52   S    
C2    O16   A    
O2    C6    A    
O14   V2    S    
C32   C47   S    
C30   C55   S    
C36   H12   S    
C16   S4    S    
O11   C7    A    
C15   C28   A    
C30   C42   S    
C35   C44   S    
O12   C8    A    
O23   H17   S    
C9    C22   A    
C10   C17   A    
O10   V2    S    
C11   C24   A    
H16   C43   S    
O5    V1    S    
C30   C45   S    
C31   C35   S    
O7    V3    S    
C30   C34   S    
C13   S1    S    
C27   C28   A    
O8    V4    S    
C32   C59   S    
C57   H35   S    
C46   C50   S    
C59   H39   S    
C14   C25   A    
C45   C49   S    
O18   V4    S    
C15   C19   A    
C42   C46   S    
O4    V2    S    
C31   C43   S    
C1    C40   S    
C40   C52   T    
O5    C1    A    
C3    C38   S    
C54   H22   S    
C21   C25   A    
O8    C4    A    
C7    C10   S    
C4    C37   S    
O9    C5    A    
S3    O28   D    
C10   C21   A    
O11   V3    S    
C11   C20   A    
C56   H26   S    
C19   H8    S    
O6    V2    S    
C16   C20   A    
C21   H2    S    
S2    O24   D    
S1    O23   S    
S2    O25   D    
C29   C53   S    
C36   C48   S    
H14   C41   S    
C57   C58   S    
S2    O26   S    
C58   H33   S    
H13   C42   S    
C34   C46   S    
C55   C56   S    
C53   C54   S    
O16   V4    S    
C60   H37   S    
C3    O13   A    
C55   H29   S    
C36   C43   S    
C39   C51   T    
C44   C48   S    
C58   H32   S    
O6    C2    A    
C23   C27   A    
C2    C39   S    
C15   S3    S    
C59   C60   S    
O12   V4    S    
C16   C27   A    
C22   C26   A    
C35   C47   S    
C8    C9    S    
S4    O32   S    
O10   C6    A    
O20   V2    S    
C33   C45   S    
C29   C41   S    
C34   C41   S    
C13   C26   A    
C33   C42   S    
C34   H10   S    
C33   H9    S    
C22   H1    S    
S4    O31   D    
S3    O29   S    
C35   H11   S    
C13   C17   A    
C31   C57   S    
C56   H27   S    
C54   H23   S    
C29   C46   S    
C53   H24   S    
C29   C33   S    
C24   C28   A    
S1    O22   D    
C25   C26   A    
C4    O14   A    
S3    O27   D    
C12   C19   A    
C41   C45   S    
C23   H4    S    
