data_mof_unit_12525.cif
_audit_creation_date              2012-12-10T19:48:02-0500
_audit_creation_method            fapswitch 2.2
_symmetry_space_group_name_H-M    P1
_symmetry_Int_Tables_number       1
_space_group_crystal_system       triclinic
_cell_length_a                    15.01033
_cell_length_b                    14.121872
_cell_length_c                    10.378592
_cell_angle_alpha                 89.99751
_cell_angle_beta                  90.027327
_cell_angle_gamma                 89.999476
_cell_volume                      2199.99098205

loop_
_atom_site_label
_atom_site_type_symbol
_atom_type_description
_atom_site_fract_x
_atom_site_fract_y
_atom_site_fract_z
_atom_type_partial_charge
C1    C     C_R   0.327685 0.500017 0.500165 0.854938
C2    C     C_R   0.565855 0.795341 0.562482 0.007375
C3    C     C_R   0.535782 0.204549 0.601459 0.001210
C4    C     C_R   0.434136 0.795344 0.437535 0.007154
C5    C     C_R   0.499990 0.053332 0.500011 0.141887
C6    C     C_R   0.499990 0.946566 0.500015 0.137318
C7    C     C_R   0.515555 0.500047 0.259746 0.916632
C8    C     C_R   0.484420 0.500043 0.740240 0.916532
C9    C     C_R   0.563316 0.674111 0.099868 0.246529
C10   C     C_R   0.435889 0.326799 0.901047 0.251393
C11   C     C_R   0.436540 0.674081 0.900062 0.246564
C12   C     C_R   0.672304 0.500015 0.499989 0.854817
C13   C     C_R   0.564060 0.326809 0.098946 0.251488
C14   C     C_R   0.532599 0.759430 0.047491 -0.218334
C15   C     C_R   0.466850 0.241427 0.953058 -0.235454
C16   C     C_R   0.467218 0.759414 0.952428 -0.218300
C17   C     C_R   0.533099 0.241432 0.046960 -0.235439
C18   C     C_R   0.473578 0.587067 0.944215 0.030695
C19   C     C_R   0.526536 0.413689 0.055478 0.033186
C20   C     C_R   0.526306 0.587079 0.055746 0.030674
C21   C     C_R   0.473401 0.413683 0.944507 0.033218
C22   C     C_R   0.463404 0.500284 0.878242 -0.240429
C23   C     C_R   0.048088 0.500330 0.502041 0.116676
C24   C     C_R   0.536523 0.500297 0.121728 -0.240487
C25   C     C_R   0.094052 0.580188 0.457924 -0.181143
C26   C     C_R   0.906041 0.420783 0.455525 -0.176429
C27   C     C_R   0.905685 0.579644 0.546487 -0.181467
C28   C     C_R   0.094138 0.420505 0.546186 -0.176852
C29   C     C_R   0.185998 0.580352 0.458302 -0.189968
C30   C     C_R   0.814072 0.420502 0.455559 -0.206017
C31   C     C_R   0.813743 0.579876 0.544931 -0.189727
C32   C     C_R   0.186105 0.420176 0.544997 -0.205813
C33   C     C_R   0.231976 0.500155 0.501185 -0.023108
C34   C     C_R   0.951870 0.500205 0.501478 0.116563
C35   C     C_R   0.767997 0.500139 0.500009 -0.022569
C36   C     C_3   0.640460 0.678868 0.193037 -0.854581
C37   C     C_3   0.357871 0.322554 0.809394 -0.880823
C38   C     C_3   0.359418 0.678799 0.806851 -0.854648
C39   C     C_3   0.642096 0.322573 0.190567 -0.880960
C40   C     C_R   0.464220 0.105182 0.396057 -0.284487
C41   C     C_R   0.567372 0.894720 0.563177 -0.284365
C42   C     C_R   0.535763 0.105177 0.603961 -0.284488
C43   C     C_R   0.432609 0.894723 0.436855 -0.284402
C44   C     C_R   0.464212 0.204554 0.398548 0.001074
H1    H     H_    0.058864 0.641738 0.421936 0.129728
H2    H     H_    0.617748 0.756290 0.611568 0.129326
H3    H     H_    0.563896 0.243439 0.681499 0.145861
H4    H     H_    0.382242 0.756295 0.388455 0.129416
H5    H     H_    0.559538 0.174498 0.080767 0.154800
H6    H     H_    0.441100 0.826375 0.918186 0.152897
H7    H     H_    0.440416 0.174490 0.919266 0.154789
H8    H     H_    0.558694 0.826403 0.081714 0.152904
H9    H     H_    0.619937 0.716669 0.281970 0.257994
H10   H     H_    0.666182 0.607750 0.219067 0.223500
H11   H     H_    0.696339 0.718417 0.148117 0.218545
H12   H     H_    0.941356 0.359602 0.418703 0.131216
H13   H     H_    0.332440 0.393884 0.783862 0.223122
H14   H     H_    0.377117 0.284695 0.719995 0.255718
H15   H     H_    0.302156 0.283458 0.855443 0.222881
H16   H     H_    0.379950 0.716598 0.717916 0.257943
H17   H     H_    0.333727 0.607669 0.780827 0.223566
H18   H     H_    0.303513 0.718332 0.851727 0.218578
H19   H     H_    0.667525 0.393907 0.216074 0.222950
H20   H     H_    0.622873 0.284715 0.279981 0.255809
H21   H     H_    0.697805 0.283480 0.144500 0.222868
H22   H     H_    0.437360 0.069650 0.312265 0.132645
H23   H     H_    0.940698 0.640868 0.583829 0.129726
H24   H     H_    0.621811 0.930278 0.611411 0.133183
H25   H     H_    0.562620 0.069642 0.687756 0.132641
H26   H     H_    0.378165 0.930282 0.388633 0.133182
H27   H     H_    0.058996 0.358969 0.582261 0.131161
H28   H     H_    0.221001 0.642337 0.423329 0.146076
H29   H     H_    0.779139 0.358786 0.419575 0.157237
H30   H     H_    0.778542 0.641539 0.580535 0.145820
H31   H     H_    0.221194 0.358104 0.579508 0.157573
H32   H     H_    0.436098 0.243448 0.318505 0.145849
N1    N     N_R   0.500000 0.252470 0.500000 -0.099261
N2    N     N_R   0.500000 0.747530 0.500000 -0.099161
O1    O     O_R   0.369060 0.579480 0.500010 -0.633416
O2    O     O_R   0.630940 0.420520 0.499990 -0.621755
O3    O     O_R   0.630940 0.579480 0.499990 -0.633375
O4    O     O_R   0.369060 0.420520 0.500010 -0.621920
O5    O     O_R   0.499990 0.579480 0.316780 -0.600359
O6    O     O_R   0.500010 0.420520 0.683220 -0.608433
O7    O     O_R   0.500010 0.579480 0.683220 -0.600459
O8    O     O_R   0.499990 0.420520 0.316780 -0.608400
Zn1   Zn    Zn3+2 0.500000 0.606140 0.500000 0.924361
Zn2   Zn    Zn3+2 0.500000 0.393860 0.500000 0.927040

loop_
_geom_bond_atom_site_label_1
_geom_bond_atom_site_label_2
_ccdc_geom_bond_type
N2    Zn1   S    
O5    Zn1   S    
C5    C42   A    
C3    C42   A    
C7    O5    A    
C32   H31   S    
O1    Zn1   S    
C1    C33   S    
C11   C18   A    
C2    H2    S    
C39   H20   S    
C30   C35   A    
C10   C37   S    
C44   N1    A    
C19   C21   A    
C16   H6    S    
C10   C15   A    
C5    C6    S    
O8    Zn2   S    
C7    O8    A    
C2    C41   A    
C7    C24   S    
C29   C33   A    
C8    O7    A    
C44   H32   S    
C36   H9    S    
C26   C34   A    
C14   H8    S    
C20   C24   A    
N1    Zn2   S    
C6    C41   A    
C9    C36   S    
C8    C22   S    
C15   H7    S    
C18   C20   A    
C37   H14   S    
C38   H17   S    
C10   C21   A    
C40   H22   S    
C21   C22   A    
C39   H21   S    
C41   H24   S    
O7    Zn1   S    
C27   C34   A    
C25   C29   A    
C13   C19   A    
C27   C31   A    
C28   C32   A    
C36   H10   S    
C17   H5    S    
C30   H29   S    
C31   H30   S    
C8    O6    A    
C1    O4    A    
C42   H25   S    
C11   C38   S    
C9    C14   A    
C4    N2    A    
C2    N2    A    
C11   C16   A    
C9    C20   A    
C23   C34   S    
C37   H15   S    
C23   C28   A    
C12   C35   S    
O3    Zn1   S    
C38   H16   S    
C26   C30   A    
C43   H26   S    
C6    C43   A    
C1    O1    A    
C14   C16   A    
C28   H27   S    
C3    N1    A    
C25   H1    S    
C4    H4    S    
C15   C17   A    
C18   C22   A    
O6    Zn2   S    
C26   H12   S    
C4    C43   A    
C39   H19   S    
C13   C17   A    
C32   C33   A    
C29   H28   S    
C19   C24   A    
O2    Zn2   S    
C36   H11   S    
O4    Zn2   S    
C12   O2    A    
C3    H3    S    
C12   O3    A    
C31   C35   A    
C23   C25   A    
C13   C39   S    
C27   H23   S    
C40   C44   A    
C5    C40   A    
C37   H13   S    
C38   H18   S    
