data_mof_unit_18032.cif
_audit_creation_date              2013-03-05T16:15:04-0500
_audit_creation_method            fapswitch 2.2
_symmetry_space_group_name_H-M    P1
_symmetry_Int_Tables_number       1
_space_group_crystal_system       triclinic
_cell_length_a                    8.186902
_cell_length_b                    17.334591
_cell_length_c                    18.727498
_cell_angle_alpha                 102.412587
_cell_angle_beta                  90.625541
_cell_angle_gamma                 98.987715
_cell_volume                      2561.01977963

loop_
_atom_site_label
_atom_site_type_symbol
_atom_site_description
_atom_site_fract_x
_atom_site_fract_y
_atom_site_fract_z
_atom_type_partial_charge
P1    P     P_3+3 0.038810 0.422920 0.331160 0.454622
O1    O     O_2   0.871520 0.445720 0.321500 -0.366475
O2    O     O_3   0.121030 0.451930 0.411150 -0.409505
O3    O     O_3   0.662190 0.593100 0.375060 -0.379915
O4    O     O_2   0.768892 0.531603 0.245122 -0.383621
O5    O     O_3   0.000531 0.318182 0.307003 -0.575151
O6    O     O_3   0.727608 0.679885 0.263284 -0.492512
H1    H     H_    0.677570 0.744202 0.364544 0.115575
C1    C     C_3   0.700053 0.817890 0.285558 -0.812973
H2    H     H_    0.675684 0.812532 0.226088 0.272044
P2    P     P_3+3 0.678260 0.686080 0.568600 0.462851
P3    P     P_3+3 0.143788 0.737336 0.417416 0.478784
O7    O     O_2   0.853880 0.696450 0.547730 -0.408750
O8    O     O_3   0.085100 0.636210 0.413950 -0.360568
O9    O     O_2   0.051752 0.784824 0.479505 -0.381789
O10   O     O_3   0.665758 0.704443 0.664450 -0.584180
O11   O     O_3   0.068806 0.753844 0.335025 -0.503396
C2    C     C_3   0.127688 0.700895 0.276091 0.329890
H3    H     H_    0.231328 0.672279 0.291459 -0.048616
C3    C     C_3   0.189157 0.745598 0.217117 -0.139587
H4    H     H_    0.282739 0.798534 0.242257 0.124448
C4    C     C_3   0.247529 0.709205 0.627679 0.447548
H5    H     H_    0.342882 0.676511 0.600337 0.106448
H6    H     H_    0.139757 0.700391 0.589033 0.121830
C5    C     C_3   0.316612 0.798238 0.649264 -0.982300
H7    H     H_    0.440025 0.807680 0.677796 0.275054
H8    H     H_    0.327885 0.823984 0.599928 0.231752
H9    H     H_    0.233172 0.830630 0.686217 0.268045
Ba1   Ba    Ba6+2 0.853800 0.535410 0.467450 1.570016
C6    C     C_3   0.951214 0.287699 0.367966 0.419023
H10   H     H_    0.838749 0.310638 0.388545 0.094437
H11   H     H_    0.049823 0.304774 0.412012 0.133697
C7    C     C_3   0.914641 0.196817 0.345031 -0.939977
H12   H     H_    0.809345 0.178055 0.303858 0.274307
H13   H     H_    0.025445 0.173548 0.320962 0.268139
C8    C     C_3   0.821185 0.721778 0.701959 0.867117
C9    C     C_3   0.886181 0.811538 0.714177 -1.032553
H14   H     H_    0.923848 0.827339 0.661771 0.230675
H15   H     H_    0.995383 0.828673 0.753189 0.266143
H16   H     H_    0.788632 0.846471 0.736983 0.260293
P4    P     P_3+3 0.150900 0.577150 0.668860 0.492747
O12   O     O_2   0.318180 0.554310 0.678550 -0.324162
O13   O     O_3   0.068680 0.548140 0.588860 -0.419113
O14   O     O_3   0.527520 0.406960 0.624950 -0.386288
O15   O     O_3   0.200350 0.681823 0.690571 -0.555045
P5    P     P_3+3 0.068441 0.262368 0.585908 0.462942
O16   O     O_3   0.608500 0.402060 0.457050 -0.395124
O17   O     O_3   0.104610 0.363860 0.586060 -0.365038
O18   O     O_2   0.197173 0.222873 0.537199 -0.390476
O19   O     O_3   0.118525 0.252901 0.674300 -0.479809
Ba2   Ba    Ba6+2 0.336030 0.464660 0.532560 1.596709
P6    P     P_3+3 0.647095 0.586482 0.280715 0.451453
C10   C     C_3   0.645418 0.737596 0.305515 0.429088
H17   H     H_    0.509684 0.721360 0.294346 -0.014514
H18   H     H_    0.630269 0.863143 0.316698 0.188853
O20   O     O_3   0.581210 0.598010 0.542960 -0.360767
C11   C     C_3   0.463650 0.333111 0.305263 0.434634
H19   H     H_    0.338711 0.343849 0.322966 0.094029
H20   H     H_    0.553733 0.389432 0.322109 0.121889
C12   C     C_3   0.457348 0.308714 0.222168 -0.968563
H21   H     H_    0.365940 0.253269 0.203083 0.274390
H22   H     H_    0.420039 0.357133 0.198430 0.217959
H23   H     H_    0.581307 0.297909 0.202868 0.262044
P7    P     P_3+3 0.519429 0.301085 0.430228 0.436982
O21   O     O_2   0.335820 0.303580 0.452320 -0.369384
O22   O     O_3   0.512117 0.271582 0.334588 -0.562058
H24   H     H_    0.250491 0.705898 0.174835 0.085264
C13   C     C_3   0.993516 0.277406 0.720438 0.340701
H25   H     H_    0.955815 0.333545 0.711018 0.059904
H26   H     H_    0.885275 0.228534 0.711922 0.058624
C14   C     C_3   0.056913 0.293628 0.799703 -0.768850
H27   H     H_    0.161106 0.344508 0.810380 0.304376
H28   H     H_    0.956212 0.309214 0.836651 0.188229
P8    P     P_3+3 0.539240 0.413162 0.718632 0.546691
C15   C     C_3   0.532515 0.261073 0.677659 0.551388
O23   O     O_2   0.404142 0.461686 0.750876 -0.315671
O24   O     O_3   0.466823 0.316653 0.730700 -0.461865
H29   H     H_    0.466836 0.253681 0.623900 0.130615
H30   H     H_    0.558017 0.135727 0.658579 0.211527
C16   C     C_3   0.507249 0.180790 0.699821 -0.927994
H31   H     H_    0.373132 0.159703 0.703904 0.282215
C17   C     C_R   0.996816 0.461993 0.048058 0.093908
C18   C     C_R   0.909668 0.413898 0.091930 -0.188430
C19   C     C_R   0.768440 0.432785 0.955165 -0.278364
C20   C     C_R   0.932187 0.465886 0.978310 0.000088
C21   C     C_R   0.704093 0.430678 0.885840 0.361418
C22   C     C_R   0.803428 0.464347 0.834646 -0.185920
C23   C     C_R   0.967724 0.504150 0.859101 0.015953
C24   C     C_R   0.030288 0.506206 0.931656 0.047832
C25   C     C_R   0.749033 0.460492 0.760804 0.187289
C26   C     C_R   0.859163 0.493068 0.713727 -0.426272
C27   C     C_R   0.018313 0.533806 0.737209 0.230878
C28   C     C_R   0.070376 0.542319 0.811530 0.020774
C29   C     C_R   0.155780 0.504405 0.073852 0.050014
C30   C     C_R   0.216431 0.503892 0.145679 0.000015
C31   C     C_R   0.116199 0.462632 0.191609 -0.039236
C32   C     C_R   0.967548 0.414668 0.161897 -0.055420
H32   H     H_    0.818599 0.488335 0.657559 0.170838
H33   H     H_    0.893659 0.376330 0.191907 0.162452
C33   C     C_R   0.221693 0.589178 0.840165 -0.001717
C34   C     C_R   0.279483 0.592985 0.911151 -0.108368
C35   C     C_R   0.190280 0.548722 0.957290 0.089991
C36   C     C_R   0.254814 0.546484 0.028200 0.071265
C37   C     C_R   0.417981 0.582111 0.054205 -0.153196
C38   C     C_R   0.378012 0.543216 0.171057 -0.039502
C39   C     C_R   0.478057 0.579948 0.123567 -0.165467
C40   C     C_R   0.434200 0.544082 0.243103 0.160831
C41   C     C_R   0.326548 0.510458 0.289830 -0.503940
C42   C     C_R   0.168951 0.469243 0.265342 0.248018
H34   H     H_    0.298146 0.624321 0.808276 0.188494
H35   H     H_    0.604241 0.607943 0.139290 0.209520
H36   H     H_    0.368659 0.513483 0.345465 0.177777
H37   H     H_    0.681904 0.409823 0.991470 0.169943
H38   H     H_    0.796862 0.372956 0.073248 0.132862
H39   H     H_    0.396199 0.631305 0.928113 0.142347
C43   C     C_2   0.446149 0.715697 0.476283 -0.421313
C44   C     C_3   0.373282 0.762291 0.428007 0.119199
C45   C     C_2   0.434164 0.850664 0.448037 -0.243438
C46   C     C_2   0.564052 0.880806 0.496322 0.124383
C47   C     C_2   0.641513 0.825695 0.532143 -0.274710
C48   C     C_1   0.577719 0.748817 0.520445 0.305735
C49   C     C_R   0.791070 0.141050 0.543504 -0.291352
C50   C     C_R   0.857312 0.221195 0.548308 0.211401
C51   C     C_R   0.616717 0.238546 0.480346 0.282908
C52   C     C_R   0.550020 0.158233 0.475066 -0.257360
C53   C     C_R   0.635384 0.108952 0.507286 0.129577
C54   C     C_2   0.641385 0.966087 0.509969 -0.159789
C55   C     C_2   0.557978 0.024492 0.500576 -0.170016
C56   C     C_R   0.766980 0.270419 0.519394 -0.497915
H40   H     H_    0.426799 0.009840 0.485171 0.141773
H41   H     H_    0.749890 0.849776 0.568648 0.142912
H42   H     H_    0.861604 0.105296 0.568423 0.140139
H43   H     H_    0.771486 0.979518 0.526827 0.139712
H44   H     H_    0.382017 0.887567 0.416756 0.139832
H45   H     H_    0.433255 0.133872 0.444713 0.154592
H46   H     H_    0.403291 0.651666 0.465602 0.164762
H47   H     H_    0.818540 0.332607 0.523090 0.166579
H48   H     H_    0.882461 0.170560 0.392998 0.223146
H49   H     H_    0.909380 0.686537 0.671637 0.017020
N1    N     N_R   0.803558 0.699376 0.772896 0.215962
O25   O     O_R   0.660701 0.666783 0.791511 -0.382016
O26   O     O_R   0.933048 0.708099 0.816561 -0.420425
H50   H     H_    0.834164 0.838370 0.299398 0.295136
H51   H     H_    0.100029 0.239757 0.811365 0.262731
H52   H     H_    0.666754 0.279981 0.672437 -0.075770
H53   H     H_    0.026446 0.651266 0.252554 0.161720
H54   H     H_    0.571922 0.186787 0.753649 0.265903
N2    N     N_R   0.534589 0.394876 0.871854 0.253901
O27   O     O_R   0.423239 0.440807 0.887780 -0.412121
O28   O     O_R   0.494268 0.319676 0.873726 -0.389288
H55   H     H_    0.504812 0.611005 0.021575 0.155252
N3    N     N_R   0.052430 0.770697 0.182268 0.292618
O29   O     O_R   0.050307 0.846361 0.186166 -0.357740
O30   O     O_R   0.940559 0.717482 0.141389 -0.369711

loop_
_geom_bond_atom_site_label_1
_geom_bond_atom_site_label_2
_geom_bond_distance
_ccdc_geom_bond_type
C22   C23   1.433792 A    
C33   H34   1.079327 S    
C19   H37   1.077672 S    
C17   C29   1.414992 A    
C24   C35   1.421921 A    
C47   H41   1.085001 S    
P4    O12   1.503364 D    
C3    H24   1.111371 S    
C30   C31   1.421723 A    
C11   O22   1.405682 S    
C37   C39   1.394058 A    
C1    H50   1.109577 S    
C35   C36   1.434351 A    
C10   H17   1.108927 S    
C15   H52   1.108329 S    
C5    H9    1.106328 S    
C38   C40   1.416992 A    
P5    O18   1.545808 D    
C34   C35   1.411524 A    
P8    O23   1.543491 D    
O3    P6    1.747530 S    
C12   H23   1.110822 S    
C37   H55   1.076773 S    
O7    Ba1   2.871986 S    
C8    C9    1.530397 S    
C19   C21   1.386749 A    
O6    P6    1.749574 S    
C2    H3    1.111928 S    
C9    H16   1.110977 S    
Ba1   Ba2   4.541805 S    
C6    H10   1.100298 S    
C11   H20   1.110913 S    
C8    H49   1.102095 S    
C41   C42   1.394153 A    
C12   H22   1.110359 S    
P1    O1    1.503049 D    
Ba2   O21   2.872179 S    
O2    Ba1   2.894094 S    
C45   C46   1.350465 D    
C33   C34   1.390778 A    
C30   C38   1.416236 A    
P1    C42   1.867130 S    
C16   H54   1.110598 S    
P6    C40   1.850567 S    
C13   H25   1.113496 S    
C4    C5    1.522924 S    
P3    O11   1.750283 S    
C51   C56   1.395592 A    
C53   C55   1.479931 S    
C40   C41   1.399233 A    
N3    O30   1.301142 A    
O4    P6    1.543324 D    
C1    H18   1.110164 S    
C1    H2    1.110717 S    
O3    Ba1   2.762117 S    
C45   H44   1.084259 S    
H30   C16   1.108417 S    
O12   Ba2   2.857348 S    
C23   C24   1.438121 A    
C52   H45   1.083555 S    
Ba1   O13   2.808718 S    
P4    O13   1.580795 S    
C18   H38   1.077236 S    
P2    C48   1.832650 S    
Ba2   O20   2.785423 S    
C49   H42   1.079644 S    
C32   H33   1.079739 S    
C7    H12   1.110640 S    
C11   H19   1.109592 S    
C39   H35   1.079215 S    
O17   Ba2   2.721446 S    
P5    O17   1.737225 S    
C43   C48   1.325538 D    
P1    O5    1.750792 S    
N1    O25   1.302190 A    
C26   C27   1.398656 A    
C14   H28   1.110465 S    
C20   C24   1.413996 A    
C21   C22   1.424944 A    
C11   C12   1.520399 S    
O16   Ba2   2.884219 S    
C5    H7    1.110000 S    
P7    C51   1.838877 S    
P8    O24   1.748396 S    
C41   H36   1.081752 S    
C55   H40   1.085186 S    
C12   H21   1.110538 S    
P1    O2    1.580634 S    
P7    O22   1.751418 S    
C49   C53   1.411207 A    
C9    H14   1.108649 S    
C8    N1    1.464557 S    
P2    O10   1.761394 S    
P3    O9    1.548824 D    
C7    H48   1.107706 S    
C31   C32   1.397194 A    
C4    O15   1.398096 S    
P1    Ba1   3.388034 S    
O11   C2    1.416804 S    
C19   C20   1.397971 A    
O14   P8    1.735174 S    
C15   O24   1.402247 S    
C28   C33   1.402098 A    
C31   C42   1.417680 A    
N2    O28   1.301893 A    
O14   Ba2   2.761613 S    
O5    C6    1.395867 S    
Ba1   O16   2.786004 S    
C29   C36   1.420848 A    
O1    Ba1   2.856803 S    
C52   C53   1.407550 A    
C34   H39   1.076830 S    
C4    H6    1.105463 S    
P5    C50   1.834351 S    
C1    C10   1.519809 S    
O6    C10   1.400318 S    
O8    Ba1   2.720857 S    
C54   C55   1.346160 D    
O16   P7    1.750149 S    
C47   C48   1.323344 D    
C15   C16   1.520530 S    
C23   C28   1.426101 A    
O2    Ba2   2.809312 S    
C6    C7    1.521499 S    
C54   H43   1.082568 S    
N1    O26   1.301253 A    
C16   H31   1.110638 S    
C2    H53   1.107973 S    
C21   N2    1.425689 S    
H1    C10   1.110965 S    
C46   C47   1.490085 S    
C43   H46   1.084649 S    
Ba1   O20   2.885040 S    
C5    H8    1.107974 S    
C17   C20   1.422899 A    
C38   C39   1.401304 A    
P5    O19   1.748785 S    
P7    O21   1.568066 D    
P8    C25   1.870400 S    
P3    O8    1.730679 S    
C14   H27   1.109455 S    
C9    H15   1.109400 S    
C44   C45   1.498740 S    
O10   C8    1.404689 S    
C6    H11   1.107067 S    
P2    O7    1.487957 D    
O13   Ba2   2.894916 S    
C25   C26   1.407625 A    
C13   C14   1.519916 S    
C27   C28   1.421181 A    
C7    H13   1.110792 S    
C43   C44   1.509396 S    
C2    C3    1.526991 S    
N2    O27   1.297901 A    
C26   H32   1.081772 S    
C29   C30   1.431071 A    
C15   H29   1.109215 S    
P3    C44   1.859457 S    
C3    N3    1.458254 S    
P4    C27   1.889488 S    
C56   H47   1.081735 S    
C3    H4    1.112381 S    
P2    Ba1   3.403005 S    
C13   H26   1.110260 S    
C17   C18   1.414409 A    
C18   C32   1.385123 A    
C22   C25   1.432695 A    
C36   C37   1.414845 A    
P4    O15   1.752497 S    
C4    H5    1.102272 S    
C14   H51   1.110562 S    
N3    O29   1.300730 A    
C49   C50   1.393595 A    
O19   C13   1.404213 S    
P4    Ba2   3.388686 S    
C50   C56   1.398307 A    
P2    O20   1.577996 S    
C51   C52   1.395810 A    
C46   C54   1.480939 S    
