data_mof_unit_56303.cif
_audit_creation_date              2012-12-11T16:08:57-0500
_audit_creation_method            fapswitch 2.2
_symmetry_space_group_name_H-M    P1
_symmetry_Int_Tables_number       1
_space_group_crystal_system       triclinic
_cell_length_a                    12.900215
_cell_length_b                    13.259195
_cell_length_c                    27.69295
_cell_angle_alpha                 95.097376
_cell_angle_beta                  89.691072
_cell_angle_gamma                 118.946648
_cell_volume                      4124.78030678

loop_
_atom_site_label
_atom_site_type_symbol
_atom_type_description
_atom_site_fract_x
_atom_site_fract_y
_atom_site_fract_z
_atom_type_partial_charge
Br1   Br    Br    0.241074 0.184231 0.320040 -0.424725
Br2   Br    Br    0.911108 0.024268 0.400425 -0.425707
Br3   Br    Br    0.485994 0.615004 0.393269 -0.384479
Br4   Br    Br    0.923360 0.379669 0.889045 -0.474604
Br5   Br    Br    0.945408 0.260323 0.694745 -0.453404
Br6   Br    Br    0.338195 0.158009 0.635592 -0.466733
Br7   Br    Br    0.180546 0.041115 0.122363 -0.497968
C1    C     C_R   0.630921 0.892990 0.428801 0.579145
C2    C     C_R   0.115880 0.731199 0.307057 0.012802
C3    C     C_R   0.091234 0.712104 0.206355 -0.002721
C4    C     C_R   0.601630 0.222666 0.440693 0.559009
C5    C     C_R   0.064580 0.614123 0.230275 -0.114321
C6    C     C_R   0.076089 0.623460 0.280464 -0.090715
C7    C     C_R   0.083408 0.702738 0.156355 -0.153926
C8    C     C_R   0.103422 0.797699 0.131302 0.019421
C9    C     C_R   0.204093 0.948693 0.359730 -0.084927
C10   C     C_R   0.175444 0.937856 0.310302 0.020751
C11   C     C_R   0.136446 0.829295 0.283419 0.032592
C12   C     C_R   0.612611 0.376545 0.232844 -0.118447
C13   C     C_R   0.193539 0.034219 0.286351 0.138180
C14   C     C_R   0.179990 0.023593 0.235913 -0.084130
C15   C     C_R   0.148411 0.917822 0.208296 -0.005579
C16   C     C_R   0.267134 0.876028 0.426450 0.540958
C17   C     C_R   0.124074 0.819645 0.232673 0.026004
C18   C     C_R   0.139404 0.907106 0.157073 0.137394
C19   C     C_R   0.198304 0.854436 0.381451 -0.016682
C20   C     C_R   0.767548 0.921811 0.361320 0.127845
C21   C     C_R   0.769377 0.914912 0.310758 0.009726
C22   C     C_R   0.768505 0.908177 0.209587 0.011066
C23   C     C_R   0.605028 0.364744 0.282463 -0.080629
C24   C     C_R   0.862928 0.998020 0.237518 -0.111937
C25   C     C_R   0.864626 0.000245 0.287550 -0.082881
C26   C     C_R   0.771666 0.902492 0.159491 -0.105734
C27   C     C_R   0.688610 0.803229 0.130801 -0.002915
C28   C     C_R   0.627524 0.898493 0.564644 0.542321
C29   C     C_R   0.575824 0.746712 0.356858 0.101649
C30   C     C_R   0.573912 0.737449 0.305415 -0.033558
C31   C     C_R   0.671455 0.824434 0.282742 -0.007471
C32   C     C_R   0.478392 0.647413 0.275484 0.002074
C33   C     C_R   0.487233 0.639998 0.224964 -0.145122
C34   C     C_R   0.674029 0.326200 0.305083 0.004060
C35   C     C_R   0.583228 0.725298 0.202961 -0.005397
C36   C     C_R   0.673705 0.819618 0.231817 0.063309
C37   C     C_R   0.591820 0.716516 0.152432 -0.128937
C38   C     C_R   0.662099 0.848930 0.383284 0.020128
C39   C     C_R   0.685895 0.204688 0.657880 -0.142665
C40   C     C_R   0.568636 0.168395 0.581741 0.565688
C41   C     C_R   0.705551 0.229040 0.708085 -0.003183
C42   C     C_R   0.748406 0.296033 0.808813 -0.003454
C43   C     C_R   0.836652 0.292491 0.779874 -0.039724
C44   C     C_R   0.815932 0.258477 0.730268 0.144494
C45   C     C_R   0.688353 0.348971 0.205019 0.013487
C46   C     C_R   0.771962 0.340225 0.858227 0.138019
C47   C     C_R   0.683832 0.354724 0.884105 0.011984
C48   C     C_R   0.486661 0.181553 0.664107 0.130293
C49   C     C_R   0.502965 0.199336 0.714991 0.027808
C50   C     C_R   0.614195 0.227840 0.736718 0.008683
C51   C     C_R   0.411708 0.193182 0.744871 -0.091473
C52   C     C_R   0.270881 0.879218 0.563255 0.548008
C53   C     C_R   0.432327 0.222796 0.794450 -0.122855
C54   C     C_R   0.544638 0.260345 0.815359 0.002868
C55   C     C_R   0.635436 0.259949 0.787086 0.025746
C56   C     C_1   0.696334 0.370135 0.154528 0.017563
C57   C     C_R   0.568944 0.305981 0.863465 -0.148251
C58   C     C_R   0.580285 0.186220 0.635285 -0.014014
C59   C     C_1   0.220564 0.861762 0.609943 0.041810
C60   C     C_R   0.187555 0.761099 0.725225 -0.101918
C61   C     C_R   0.175765 0.756734 0.775114 -0.120162
C62   C     C_R   0.128666 0.914962 0.779614 0.047588
C63   C     C_R   0.141062 0.917864 0.729054 -0.109056
C64   C     C_1   0.635655 0.272263 0.395453 0.026880
C65   C     C_R   0.169768 0.841160 0.702099 0.010738
C66   C     C_R   0.146780 0.832799 0.802627 0.011144
C67   C     C_1   0.656541 0.301881 0.355018 -0.019723
C68   C     C_1   0.128313 0.817802 0.853410 0.016115
C69   C     C_1   0.191822 0.850904 0.651383 -0.013374
C70   C     C_1   0.103327 0.798401 0.894761 0.049983
C71   C     C_1   0.647469 0.861684 0.609056 0.019121
C72   C     C_R   0.739198 0.919328 0.731766 -0.097454
C73   C     C_R   0.748541 0.906780 0.781133 0.073621
C74   C     C_R   0.638285 0.696956 0.762093 -0.128876
C75   C     C_R   0.628651 0.711083 0.713213 -0.100439
C76   C     C_R   0.751085 0.299682 0.277890 -0.115312
C77   C     C_R   0.679031 0.822311 0.698059 0.007291
C78   C     C_1   0.703953 0.396092 0.113500 0.037631
C79   C     C_R   0.697137 0.793852 0.796236 0.013659
C80   C     C_1   0.709176 0.775681 0.845934 0.014484
C81   C     C_1   0.662437 0.839387 0.648769 -0.028358
C82   C     C_1   0.723831 0.764500 0.887602 0.048088
C83   C     C_R   0.061595 0.770740 0.080266 0.573034
C84   C     C_R   0.716946 0.441346 0.067374 0.550104
C85   C     C_R   0.721125 0.782178 0.081639 0.553136
C86   C     C_R   0.057363 0.766383 0.941394 0.546249
C87   C     C_R   0.710155 0.431020 0.929659 0.555803
C88   C     C_R   0.759524 0.310387 0.227607 0.061960
C89   C     C_R   0.145184 0.744293 0.356246 -0.120995
C90   C     C_R   0.748166 0.755170 0.936856 0.556313
C91   C     C_2   0.361424 0.567735 0.293919 0.645367
C92   C     C_2   0.841856 0.279768 0.200203 0.552336
C93   C     C_2   0.097413 0.998379 0.806652 0.564234
C94   C     C_2   0.811439 0.012667 0.815685 0.584077
Cr1   Cr    Cr6+3 0.416430 0.829200 0.492370 1.097722
Cr2   Cr    Cr6+3 0.674630 0.087020 0.504170 1.097545
Cr3   Cr    Cr6+3 0.408920 0.083740 0.503490 1.113831
Cr4   Cr    Cr6+3 0.914010 0.832750 0.013970 1.097411
Cr5   Cr    Cr6+3 0.922310 0.578600 0.003000 1.090464
Cr6   Cr    Cr6+3 0.656280 0.574630 0.003870 1.047900
H1    H     H_    0.802315 0.267699 0.295842 0.161348
H2    H     H_    0.924226 0.319166 0.794851 0.223493
H3    H     H_    0.499285 0.310980 0.883880 0.151336
H4    H     H_    0.361463 0.221168 0.816175 0.155921
H5    H     H_    0.324112 0.168477 0.730629 0.192080
H6    H     H_    0.211552 0.702515 0.704708 0.142440
H7    H     H_    0.559026 0.407546 0.216047 0.142261
H8    H     H_    0.188694 0.693106 0.792323 0.143923
H9    H     H_    0.128610 0.980030 0.710450 0.179667
H10   H     H_    0.776083 0.005096 0.719629 0.176423
H11   H     H_    0.599571 0.610227 0.773335 0.131501
H12   H     H_    0.195972 0.099735 0.218847 0.200028
H13   H     H_    0.581109 0.635512 0.687401 0.146353
H14   H     H_    0.544079 0.384185 0.303045 0.186148
H15   H     H_    0.054536 0.617995 0.137069 0.152807
H16   H     H_    0.137182 0.670920 0.373708 0.173585
H17   H     H_    0.037024 0.530712 0.210066 0.150098
H18   H     H_    0.058640 0.547537 0.298274 0.174913
H19   H     H_    0.341342 0.697538 0.328439 0.302362
H20   H     H_    0.889688 0.234646 0.135802 0.348323
H21   H     H_    0.037304 0.044500 0.867546 0.366552
H22   H     H_    0.828853 0.090108 0.883526 0.364969
H23   H     H_    0.242185 0.032775 0.380320 0.197466
H24   H     H_    0.846450 0.971029 0.143290 0.162497
H25   H     H_    0.937142 0.065366 0.220593 0.171360
H26   H     H_    0.939656 0.071754 0.307584 0.209359
H27   H     H_    0.526981 0.639975 0.130401 0.136332
H28   H     H_    0.415564 0.570081 0.202416 0.142135
H29   H     H_    0.754967 0.204363 0.635737 0.197967
O1    O     O_R   0.296680 0.802170 0.437540 -0.489747
O2    O     O_R   0.637200 0.461990 0.052510 -0.503422
O3    O     O_R   0.664790 0.681920 0.057970 -0.496789
O4    O     O_R   0.525380 0.838530 0.443500 -0.463415
O5    O     O_R   0.815840 0.852920 0.961840 -0.469023
O6    O     O_R   0.012100 0.822630 0.963670 -0.494221
O7    O     O_R   0.037010 0.668460 0.953040 -0.476032
O8    O     O_R   0.813390 0.478970 0.949660 -0.447974
O9    O     O_R   0.632250 0.456930 0.945520 -0.529737
O10   O     O_R   0.660200 0.677230 0.958780 -0.491927
O11   O     O_3   0.830870 0.661990 0.006950 -0.297235
O12   O     O_R   0.662610 0.183990 0.557860 -0.502595
O13   O     O_R   0.702130 0.995190 0.446810 -0.461439
O14   O     O_R   0.661770 0.181390 0.458760 -0.484764
O15   O     O_R   0.499820 0.198480 0.455280 -0.480586
O16   O     O_R   0.311660 0.976250 0.449080 -0.500652
O17   O     O_R   0.297580 0.804960 0.544440 -0.504479
O18   O     O_R   0.526220 0.841130 0.542590 -0.491613
O19   O     O_R   0.703030 0.997990 0.553710 -0.496483
O20   O     O_2   0.315962 0.463830 0.281936 -0.405706
O21   O     O_R   0.299338 0.609886 0.323114 -0.641588
O22   O     O_2   0.921153 0.274638 0.222010 -0.525888
O23   O     O_R   0.500730 0.201280 0.562180 -0.436422
O24   O     O_R   0.828558 0.254987 0.149764 -0.692231
O25   O     O_2   0.108301 0.082617 0.787628 -0.477297
O26   O     O_R   0.054707 0.981339 0.853409 -0.694572
O27   O     O_2   0.890885 0.101251 0.801612 -0.464864
O28   O     O_R   0.779399 0.012480 0.864002 -0.683906
O29   O     O_R   0.312500 0.978850 0.548170 -0.474011
O30   O     O_3   0.499990 0.999990 0.500010 -0.307460
O31   O     O_R   0.820790 0.857990 0.068830 -0.498215
O32   O     O_R   0.016700 0.827330 0.062850 -0.452707
O33   O     O_R   0.041970 0.673520 0.060040 -0.522991
O34   O     O_R   0.817980 0.483660 0.048840 -0.487427

loop_
_geom_bond_atom_site_label_1
_geom_bond_atom_site_label_2
_ccdc_geom_bond_type
C16   O16   A    
C7    H15   S    
Br4   C46   S    
Cr5   O34   S    
C90   O10   A    
C28   O18   A    
C75   H13   S    
Br6   C48   S    
C48   C49   A    
C74   C75   A    
C52   O17   A    
C41   C50   A    
C40   O23   A    
C46   C47   A    
C76   H1    S    
C24   H25   S    
Cr1   O17   S    
C11   C17   A    
Cr3   O15   S    
C29   C30   A    
C28   O19   A    
C52   C59   S    
Cr4   O5    S    
C72   C77   A    
Cr6   O9    S    
C88   C92   S    
C8    C18   A    
C51   C53   A    
Cr4   O11   S    
C22   C26   A    
C10   C13   A    
C49   C50   A    
C83   O33   A    
C45   C88   A    
C60   C65   A    
C16   C19   S    
C2    C6    A    
C1    C38   S    
C73   C79   A    
Cr2   O14   S    
C34   C67   S    
C12   C45   A    
C41   C44   A    
C9    C10   A    
C15   C18   A    
C23   H14   S    
C23   C34   A    
C62   C66   A    
Br2   C20   S    
C9    H23   S    
Cr1   O18   S    
C74   C79   A    
C86   O7    A    
C65   C69   S    
Cr2   O19   S    
C6    H18   S    
C20   C38   A    
C87   O9    A    
C33   C35   A    
Cr3   O29   S    
C59   C69   T    
Cr1   O30   S    
C14   C15   A    
C56   C78   T    
C19   C89   A    
C66   C68   S    
C62   C63   A    
C35   C37   A    
C21   C25   A    
C48   C58   A    
Cr2   O12   S    
C26   C27   A    
C51   H5    S    
C91   O20   D    
C9    C19   A    
C33   H28   S    
C39   C41   A    
C60   C61   A    
Cr5   O7    S    
C27   C37   A    
C39   C58   A    
C3    C7    A    
C32   C33   A    
Cr6   O10   S    
C79   C80   S    
C32   C91   S    
C12   H7    S    
C63   H9    S    
C61   C66   A    
C39   H29   S    
C74   H11   S    
C43   H2    S    
Cr5   O11   S    
Cr4   O31   S    
H22   O28   S    
C82   C90   S    
C53   C54   A    
Cr1   O1    S    
C54   C57   A    
C30   C31   A    
C84   O2    A    
Cr6   O11   S    
C4    O14   A    
C57   H3    S    
C24   C25   A    
C5    H17   S    
C91   O21   S    
C21   C31   A    
C76   C88   A    
H21   O26   S    
C10   C11   A    
C29   C38   A    
C43   C44   A    
Cr1   O4    S    
C13   C14   A    
C68   C70   T    
C2    C89   A    
C90   O5    A    
C93   O25   D    
C3    C5    A    
C4    O15   A    
C75   C77   A    
C80   C82   T    
Cr5   O33   S    
C15   C17   A    
C35   C36   A    
C50   C55   A    
Cr3   O23   S    
C78   C84   S    
Cr4   O6    S    
H19   O21   S    
C71   C81   T    
C40   O12   A    
C14   H12   S    
Br1   C13   S    
C42   C55   A    
C84   O34   A    
C83   O32   A    
C16   O1    A    
C94   O28   S    
C77   C81   S    
C45   C56   S    
C52   O29   A    
C64   C67   T    
C63   C65   A    
Cr5   O8    S    
C28   C71   S    
Br7   C18   S    
Cr4   O32   S    
C73   C94   S    
C1    O4    A    
C87   O8    A    
Cr3   O16   S    
Cr6   O2    S    
C1    O13   A    
C60   H6    S    
C31   C36   A    
C30   C32   A    
C53   H4    S    
C8    C83   S    
C85   O3    A    
C85   O31   A    
C26   H24   S    
C25   H26   S    
C47   C57   A    
Br3   C29   S    
C42   C46   A    
C72   H10   S    
C94   O27   D    
C70   C86   S    
C49   C51   A    
C4    C64   S    
C89   H16   S    
Cr6   O3    S    
C54   C55   A    
C27   C85   S    
C47   C87   S    
Cr2   O13   S    
C61   H8    S    
Cr3   O30   S    
C72   C73   A    
C37   H27   S    
C62   C93   S    
C2    C11   A    
C5    C6    A    
Cr2   O30   S    
C22   C24   A    
C42   C43   A    
C92   O22   D    
C20   C21   A    
C7    C8    A    
Br5   C44   S    
C3    C17   A    
C93   O26   S    
C92   O24   S    
C12   C23   A    
H20   O24   S    
C40   C58   S    
C22   C36   A    
C86   O6    A    
C34   C76   A    
