data_mof_unit_63494.cif
_audit_creation_date              2012-12-11T17:19:06-0500
_audit_creation_method            fapswitch 2.2
_symmetry_space_group_name_H-M    P1
_symmetry_Int_Tables_number       1
_space_group_crystal_system       triclinic
_cell_length_a                    14.590017
_cell_length_b                    7.271014
_cell_length_c                    13.512419
_cell_angle_alpha                 90.004525
_cell_angle_beta                  99.861585
_cell_angle_gamma                 89.965254
_cell_volume                      1412.2739602

loop_
_atom_site_label
_atom_site_type_symbol
_atom_type_description
_atom_site_fract_x
_atom_site_fract_y
_atom_site_fract_z
_atom_type_partial_charge
O1    O     O_R   0.648180 0.355050 0.151550 -0.532393
O2    O     O_R   0.351820 0.644950 0.848450 -0.532394
O3    O     O_R   0.851820 0.855050 0.348450 -0.531969
O4    O     O_R   0.148180 0.144950 0.651550 -0.531963
O5    O     O_R   0.835240 0.681980 0.154280 -0.538049
O6    O     O_R   0.164760 0.318020 0.845720 -0.538047
O7    O     O_R   0.664760 0.181980 0.345720 -0.539063
O8    O     O_R   0.335240 0.818020 0.654280 -0.539064
H1    H     H_    0.675706 0.032239 0.830656 0.120586
H2    H     H_    0.324295 0.967719 0.169345 0.120590
H3    H     H_    0.823286 0.474481 0.669678 0.121023
H4    H     H_    0.176713 0.525474 0.330323 0.121025
C1    C     C_R   0.863965 0.516088 0.133650 0.694428
C2    C     C_R   0.136035 0.483912 0.866350 0.694428
C3    C     C_R   0.636001 0.016166 0.366316 0.694143
C4    C     C_R   0.364000 0.983834 0.633684 0.694141
O9    O     O_R   0.647870 0.684600 0.139630 -0.536185
O10   O     O_R   0.352130 0.315400 0.860370 -0.536184
O11   O     O_R   0.852130 0.184600 0.360370 -0.536328
O12   O     O_R   0.147870 0.815400 0.639630 -0.536333
O13   O     O_R   0.663110 0.857440 0.333700 -0.533949
O14   O     O_R   0.336890 0.142560 0.666300 -0.533949
O15   O     O_R   0.836890 0.357440 0.166300 -0.535206
O16   O     O_R   0.163110 0.642560 0.833700 -0.535206
C5    C     C_R   0.615061 0.516007 0.113263 0.719642
C6    C     C_R   0.384939 0.483993 0.886737 0.719642
C7    C     C_R   0.884933 0.015959 0.386739 0.718694
C8    C     C_R   0.115067 0.984041 0.613261 0.718697
H5    H     H_    0.513065 0.009515 0.762916 0.119235
H6    H     H_    0.486935 0.990496 0.237084 0.119238
H7    H     H_    0.986377 0.478942 0.737244 0.118515
H8    H     H_    0.013622 0.521028 0.262756 0.118518
O17   O     O_3   0.755220 0.522230 0.313690 -0.377132
O18   O     O_3   0.244780 0.477770 0.686310 -0.377132
O19   O     O_3   0.744780 0.022230 0.186310 -0.377378
O20   O     O_3   0.255220 0.977770 0.813690 -0.377378
V1    V     V_3+5 0.749030 0.796100 0.238190 1.409853
V2    V     V_3+5 0.250970 0.203900 0.761810 1.409866
V3    V     V_3+5 0.750970 0.296100 0.261810 1.407013
V4    V     V_3+5 0.249030 0.703900 0.738190 1.407006
C9    C     C_1   0.966020 0.005321 0.466736 -0.194649
C10   C     C_1   0.033980 0.994679 0.533264 -0.194653
C11   C     C_1   0.533977 0.505383 0.033262 -0.193137
C12   C     C_1   0.466023 0.494616 0.966738 -0.193137
C13   C     C_R   0.561175 0.013781 0.710250 -0.206914
C14   C     C_R   0.438826 0.986220 0.289750 -0.206931
C15   C     C_R   0.938282 0.484314 0.789908 -0.204918
C16   C     C_R   0.061717 0.515665 0.210092 -0.204942
C17   C     C_R   0.655704 0.026319 0.749924 -0.084094
C18   C     C_R   0.344298 0.973655 0.250076 -0.084083
C19   C     C_R   0.843516 0.482187 0.750347 -0.082287
C20   C     C_R   0.156483 0.517783 0.249653 -0.082307
C21   C     C_R   0.722389 0.030959 0.686339 0.351502
C22   C     C_R   0.277615 0.968988 0.313662 0.351513
C23   C     C_R   0.776880 0.487990 0.813984 0.351600
C24   C     C_R   0.223119 0.511996 0.186016 0.351635
C25   C     C_R   0.691814 0.025828 0.582152 -0.254865
C26   C     C_R   0.308189 0.974135 0.417849 -0.254866
C27   C     C_R   0.807673 0.495806 0.918084 -0.252227
C28   C     C_R   0.192326 0.504195 0.081915 -0.252173
C29   C     C_R   0.596216 0.013812 0.540174 0.021253
C30   C     C_R   0.403785 0.986178 0.459826 0.021258
C31   C     C_R   0.903497 0.498703 0.959916 0.020601
C32   C     C_R   0.096502 0.501296 0.040083 0.020609
C33   C     C_R   0.529629 0.006918 0.605459 0.053309
C34   C     C_R   0.470372 0.993082 0.394541 0.053310
C35   C     C_R   0.970086 0.492127 0.894617 0.052485
C36   C     C_R   0.029913 0.507866 0.105382 0.052485
C37   C     C_R   0.566589 0.007358 0.434670 -0.138753
C38   C     C_R   0.433411 0.992642 0.565330 -0.138755
C39   C     C_R   0.933401 0.507096 0.065330 -0.138513
C40   C     C_R   0.066598 0.492904 0.934670 -0.138519
H9    H     H_    0.744057 0.031427 0.534245 0.101984
H10   H     H_    0.255946 0.968517 0.465756 0.101972
H11   H     H_    0.755439 0.498525 0.966071 0.101129
H12   H     H_    0.244561 0.501484 0.033929 0.101115
N1    N     N_2   0.180005 0.953428 0.276085 -0.525506
H13   H     H_    0.136522 0.988069 0.325882 0.248970
C41   C     C_3   0.144212 0.998900 0.172326 -0.522722
H14   H     H_    0.067102 0.988900 0.158389 0.197439
H15   H     H_    0.170597 0.900404 0.121164 0.207680
H16   H     H_    0.164158 0.140992 0.155576 0.198733
N2    N     N_2   0.820003 0.046433 0.723917 -0.525515
H17   H     H_    0.863476 0.011638 0.674138 0.248973
C42   C     C_3   0.855774 0.001107 0.827702 -0.522683
H18   H     H_    0.932887 0.011037 0.841645 0.197437
H19   H     H_    0.835796 0.859064 0.844518 0.198715
H20   H     H_    0.829406 0.099730 0.878812 0.207693
N3    N     N_2   0.321025 0.519723 0.223375 -0.524889
H21   H     H_    0.363514 0.475457 0.174466 0.249134
C43   C     C_3   0.355704 0.480241 0.328138 -0.522238
H22   H     H_    0.432979 0.481532 0.341901 0.197563
H23   H     H_    0.331704 0.342981 0.348358 0.198475
H24   H     H_    0.332168 0.586905 0.376814 0.208338
N4    N     N_2   0.678973 0.480265 0.776625 -0.524886
H25   H     H_    0.636488 0.524566 0.825530 0.249137
C44   C     C_3   0.644296 0.519736 0.671860 -0.522236
H26   H     H_    0.567021 0.518457 0.658096 0.197562
H27   H     H_    0.667828 0.413060 0.623188 0.208339
H28   H     H_    0.668301 0.656990 0.651635 0.198473

loop_
_geom_bond_atom_site_label_1
_geom_bond_atom_site_label_2
_ccdc_geom_bond_type
C26   C30   A    
O5    V1    S    
C9    C10   T    
N4    H25   S    
O10   C6    A    
C5    C11   S    
C44   H26   S    
C6    C12   S    
N1    H13   S    
C30   C38   A    
C18   C22   A    
O18   V4    S    
C32   C36   A    
O19   V1    S    
C14   C34   A    
C16   C20   A    
C23   C27   A    
O12   V4    S    
C17   C21   A    
C34   C37   A    
C43   H23   S    
C25   H9    S    
C33   C38   A    
O14   V2    S    
C1    O15   A    
C35   C40   A    
C2    O16   A    
C44   H27   S    
O17   V3    S    
O6    V2    S    
N3    C43   S    
O11   C7    A    
O5    C1    A    
C22   N1    S    
O7    C3    A    
O8    C4    A    
H7    C15   S    
O1    C5    A    
H8    C16   S    
C15   C35   A    
H4    C20   S    
O3    C7    A    
N1    C41   S    
C3    C37   S    
C31   C35   A    
C30   C34   A    
C42   H19   S    
H1    C17   S    
C23   N4    S    
C43   H22   S    
C41   H15   S    
C21   C25   A    
C15   C19   A    
C1    C39   S    
C42   H18   S    
C28   H12   S    
C24   C28   A    
H5    C13   S    
C11   C12   T    
O2    V4    S    
O6    C2    A    
C7    C9    S    
N2    H17   S    
C13   C17   A    
C4    C38   S    
O2    C6    A    
O9    V1    S    
C16   C36   A    
O11   V3    S    
C24   N3    S    
N2    C42   S    
C31   C39   A    
C13   C33   A    
H2    C18   S    
C27   H11   S    
C44   H28   S    
C26   H10   S    
C22   C26   A    
C42   H20   S    
C29   C37   A    
C4    O14   A    
C2    C40   S    
H6    C14   S    
O4    V2    S    
C41   H16   S    
N4    C44   S    
C25   C29   A    
O12   C8    A    
C14   C18   A    
C27   C31   A    
C21   N2    S    
C28   C32   A    
O9    C5    A    
O20   V2    S    
O10   V2    S    
C43   H24   S    
C36   C39   A    
O15   V3    S    
C8    C10   S    
O16   V4    S    
C19   C23   A    
C32   C40   A    
H3    C19   S    
O1    V3    S    
C41   H14   S    
C29   C33   A    
C3    O13   A    
O13   V1    S    
O3    V1    S    
O4    C8    A    
O7    V3    S    
O8    V4    S    
N3    H21   S    
C20   C24   A    
