data_mof_unit_31987.cif
_audit_creation_date              2012-12-10T16:48:07-0500
_audit_creation_method            fapswitch 2.2
_symmetry_space_group_name_H-M    P1
_symmetry_Int_Tables_number       1
_space_group_crystal_system       triclinic
_cell_length_a                    15.825527
_cell_length_b                    8.693981
_cell_length_c                    7.45401
_cell_angle_alpha                 103.006032
_cell_angle_beta                  94.027869
_cell_angle_gamma                 92.208749
_cell_volume                      995.236156155

loop_
_atom_site_label
_atom_site_type_symbol
_atom_type_description
_atom_site_fract_x
_atom_site_fract_y
_atom_site_fract_z
_atom_type_partial_charge
C1    C     C_R   0.497483 0.199746 0.453276 0.879491
C2    C     C_R   0.502517 0.800254 0.546724 0.879491
C3    C     C_R   0.339929 0.499863 0.502537 0.822513
C4    C     C_R   0.660071 0.500137 0.497463 0.822513
C5    C     C_2   0.496275 0.031850 0.427044 -0.369845
C6    C     C_2   0.503725 0.968150 0.572956 -0.369845
C7    C     C_3   0.970124 0.373376 0.555992 -0.159485
C8    C     C_3   0.029876 0.626624 0.444008 -0.159485
C9    C     C_3   0.022617 0.367323 0.387129 -0.159891
C10   C     C_3   0.977382 0.632677 0.612871 -0.159891
C11   C     C_1   0.250331 0.500383 0.507707 -0.172755
C12   C     C_1   0.749669 0.499617 0.492293 -0.172755
C13   C     C_3   0.031904 0.506360 0.673648 -0.159583
C14   C     C_3   0.968095 0.493640 0.326352 -0.159583
C15   C     C_3   0.082835 0.500307 0.504761 0.194692
C16   C     C_3   0.917165 0.499692 0.495239 0.194692
C17   C     C_1   0.174679 0.500495 0.508134 -0.077889
C18   C     C_1   0.825321 0.499505 0.491866 -0.077889
Cu1   Cu    Cu3+1 0.509330 0.517380 0.684380 0.954693
Cu2   Cu    Cu3+1 0.490670 0.482620 0.315620 0.954693
H1    H     H_    0.944153 0.269366 0.601714 0.128214
H2    H     H_    0.055847 0.730634 0.398286 0.128214
H3    H     H_    0.940583 0.488423 0.183784 0.130429
H4    H     H_    0.059417 0.511577 0.816216 0.130429
N1    N     N_2   0.476600 0.456420 0.038510 -0.215353
N2    N     N_2   0.523400 0.543580 0.961490 -0.215353
O1    O     O_R   0.506070 0.286130 0.619780 -0.584472
O2    O     O_R   0.493930 0.713870 0.380220 -0.584472
O3    O     O_R   0.490300 0.256770 0.308360 -0.586322
O4    O     O_R   0.509700 0.743230 0.691640 -0.586322
O5    O     O_R   0.386960 0.514660 0.655680 -0.583375
O6    O     O_R   0.613040 0.485340 0.344320 -0.583375
O7    O     O_R   0.371190 0.485310 0.344260 -0.575191
O8    O     O_R   0.628810 0.514690 0.655740 -0.575191
H5    H     H_    0.042636 0.258362 0.294694 0.127666
H6    H     H_    0.957364 0.741638 0.705306 0.127666
H7    H     H_    0.489251 0.960286 0.286408 0.180100
H8    H     H_    0.510749 0.039714 0.713592 0.180100
H9    H     H_    0.434419 0.377492 0.948797 0.226363
H10   H     H_    0.565581 0.622508 0.051203 0.226363

loop_
_geom_bond_atom_site_label_1
_geom_bond_atom_site_label_2
_ccdc_geom_bond_type
C14   H3    S    
C8    H2    S    
C9    C14   S    
C6    H8    S    
C5    H7    S    
C4    C12   S    
Cu1   O1    S    
Cu1   Cu2   S    
C2    O4    A    
Cu1   O5    S    
C1    O3    A    
C9    C15   S    
C1    O1    A    
C10   C16   S    
N1    H9    S    
C3    O5    A    
N2    H10   S    
C4    O6    A    
C8    C14   S    
C1    C5    S    
Cu2   O7    S    
C8    C10   S    
C7    C16   S    
C10   H6    S    
C8    C15   S    
C4    O8    A    
Cu2   O3    S    
C13   C15   S    
C5    C6    D    
C14   C16   S    
C3    C11   S    
Cu2   N1    S    
C3    O7    A    
C9    H5    S    
C7    C9    S    
C7    C13   S    
C16   C18   S    
Cu2   O6    S    
C12   C18   T    
C15   C17   S    
Cu1   N2    S    
C11   C17   T    
C2    O2    A    
Cu2   O2    S    
N1    N2    D    
C7    H1    S    
Cu1   O4    S    
Cu1   O8    S    
C2    C6    S    
C13   H4    S    
C10   C13   S    
