data_mof_unit_35570.cif
_audit_creation_date              2012-12-11T14:54:20-0500
_audit_creation_method            fapswitch 2.2
_symmetry_space_group_name_H-M    P1
_symmetry_Int_Tables_number       1
_space_group_crystal_system       triclinic
_cell_length_a                    18.921116
_cell_length_b                    10.926513
_cell_length_c                    18.904968
_cell_angle_alpha                 89.825277
_cell_angle_beta                  89.993114
_cell_angle_gamma                 89.856324
_cell_volume                      3908.41700415

loop_
_atom_site_label
_atom_site_type_symbol
_atom_type_description
_atom_site_fract_x
_atom_site_fract_y
_atom_site_fract_z
_atom_type_partial_charge
C1    C     C_R   0.730339 0.376446 0.645726 0.616562
C2    C     C_R   0.271259 0.374943 0.355309 0.537909
C3    C     C_R   0.230339 0.876446 0.645726 0.616561
C4    C     C_R   0.771258 0.874943 0.355309 0.537909
C5    C     C_3   0.552571 0.348555 0.449881 0.141427
C6    C     C_3   0.564619 0.354411 0.529625 0.132432
C7    C     C_3   0.052571 0.848554 0.449881 0.141426
C8    C     C_3   0.064619 0.854411 0.529625 0.132432
C9    C     C_R   0.686263 0.894192 0.534823 0.309240
C10   C     C_R   0.270357 0.854491 0.452209 0.304749
C11   C     C_R   0.186263 0.394192 0.534823 0.309239
C12   C     C_R   0.770356 0.354492 0.452209 0.304748
C13   C     C_R   0.691524 0.891936 0.460551 0.151871
C14   C     C_R   0.267290 0.823428 0.524094 0.113310
C15   C     C_R   0.191524 0.391936 0.460551 0.151870
C16   C     C_R   0.767290 0.323428 0.524093 0.113310
C17   C     C_R   0.758605 0.906053 0.429118 -0.027697
C18   C     C_R   0.250981 0.914150 0.574867 0.029703
C19   C     C_R   0.258605 0.406053 0.429118 -0.027698
C20   C     C_R   0.750981 0.414150 0.574867 0.029704
C21   C     C_R   0.818598 0.928326 0.471840 0.318409
C22   C     C_R   0.242535 0.036131 0.554188 0.369525
C23   C     C_R   0.318598 0.428326 0.471840 0.318410
C24   C     C_R   0.742536 0.536131 0.554189 0.369524
C25   C     C_R   0.812889 0.932092 0.543884 -0.120514
C26   C     C_R   0.250168 0.067785 0.483594 -0.149922
C27   C     C_R   0.312889 0.432092 0.543884 -0.120512
C28   C     C_R   0.750169 0.567786 0.483594 -0.149922
C29   C     C_R   0.747269 0.921322 0.575757 0.036896
C30   C     C_R   0.263646 0.977976 0.432928 0.014374
C31   C     C_R   0.247269 0.421323 0.575757 0.036895
C32   C     C_R   0.763646 0.477976 0.432928 0.014374
C33   C     C_R   0.452934 0.084794 0.947256 -0.143131
C34   C     C_R   0.433906 0.081015 0.017925 -0.175732
C35   C     C_R   0.952934 0.584793 0.947256 -0.143132
C36   C     C_R   0.933906 0.581015 0.017925 -0.175733
C37   C     C_R   0.465435 0.160214 0.066541 0.016303
C38   C     C_R   0.501843 0.171395 0.923854 0.001375
C39   C     C_R   0.965435 0.660214 0.066541 0.016303
C40   C     C_R   0.001843 0.671395 0.923854 0.001376
C41   C     C_R   0.516682 0.245431 0.044025 0.348570
C42   C     C_R   0.531121 0.256367 0.972256 0.265578
C43   C     C_R   0.016681 0.745431 0.044025 0.348572
C44   C     C_R   0.031121 0.756367 0.972256 0.265579
C45   C     C_R   0.530957 0.155831 0.647283 0.578947
C46   C     C_R   0.460374 0.153080 0.357584 0.598884
C47   C     C_R   0.030957 0.655831 0.647283 0.578947
C48   C     C_R   0.960374 0.653080 0.357584 0.598884
C49   C     C_R   0.815643 0.914842 0.954723 0.220662
C50   C     C_R   0.214384 0.027989 0.025416 0.241760
C51   C     C_R   0.315643 0.414841 0.954723 0.220663
C52   C     C_R   0.714384 0.527990 0.025416 0.241760
C53   C     C_R   0.822317 0.907218 0.027703 0.300557
C54   C     C_R   0.217211 0.013808 0.952711 0.322293
C55   C     C_R   0.322317 0.407217 0.027703 0.300556
C56   C     C_R   0.717212 0.513808 0.952711 0.322292
C57   C     C_R   0.761842 0.901416 0.071440 0.025259
C58   C     C_R   0.250713 0.912507 0.923775 0.015232
C59   C     C_R   0.261842 0.401416 0.071440 0.025257
C60   C     C_R   0.750713 0.412507 0.923775 0.015233
C61   C     C_R   0.694074 0.901988 0.042511 0.228964
C62   C     C_R   0.289888 0.830361 0.966964 0.204912
C63   C     C_R   0.194074 0.401987 0.042511 0.228965
C64   C     C_R   0.789888 0.330361 0.966964 0.204913
C65   C     C_R   0.686915 0.904220 0.968778 0.171280
C66   C     C_R   0.287551 0.843397 0.040747 0.156050
C67   C     C_R   0.186915 0.404219 0.968778 0.171281
C68   C     C_R   0.787551 0.343397 0.040748 0.156051
C69   C     C_R   0.747989 0.919606 0.925393 0.012729
C70   C     C_R   0.250860 0.943756 0.069803 -0.023935
C71   C     C_R   0.247990 0.419605 0.925393 0.012726
C72   C     C_R   0.750860 0.443756 0.069803 -0.023935
C73   C     C_R   0.740785 0.968734 0.647314 0.603708
C74   C     C_R   0.271475 0.016553 0.360083 0.585082
C75   C     C_R   0.240785 0.468734 0.647314 0.603708
C76   C     C_R   0.771475 0.516552 0.360083 0.585083
C77   C     C_R   0.730338 0.377499 0.852528 0.630442
C78   C     C_R   0.272276 0.375069 0.145920 0.610325
C79   C     C_R   0.230338 0.877499 0.852528 0.630441
C80   C     C_R   0.772276 0.875070 0.145920 0.610326
C81   C     C_R   0.532443 0.157929 0.853587 0.573439
C82   C     C_R   0.440685 0.153485 0.139024 0.543613
C83   C     C_R   0.032443 0.657929 0.853587 0.573438
C84   C     C_R   0.940685 0.653485 0.139024 0.543613
C85   C     C_R   0.740710 0.969989 0.854327 0.619730
C86   C     C_R   0.259268 0.975467 0.144069 0.563127
C87   C     C_R   0.240710 0.469989 0.854327 0.619729
C88   C     C_R   0.759268 0.475467 0.144069 0.563128
C89   C     C_R   0.473144 0.155389 0.433586 0.026707
C90   C     C_R   0.492939 0.166779 0.580680 0.014546
C91   C     C_R   0.973144 0.655389 0.433586 0.026707
C92   C     C_R   0.992939 0.666779 0.580680 0.014547
C93   C     C_R   0.492190 0.264418 0.465830 -0.007294
C94   C     C_R   0.502357 0.270287 0.538018 -0.071422
C95   C     C_R   0.992190 0.764418 0.465830 -0.007293
C96   C     C_R   0.002357 0.770287 0.538018 -0.071421
C97   C     C_R   0.460808 0.062499 0.551366 0.215118
C98   C     C_R   0.452353 0.054881 0.476950 0.198748
C99   C     C_R   0.960808 0.562499 0.551366 0.215119
C100  C     C_R   0.952353 0.554881 0.476950 0.198747
Cr1   Cr    Cr6+3 0.771950 0.169480 0.750100 1.107684
Cr2   Cr    Cr6+3 0.228050 0.169480 0.249900 1.125202
Cr3   Cr    Cr6+3 0.271950 0.669480 0.750100 1.107684
Cr4   Cr    Cr6+3 0.728050 0.669480 0.249900 1.125202
Cr5   Cr    Cr6+3 0.614930 0.323340 0.749170 1.125374
Cr6   Cr    Cr6+3 0.385070 0.323340 0.250830 1.145795
Cr7   Cr    Cr6+3 0.114930 0.823340 0.749170 1.125374
Cr8   Cr    Cr6+3 0.885070 0.823340 0.250830 1.145795
Cr9   Cr    Cr6+3 0.616590 0.010620 0.750610 1.136197
Cr10  Cr    Cr6+3 0.383410 0.010620 0.249390 1.122148
Cr11  Cr    Cr6+3 0.116590 0.510620 0.750610 1.136196
Cr12  Cr    Cr6+3 0.883410 0.510620 0.249390 1.122147
H1    H     H_    0.035487 0.936073 0.425023 0.226036
H2    H     H_    0.115047 0.813030 0.547863 0.163527
H3    H     H_    0.535487 0.436074 0.425023 0.226037
H4    H     H_    0.615047 0.313030 0.547863 0.163529
H5    H     H_    0.859811 0.952152 0.574636 0.164776
H6    H     H_    0.244980 0.162346 0.468032 0.131684
H7    H     H_    0.359811 0.452153 0.574636 0.164776
H8    H     H_    0.744981 0.662346 0.468032 0.131683
H9    H     H_    0.430486 0.018704 0.911065 0.164129
H10   H     H_    0.395197 0.014741 0.035139 0.141076
H11   H     H_    0.930487 0.518704 0.911065 0.164129
H12   H     H_    0.895198 0.514740 0.035139 0.141077
O1    O     O_R   0.787510 0.042610 0.670410 -0.533760
O2    O     O_R   0.212490 0.042610 0.329590 -0.469313
O3    O     O_R   0.287510 0.542610 0.670410 -0.533759
O4    O     O_R   0.712490 0.542610 0.329590 -0.469313
O5    O     O_R   0.556450 0.252890 0.823790 -0.505296
O6    O     O_R   0.443550 0.252890 0.176210 -0.447716
O7    O     O_R   0.056450 0.752890 0.823790 -0.505296
O8    O     O_R   0.943550 0.752890 0.176210 -0.447716
O9    O     O_R   0.545750 0.051070 0.830560 -0.480674
O10   O     O_R   0.454250 0.051070 0.169440 -0.500371
O11   O     O_R   0.045750 0.551070 0.830560 -0.480674
O12   O     O_R   0.954250 0.551070 0.169440 -0.500371
O13   O     O_R   0.681210 0.959150 0.825320 -0.498135
O14   O     O_R   0.318790 0.959150 0.174680 -0.514209
O15   O     O_R   0.181210 0.459150 0.825320 -0.498135
O16   O     O_R   0.818790 0.459150 0.174680 -0.514209
O17   O     O_3   0.667820 0.167810 0.749960 -0.311131
O18   O     O_3   0.332180 0.167810 0.250040 -0.362301
O19   O     O_3   0.167820 0.667810 0.749960 -0.311132
O20   O     O_3   0.832180 0.667810 0.250040 -0.362301
O21   O     O_R   0.765670 0.292090 0.675090 -0.507504
O22   O     O_R   0.234330 0.292090 0.324910 -0.525774
O23   O     O_R   0.265670 0.792090 0.675090 -0.507504
O24   O     O_R   0.734330 0.792090 0.324910 -0.525774
O25   O     O_R   0.670220 0.409020 0.668560 -0.437743
O26   O     O_R   0.329780 0.409020 0.331440 -0.427290
O27   O     O_R   0.170220 0.909020 0.668560 -0.437742
O28   O     O_R   0.829780 0.909020 0.331440 -0.427290
O29   O     O_R   0.556580 0.251590 0.674980 -0.505987
O30   O     O_R   0.443420 0.251590 0.325020 -0.478154
O31   O     O_R   0.056580 0.751590 0.674980 -0.505987
O32   O     O_R   0.943420 0.751590 0.325020 -0.478154
O33   O     O_R   0.545890 0.049670 0.670030 -0.437442
O34   O     O_R   0.454110 0.049670 0.329970 -0.444637
O35   O     O_R   0.045890 0.549670 0.670030 -0.437441
O36   O     O_R   0.954110 0.549670 0.329970 -0.444637
O37   O     O_R   0.681340 0.957860 0.676500 -0.429537
O38   O     O_R   0.318660 0.957860 0.323500 -0.415480
O39   O     O_R   0.181340 0.457860 0.676500 -0.429537
O40   O     O_R   0.818660 0.457860 0.323500 -0.415480
O41   O     O_R   0.787380 0.044010 0.830940 -0.424724
O42   O     O_R   0.212620 0.044010 0.169060 -0.417017
O43   O     O_R   0.287380 0.544010 0.830940 -0.424724
O44   O     O_R   0.712620 0.544010 0.169060 -0.417017
O45   O     O_R   0.765540 0.293390 0.823910 -0.462647
O46   O     O_R   0.234460 0.293390 0.176090 -0.445789
O47   O     O_R   0.265540 0.793390 0.823910 -0.462647
O48   O     O_R   0.734460 0.793390 0.176090 -0.445789
O49   O     O_R   0.670090 0.410410 0.829090 -0.439425
O50   O     O_R   0.329910 0.410410 0.170910 -0.444868
O51   O     O_R   0.170090 0.910410 0.829090 -0.439425
O52   O     O_R   0.829910 0.910410 0.170910 -0.444868
O53   O     O_3   0.442542 0.967014 0.595647 -0.679429
H13   H     H_    0.463788 0.891244 0.576286 0.335808
O54   O     O_3   0.425878 0.950712 0.445244 -0.654435
H14   H     H_    0.406932 0.893747 0.481000 0.334398
O55   O     O_3   0.942542 0.467013 0.595647 -0.679429
H15   H     H_    0.963788 0.391244 0.576286 0.335809
O56   O     O_3   0.925878 0.450712 0.445244 -0.654436
H16   H     H_    0.906931 0.393748 0.481000 0.334397
O57   O     O_3   0.874071 0.919745 0.910662 -0.663527
H17   H     H_    0.917942 0.922381 0.939061 0.371732
O58   O     O_3   0.176790 0.124629 0.054074 -0.617801
H18   H     H_    0.144507 0.160048 0.018183 0.392510
O59   O     O_3   0.374071 0.419744 0.910661 -0.663523
H19   H     H_    0.417943 0.422378 0.939061 0.371729
O60   O     O_3   0.676791 0.624630 0.054073 -0.617803
H20   H     H_    0.644508 0.660049 0.018182 0.392510
F1    F     F_    0.888360 0.904651 0.055803 -0.612416
F2    F     F_    0.185137 0.097369 0.909795 -0.641931
F3    F     F_    0.388360 0.404651 0.055803 -0.612416
F4    F     F_    0.685137 0.597370 0.909795 -0.641930
O61   O     O_3   0.636419 0.897258 0.087580 -0.644717
H21   H     H_    0.591985 0.904923 0.060289 0.382166
O62   O     O_3   0.326710 0.734801 0.936010 -0.638767
H22   H     H_    0.354765 0.689761 0.971818 0.393999
O63   O     O_3   0.136419 0.397257 0.087580 -0.644717
H23   H     H_    0.091985 0.404921 0.060289 0.382166
O64   O     O_3   0.826709 0.234800 0.936010 -0.638768
H24   H     H_    0.854765 0.189761 0.971818 0.393999
O65   O     O_3   0.620018 0.893886 0.940745 -0.675908
H25   H     H_    0.622317 0.828830 0.904370 0.381054
O66   O     O_3   0.320025 0.755815 0.082636 -0.667385
H26   H     H_    0.295599 0.751917 0.128919 0.349204
O67   O     O_3   0.120018 0.393884 0.940745 -0.675907
H27   H     H_    0.122318 0.328829 0.904370 0.381054
O68   O     O_3   0.820024 0.255815 0.082636 -0.667385
H28   H     H_    0.795599 0.251917 0.128919 0.349204
O69   O     O_3   0.608108 0.291603 0.412649 -0.675550
H29   H     H_    0.620377 0.213451 0.436779 0.328367
O70   O     O_3   0.552661 0.471500 0.558220 -0.636158
H30   H     H_    0.504865 0.499865 0.543697 0.349656
O71   O     O_3   0.108108 0.791602 0.412649 -0.675551
H31   H     H_    0.120377 0.713451 0.436779 0.328366
O72   O     O_3   0.052662 0.971500 0.558220 -0.636157
H32   H     H_    0.004865 0.999865 0.543696 0.349656
O73   O     O_3   0.622048 0.876157 0.568310 -0.619047
H33   H     H_    0.585839 0.849983 0.533813 0.374256
O74   O     O_3   0.280391 0.767535 0.399999 -0.613758
H34   H     H_    0.282230 0.684644 0.421116 0.373065
O75   O     O_3   0.122048 0.376157 0.568310 -0.619047
H35   H     H_    0.085839 0.349983 0.533813 0.374256
O76   O     O_3   0.780391 0.267535 0.399999 -0.613760
H36   H     H_    0.782231 0.184645 0.421116 0.373066
O77   O     O_3   0.630807 0.877704 0.420784 -0.677529
H37   H     H_    0.637984 0.916187 0.373838 0.349081
O78   O     O_3   0.276513 0.703485 0.543530 -0.731474
H38   H     H_    0.320809 0.701719 0.571521 0.356657
O79   O     O_3   0.130807 0.377704 0.420784 -0.677530
H39   H     H_    0.137985 0.416187 0.373838 0.349081
O80   O     O_3   0.776511 0.203484 0.543530 -0.731475
H40   H     H_    0.820808 0.201716 0.571520 0.356656
F5    F     F_    0.883991 0.947762 0.444555 -0.631932
F6    F     F_    0.226296 0.123910 0.602233 -0.592110
F7    F     F_    0.383991 0.447763 0.444555 -0.631931
F8    F     F_    0.726297 0.623910 0.602234 -0.592111
O81   O     O_3   0.554071 0.318600 0.090094 -0.589150
H41   H     H_    0.561994 0.271977 0.134404 0.334207
O82   O     O_3   0.579058 0.343937 0.951932 -0.637930
H42   H     H_    0.554372 0.396872 0.917133 0.357392
O83   O     O_3   0.054070 0.818601 0.090093 -0.589151
H43   H     H_    0.061994 0.771978 0.134404 0.334207
O84   O     O_3   0.079057 0.843937 0.951932 -0.637931
H44   H     H_    0.054371 0.896871 0.917132 0.357393

loop_
_geom_bond_atom_site_label_1
_geom_bond_atom_site_label_2
_ccdc_geom_bond_type
Cr2   O46   S    
Cr5   O29   S    
O64   H24   S    
C49   C53   A    
C58   C62   A    
C93   C94   A    
C54   F2    S    
C55   C59   A    
C34   C37   A    
C53   F1    S    
C41   C42   A    
C14   C18   A    
C55   F3    S    
C95   C96   A    
C8    C96   S    
C78   O46   A    
C43   C44   A    
Cr9   O33   S    
C97   C98   A    
Cr10  O38   S    
Cr3   O23   S    
C7    C8    S    
C46   C89   S    
C47   O35   A    
O55   H15   S    
C5    H3    S    
Cr3   O43   S    
C48   O36   A    
Cr1   O21   S    
C50   C54   A    
C47   O31   A    
C2    O26   A    
C37   C41   A    
Cr6   O26   S    
C64   C68   A    
C26   H6    S    
Cr9   O13   S    
C36   H12   S    
O75   H35   S    
C62   O62   S    
C38   C42   A    
Cr5   O17   S    
C5    C6    S    
C30   C74   S    
Cr6   O30   S    
C29   C73   S    
C56   C60   A    
O82   H42   S    
C46   O34   A    
C42   O82   S    
C92   C96   A    
C51   C55   A    
C3    C18   S    
C75   O39   A    
O81   H41   S    
O63   H23   S    
C79   O47   A    
C57   C61   A    
Cr10  O18   S    
C100  O56   S    
C9    C13   A    
C88   O16   A    
C73   O37   A    
Cr5   O49   S    
C44   O84   S    
C56   F4    S    
C11   C15   A    
Cr11  O11   S    
C87   O43   A    
C6    O70   S    
C12   C16   A    
C87   O15   A    
C88   O44   A    
C48   C91   S    
C86   O42   A    
Cr1   O1    S    
O80   H40   S    
Cr4   O20   S    
C45   O33   A    
Cr1   O45   S    
C23   C27   A    
C91   C100  A    
C82   O6    A    
C3    O27   A    
Cr3   O3    S    
O79   H39   S    
C90   C97   A    
C83   O11   A    
C24   F8    S    
Cr11  O19   S    
Cr4   O48   S    
Cr7   O27   S    
C48   O32   A    
C11   C31   A    
O62   H22   S    
C34   H10   S    
Cr8   O28   S    
O83   H43   S    
C12   C32   A    
C33   H9    S    
C40   C83   S    
O59   H19   S    
C51   C71   A    
Cr12  O12   S    
C47   C92   S    
C4    O28   A    
C50   O58   S    
C59   C78   S    
C72   C88   S    
C90   C94   A    
Cr5   O25   S    
C25   C29   A    
Cr12  O40   S    
C63   C67   A    
C60   C77   S    
Cr8   O8    S    
C62   C66   A    
C27   C31   A    
O66   H26   S    
O69   H29   S    
C79   O51   A    
C28   C32   A    
Cr11  O39   S    
C80   O52   A    
O74   H34   S    
Cr7   O7    S    
C10   C14   A    
C61   O61   S    
O72   H32   S    
C74   O38   A    
C53   C57   A    
C19   C23   A    
C21   F5    S    
C12   O76   S    
C39   C43   A    
C16   O80   S    
C6    C94   S    
O71   H31   S    
O65   H25   S    
Cr9   O9    S    
C84   O8    A    
C17   C21   A    
Cr10  O34   S    
O60   H20   S    
C41   O81   S    
C68   C72   A    
C35   C36   A    
C82   O10   A    
C15   C19   A    
O56   H16   S    
C83   O7    A    
O77   H37   S    
C52   C72   A    
C9    O73   S    
Cr4   O44   S    
O73   H33   S    
C23   F7    S    
C10   C30   A    
C97   O53   S    
O68   H28   S    
Cr8   O32   S    
Cr10  O14   S    
C16   C20   A    
C5    O69   S    
C15   O79   S    
O67   H27   S    
Cr6   O50   S    
C49   O57   S    
Cr11  O15   S    
Cr1   O41   S    
C45   C90   S    
C6    H4    S    
C14   O78   S    
C58   C79   S    
C71   C87   S    
C4    C17   S    
C10   O74   S    
C46   O30   A    
C66   O66   S    
C64   O64   S    
C57   C80   S    
C26   C30   A    
C27   H7    S    
C38   C81   S    
C28   H8    S    
C81   O5    A    
C76   O4    A    
C37   C82   S    
Cr10  O10   S    
C45   O29   A    
C1    O21   A    
C80   O48   A    
Cr7   O19   S    
Cr12  O16   S    
C70   C86   S    
C73   O1    A    
C85   O13   A    
C31   C75   S    
Cr8   O20   S    
C69   C85   S    
C11   O75   S    
O76   H36   S    
C54   C58   A    
C25   H5    S    
Cr6   O6    S    
C77   O45   A    
C21   C25   A    
C84   O12   A    
Cr6   O18   S    
C77   O49   A    
Cr12  O36   S    
Cr9   O17   S    
C2    C19   S    
C18   C22   A    
Cr1   O17   S    
C36   C39   A    
C24   C28   A    
Cr11  O35   S    
C1    O25   A    
C1    C20   S    
C51   O59   S    
C32   C76   S    
C5    C93   S    
O84   H44   S    
C39   C84   S    
C81   O9    A    
C8    H2    S    
C2    O22   A    
C7    C95   S    
C52   O60   S    
C66   C70   A    
C59   C63   A    
C33   C38   A    
C99   C100  A    
C13   C17   A    
C89   C98   A    
C60   C64   A    
Cr2   O2    S    
C85   O41   A    
Cr12  O20   S    
C35   H11   S    
C35   C40   A    
C50   C70   A    
O58   H18   S    
C8    O72   S    
Cr9   O37   S    
C3    O23   A    
Cr2   O22   S    
Cr3   O19   S    
C9    C29   A    
Cr3   O47   S    
C7    H1    S    
O57   H17   S    
C74   O2    A    
Cr7   O51   S    
C43   O83   S    
C65   C69   A    
Cr8   O52   S    
C33   C34   A    
C67   O67   S    
C67   C71   A    
Cr4   O4    S    
O70   H30   S    
C89   C93   A    
O61   H21   S    
C99   O55   S    
Cr5   O5    S    
C76   O40   A    
C86   O14   A    
C13   O77   S    
O54   H14   S    
C7    O71   S    
C61   C65   A    
C40   C44   A    
C65   O65   S    
C91   C95   A    
Cr2   O42   S    
O53   H13   S    
C22   C26   A    
O78   H38   S    
C78   O50   A    
C63   O63   S    
C49   C69   A    
Cr2   O18   S    
C98   O54   S    
C68   O68   S    
C20   C24   A    
Cr7   O31   S    
C52   C56   A    
C92   C99   A    
Cr4   O24   S    
C22   F6    S    
C75   O3    A    
C4    O24   A    
