data_mof_unit_34515.cif
_audit_creation_date              2012-12-10T18:59:17-0500
_audit_creation_method            fapswitch 2.2
_symmetry_space_group_name_H-M    P1
_symmetry_Int_Tables_number       1
_space_group_crystal_system       triclinic
_cell_length_a                    10.908109
_cell_length_b                    10.857461
_cell_length_c                    9.528531
_cell_angle_alpha                 89.523548
_cell_angle_beta                  92.04406
_cell_angle_gamma                 91.290493
_cell_volume                      1127.4695488

loop_
_atom_site_label
_atom_site_type_symbol
_atom_type_description
_atom_site_fract_x
_atom_site_fract_y
_atom_site_fract_z
_atom_type_partial_charge
C1    C     C_R   0.501978 0.262275 0.500510 0.814691
C2    C     C_R   0.068165 0.546951 0.616376 0.071007
C3    C     C_R   0.127930 0.510089 0.494126 -0.161598
C4    C     C_R   0.057063 0.461558 0.379144 0.187260
C5    C     C_R   0.930248 0.457532 0.384794 -0.169854
C6    C     C_R   0.872241 0.483009 0.509419 -0.145399
C7    C     C_R   0.527390 0.061902 0.625207 0.134740
C8    C     C_R   0.511503 0.129225 0.500202 -0.144547
C9    C     C_R   0.506658 0.065595 0.371919 -0.171998
C10   C     C_R   0.502554 0.937282 0.370924 -0.123098
C11   C     C_R   0.503285 0.870955 0.498049 -0.120041
C12   C     C_R   0.262166 0.504461 0.497565 0.807125
C13   C     C_R   0.518907 0.935023 0.623613 0.096624
C14   C     C_3   0.443649 0.929651 0.751492 -0.480824
C15   C     C_3   0.461836 0.068378 0.759981 -0.028895
C16   C     C_R   0.535980 0.603226 0.074430 0.178604
C17   C     C_R   0.448680 0.404959 0.073099 -0.012930
C18   C     C_R   0.447172 0.405824 0.924075 -0.001200
C19   C     C_R   0.535150 0.603590 0.926812 0.130721
C20   C     C_3   0.656247 0.669389 0.924819 -0.486026
C21   C     C_3   0.658347 0.666891 0.084007 0.446174
C22   C     C_R   0.498258 0.737633 0.499328 0.819356
C23   C     C_R   0.737814 0.492432 0.503053 0.831453
C24   C     C_R   0.128487 0.613423 0.727192 -0.239866
C25   C     C_R   0.078584 0.616120 0.859558 -0.176048
C26   C     C_R   0.968771 0.553140 0.882547 0.656463
C27   C     C_R   0.901899 0.500581 0.769607 -0.259312
C28   C     C_R   0.944914 0.510456 0.631970 0.022503
Cu1   Cu    Cu3+1 0.499990 0.499980 0.640670 0.960406
Cu2   Cu    Cu3+1 0.500010 0.500020 0.359330 0.996600
H1    H     H_    0.487195 0.878713 0.840320 0.231042
H2    H     H_    0.374918 0.119866 0.751089 0.139385
H3    H     H_    0.409754 0.326515 0.127619 0.164654
H4    H     H_    0.405348 0.329230 0.867230 0.151039
H5    H     H_    0.726509 0.612822 0.879939 0.196781
H6    H     H_    0.651453 0.763309 0.878927 0.224328
H7    H     H_    0.731381 0.610003 0.133883 0.166367
H8    H     H_    0.214691 0.662433 0.713214 0.173741
H9    H     H_    0.127697 0.662513 0.945359 0.173100
H10   H     H_    0.819919 0.447906 0.792648 0.192729
H11   H     H_    0.876774 0.428847 0.292259 0.211110
H12   H     H_    0.499817 0.114336 0.272428 0.192185
H13   H     H_    0.492750 0.890829 0.271091 0.227520
H14   H     H_    0.346794 0.900839 0.726860 0.174971
N1    N     N_R   0.500790 0.500930 0.147930 -0.223299
N2    N     N_R   0.500790 0.500890 0.852020 -0.186172
O1    O     O_R   0.500000 0.319640 0.618810 -0.581440
O2    O     O_R   0.500010 0.319680 0.381230 -0.587312
O3    O     O_R   0.319640 0.499980 0.618820 -0.588243
O4    O     O_R   0.319650 0.500020 0.381230 -0.553037
O5    O     O_R   0.499990 0.680320 0.618770 -0.586977
O6    O     O_R   0.500000 0.680360 0.381190 -0.557413
O7    O     O_R   0.680350 0.499980 0.618770 -0.589392
O8    O     O_R   0.680360 0.500020 0.381180 -0.584025
I1    I     I_    0.127030 0.382129 0.195243 -0.318678
I2    I     I_    0.588263 0.118352 0.929015 -0.356647
F1    F     F_    0.651942 0.783624 0.139567 -0.646254
F2    F     F_    0.925392 0.545524 0.013825 -0.692154

loop_
_geom_bond_atom_site_label_1
_geom_bond_atom_site_label_2
_ccdc_geom_bond_type
C16   N1    A    
C26   C27   A    
C12   O4    A    
C10   H13   S    
C1    O2    A    
C21   F1    S    
Cu1   Cu2   S    
C8    C9    A    
C1    C8    S    
Cu2   O8    S    
C9    C10   A    
C27   H10   S    
C11   C22   S    
C24   H8    S    
C19   C20   S    
Cu1   N2    S    
C15   I2    S    
C20   C21   S    
C7    C15   S    
C12   O3    A    
Cu2   O4    S    
C19   N2    A    
C7    C8    A    
Cu1   O3    S    
C13   C14   S    
C25   H9    S    
C26   F2    S    
C9    H12   S    
C16   C21   S    
C17   H3    S    
Cu1   O1    S    
C16   C19   A    
C6    C23   S    
C18   N2    A    
C23   O7    A    
C22   O6    A    
C17   N1    A    
C17   C18   A    
C2    C3    A    
C18   H4    S    
C4    I1    S    
C2    C24   A    
C5    C6    A    
C11   C13   A    
C2    C28   A    
C10   C11   A    
C3    C4    A    
C20   H6    S    
C7    C13   A    
C21   H7    S    
C24   C25   A    
C23   O8    A    
C14   H14   S    
Cu1   O5    S    
Cu2   O2    S    
C27   C28   A    
C14   H1    S    
Cu2   O6    S    
C14   C15   S    
C4    C5    A    
C5    H11   S    
C3    C12   S    
Cu2   N1    S    
C25   C26   A    
C20   H5    S    
C6    C28   A    
C1    O1    A    
C22   O5    A    
Cu1   O7    S    
C15   H2    S    
