data_mof_unit_29752.cif
_audit_creation_date              2012-12-10T17:56:46-0500
_audit_creation_method            fapswitch 2.2
_symmetry_space_group_name_H-M    P1
_symmetry_Int_Tables_number       1
_space_group_crystal_system       triclinic
_cell_length_a                    10.83164
_cell_length_b                    9.55241
_cell_length_c                    10.854842
_cell_angle_alpha                 89.867681
_cell_angle_beta                  90.893677
_cell_angle_gamma                 90.00186
_cell_volume                      1122.99206957

loop_
_atom_site_label
_atom_site_type_symbol
_atom_type_description
_atom_site_fract_x
_atom_site_fract_y
_atom_site_fract_z
_atom_type_partial_charge
C1    C     C_R   0.262168 0.500092 0.500302 0.792257
C2    C     C_R   0.737822 0.500100 0.499507 0.790452
C3    C     C_R   0.936093 0.628008 0.501081 -0.189111
C4    C     C_R   0.063926 0.628004 0.501293 -0.188701
C5    C     C_R   0.420533 0.073978 0.424011 0.330390
C6    C     C_R   0.579083 0.073639 0.576312 0.306364
C7    C     C_R   0.422762 0.924843 0.423465 -0.089265
C8    C     C_R   0.576799 0.924531 0.576960 -0.111175
C9    C     C_R   0.508933 0.501034 0.262512 0.793083
C10   C     C_R   0.491656 0.500776 0.737594 0.794844
C11   C     C_R   0.562748 0.760877 0.113277 -0.246764
C12   C     C_R   0.443247 0.760840 0.885268 -0.274051
C13   C     C_R   0.541103 0.889254 0.052480 0.289913
C14   C     C_R   0.469532 0.888120 0.943113 0.224094
C15   C     C_R   0.482537 0.632923 0.937761 0.065960
C16   C     C_R   0.521106 0.633140 0.061720 0.045244
C17   C     C_R   0.517408 0.504957 0.128065 -0.092944
C18   C     C_R   0.484328 0.504541 0.872163 -0.093156
C19   C     C_R   0.505277 0.379005 0.063959 -0.213028
C20   C     C_R   0.495949 0.378705 0.936992 -0.219428
C21   C     C_R   0.063733 0.373794 0.499457 -0.193258
C22   C     C_R   0.936170 0.373846 0.496544 -0.195024
C23   C     C_R   0.871706 0.500708 0.498824 -0.014400
C24   C     C_R   0.128265 0.500679 0.500581 -0.014831
Cu1   Cu    Cu3+1 0.500000 0.640660 0.500000 0.927117
Cu2   Cu    Cu3+1 0.500000 0.359340 0.500000 0.972009
H1    H     H_    0.617246 0.759579 0.197122 0.182202
H2    H     H_    0.387176 0.763549 0.802049 0.176843
H3    H     H_    0.888038 0.727446 0.502534 0.147985
H4    H     H_    0.112023 0.727447 0.502370 0.147986
H5    H     H_    0.363397 0.866673 0.361167 0.159817
H6    H     H_    0.636199 0.866205 0.639370 0.160825
N1    N     N_R   0.500000 0.852070 0.500000 -0.202126
N2    N     N_R   0.500000 0.147940 0.500000 -0.204362
O1    O     O_R   0.319640 0.618740 0.499990 -0.594441
O2    O     O_R   0.680360 0.618740 0.500010 -0.594572
O3    O     O_R   0.319620 0.381170 0.499990 -0.553497
O4    O     O_R   0.680380 0.381170 0.500010 -0.552772
O5    O     O_R   0.500000 0.618810 0.319650 -0.588978
O6    O     O_R   0.500000 0.618810 0.680350 -0.589253
O7    O     O_R   0.499970 0.381240 0.319640 -0.581744
O8    O     O_R   0.500030 0.381240 0.680360 -0.581772
H7    H     H_    0.504030 0.280292 0.112139 0.176955
H8    H     H_    0.496256 0.279590 0.889662 0.184185
N3    N     N_2   0.587870 0.019531 0.098669 -0.440465
H9    H     H_    0.606838 0.091484 0.030606 0.265141
C25   C     C_3   0.678338 0.020623 0.198342 -0.734030
H10   H     H_    0.704190 0.130437 0.220188 0.234569
H11   H     H_    0.762675 0.962968 0.171130 0.226919
H12   H     H_    0.639235 0.974148 0.282867 0.240746
N4    N     N_2   0.424601 0.014833 0.890020 -0.466063
H13   H     H_    0.413812 0.011298 0.795471 0.249245
C26   C     C_3   0.315750 0.068850 0.949106 -0.711013
H14   H     H_    0.287090 0.168555 0.904352 0.230887
H15   H     H_    0.335297 0.089762 0.048025 0.246282
H16   H     H_    0.238456 0.992765 0.940435 0.228213
H17   H     H_    0.111519 0.274536 0.500855 0.166358
H18   H     H_    0.888329 0.274690 0.492438 0.164079
N5    N     N_2   0.339961 0.147444 0.341778 -0.368974
H19   H     H_    0.381128 0.171377 0.259655 0.261659
C27   C     C_3   0.216496 0.092061 0.323933 -0.777665
H20   H     H_    0.217398 0.002712 0.258625 0.215659
H21   H     H_    0.156173 0.174958 0.283932 0.243891
H22   H     H_    0.177364 0.057647 0.413064 0.226499
N6    N     N_2   0.659683 0.146670 0.658507 -0.368904
H23   H     H_    0.619702 0.167448 0.741877 0.254212
C28   C     C_3   0.784171 0.093116 0.673033 -0.756052
H24   H     H_    0.785880 0.002741 0.737635 0.212725
H25   H     H_    0.844371 0.176437 0.712173 0.242118
H26   H     H_    0.821596 0.060556 0.582752 0.224094

loop_
_geom_bond_atom_site_label_1
_geom_bond_atom_site_label_2
_ccdc_geom_bond_type
C22   H18   S    
C27   H22   S    
N4    C26   S    
Cu2   O3    S    
C21   H17   S    
N4    H13   S    
C11   H1    S    
C15   C18   A    
C11   C13   A    
C11   C16   A    
C2    O4    A    
C3    C23   A    
C19   C20   A    
N6    C28   S    
C12   C15   A    
C1    O3    A    
C28   H26   S    
Cu2   O4    S    
C5    N2    A    
Cu1   N1    S    
C26   H15   S    
N5    H19   S    
C25   H11   S    
C26   H14   S    
Cu1   O5    S    
C13   N3    S    
C7    N1    A    
Cu2   O8    S    
C6    N2    A    
Cu1   O1    S    
C9    C17   S    
C20   H8    S    
C10   C18   S    
C25   H12   S    
C18   C20   A    
C8    N1    A    
N3    C25   S    
Cu1   O6    S    
C27   H20   S    
C4    C24   A    
C21   C24   A    
N5    C27   S    
C10   O8    A    
C15   C16   A    
C5    N5    S    
Cu1   O2    S    
C28   H24   S    
C8    H6    S    
C25   H10   S    
N3    H9    S    
C9    O5    A    
C3    H3    S    
C7    H5    S    
C1    O1    A    
C1    C24   S    
C27   H21   S    
N6    H23   S    
C26   H16   S    
C2    O2    A    
C2    C23   S    
C5    C7    A    
C22   C23   A    
C17   C19   A    
C10   O6    A    
C6    C8    A    
C13   C14   A    
C12   H2    S    
Cu1   Cu2   S    
C21   C22   A    
C9    O7    A    
Cu2   N2    S    
C6    N6    S    
C4    H4    S    
C3    C4    A    
C14   N4    S    
Cu2   O7    S    
C12   C14   A    
C16   C17   A    
C28   H25   S    
C19   H7    S    
