data_mof_unit_50367.cif
_audit_creation_date              2012-12-11T14:42:13-0500
_audit_creation_method            fapswitch 2.2
_symmetry_space_group_name_H-M    P1
_symmetry_Int_Tables_number       1
_space_group_crystal_system       triclinic
_cell_length_a                    19.259611
_cell_length_b                    10.909678
_cell_length_c                    18.87103
_cell_angle_alpha                 89.829712
_cell_angle_beta                  88.932176
_cell_angle_gamma                 90.264478
_cell_volume                      3964.35887384

loop_
_atom_site_label
_atom_site_type_symbol
_atom_type_description
_atom_site_fract_x
_atom_site_fract_y
_atom_site_fract_z
_atom_type_partial_charge
Br1   Br    Br    0.595253 0.475095 0.930918 -0.351260
Br2   Br    Br    0.405230 0.475349 0.068593 -0.349953
Br3   Br    Br    0.095254 0.975095 0.930918 -0.351257
Br4   Br    Br    0.905232 0.975345 0.068592 -0.349964
Br5   Br    Br    0.894200 0.282202 0.574178 -0.368470
Br6   Br    Br    0.126096 0.232149 0.443237 -0.391300
Br7   Br    Br    0.394198 0.782197 0.574177 -0.368468
Br8   Br    Br    0.626098 0.732142 0.443232 -0.391267
C1    C     C_R   0.726160 0.954627 0.853921 0.514668
C2    C     C_R   0.243022 0.412900 0.926464 -0.096765
C3    C     C_2   0.634237 0.786626 0.942254 0.283984
C4    C     C_2   0.875098 0.415990 0.912570 0.289678
C5    C     C_2   0.125153 0.416370 0.087716 0.290014
C6    C     C_2   0.375098 0.915971 0.912571 0.289675
C7    C     C_2   0.625154 0.916423 0.087719 0.290022
C8    C     C_2   0.546881 0.413490 0.546615 0.300232
C9    C     C_2   0.423512 0.386011 0.464465 0.283879
C10   C     C_2   0.046881 0.913491 0.546616 0.300233
C11   C     C_2   0.923512 0.886010 0.464465 0.283877
C12   C     C_2   0.503626 0.947468 0.420903 0.330378
C13   C     C_R   0.256897 0.913320 0.073576 -0.095858
C14   C     C_2   0.568710 0.960887 0.551925 0.320027
C15   C     C_2   0.003625 0.447465 0.420907 0.330341
C16   C     C_2   0.068718 0.460894 0.551922 0.320016
C17   C     C_R   0.743020 0.912905 0.926467 -0.096765
C18   C     C_R   0.812215 0.372154 0.029188 -0.066725
C19   C     C_R   0.187530 0.372108 0.971128 -0.067659
C20   C     C_R   0.312213 0.872149 0.029190 -0.066725
C21   C     C_R   0.687528 0.872123 0.971132 -0.067670
C22   C     C_R   0.810342 0.400085 0.956539 -0.001844
C23   C     C_R   0.189699 0.400549 0.043603 -0.002219
C24   C     C_R   0.310341 0.900077 0.956540 -0.001844
C25   C     C_R   0.273835 0.954956 0.146081 0.513741
C26   C     C_R   0.689699 0.900570 0.043607 -0.002212
C27   C     C_R   0.744971 0.415964 0.925395 0.000969
C28   C     C_R   0.255232 0.416572 0.074526 0.000388
C29   C     C_R   0.244972 0.915962 0.925396 0.000965
C30   C     C_R   0.755233 0.916578 0.074527 0.000392
C31   C     C_R   0.517984 0.289164 0.529481 0.030061
C32   C     C_R   0.470675 0.280626 0.475561 0.017350
C33   C     C_R   0.017984 0.789164 0.529481 0.030058
C34   C     C_R   0.970676 0.780626 0.475561 0.017350
C35   C     C_R   0.468073 0.171688 0.435486 -0.053538
C36   C     C_R   0.226161 0.454626 0.853920 0.514667
C37   C     C_R   0.538131 0.179239 0.562920 -0.079197
C38   C     C_R   0.968074 0.671688 0.435486 -0.053531
C39   C     C_R   0.038132 0.679241 0.562920 -0.079190
C40   C     C_R   0.498542 0.063072 0.461939 -0.016016
C41   C     C_R   0.529544 0.066720 0.527932 -0.027330
C42   C     C_R   0.998544 0.563072 0.461940 -0.016026
C43   C     C_R   0.029546 0.566722 0.527932 -0.027324
C44   C     C_R   0.812048 0.353460 0.534643 0.127243
C45   C     C_R   0.208089 0.316444 0.472788 0.140359
C46   C     C_R   0.312046 0.853457 0.534642 0.127245
C47   C     C_R   0.773835 0.454957 0.146081 0.513744
C48   C     C_R   0.708085 0.816450 0.472786 0.140377
C49   C     C_R   0.810946 0.354988 0.461711 -0.127166
C50   C     C_R   0.217558 0.319959 0.545257 -0.121634
C51   C     C_R   0.310944 0.854984 0.461711 -0.127167
C52   C     C_R   0.717553 0.819966 0.545256 -0.121638
C53   C     C_R   0.529688 0.177515 0.850815 0.591990
C54   C     C_R   0.470233 0.178019 0.149136 0.593756
C55   C     C_R   0.029689 0.677514 0.850816 0.591992
C56   C     C_R   0.970234 0.678019 0.149136 0.593754
C57   C     C_R   0.758200 0.415733 0.425606 -0.020834
C58   C     C_R   0.692978 0.446441 0.043472 -0.012691
C59   C     C_R   0.247870 0.423446 0.574947 -0.004244
C60   C     C_R   0.258200 0.915733 0.425605 -0.020835
C61   C     C_R   0.747867 0.923450 0.574945 -0.004250
C62   C     C_R   0.703797 0.466829 0.463964 -0.113142
C63   C     C_R   0.274534 0.516435 0.530156 -0.084264
C64   C     C_R   0.203797 0.966833 0.463964 -0.113142
C65   C     C_R   0.774533 0.016438 0.530155 -0.084264
C66   C     C_R   0.705256 0.469678 0.537697 -0.164459
C67   C     C_R   0.276592 0.501111 0.456819 -0.155752
C68   C     C_R   0.205256 0.969679 0.537697 -0.164461
C69   C     C_R   0.307198 0.446171 0.956263 -0.012615
C70   C     C_R   0.776591 0.001114 0.456817 -0.155748
C71   C     C_R   0.755825 0.404701 0.573864 0.013020
C72   C     C_R   0.245626 0.397798 0.427638 0.021769
C73   C     C_R   0.255824 0.904700 0.573864 0.013018
C74   C     C_R   0.745624 0.897801 0.427637 0.021772
C75   C     C_R   0.736942 0.364347 0.853366 0.591792
C76   C     C_R   0.263117 0.364778 0.146624 0.592525
C77   C     C_R   0.236942 0.864346 0.853366 0.591786
C78   C     C_R   0.763118 0.864778 0.146624 0.592549
C79   C     C_R   0.728536 0.955351 0.647586 0.515672
C80   C     C_R   0.192978 0.946444 0.043472 -0.012690
C81   C     C_R   0.272494 0.954220 0.352615 0.533582
C82   C     C_R   0.228537 0.455350 0.647586 0.515669
C83   C     C_R   0.772494 0.454220 0.352615 0.533583
C84   C     C_R   0.561234 0.181866 0.636187 0.511402
C85   C     C_R   0.441505 0.179357 0.364041 0.522559
C86   C     C_R   0.061234 0.681866 0.636187 0.511409
C87   C     C_R   0.941506 0.679357 0.364042 0.522562
C88   C     C_R   0.740694 0.362511 0.646365 0.541804
C89   C     C_R   0.259641 0.361245 0.354116 0.551514
C90   C     C_R   0.240694 0.862511 0.646365 0.541802
C91   C     C_R   0.807198 0.946170 0.956263 -0.012615
C92   C     C_R   0.759640 0.861246 0.354115 0.551516
C93   C     C_2   0.497208 0.168815 0.921033 -0.074371
C94   C     C_2   0.502738 0.170086 0.078920 -0.075876
C95   C     C_2   0.997213 0.668813 0.921035 -0.074400
C96   C     C_2   0.002741 0.670088 0.078921 -0.075839
C97   C     C_2   0.490831 0.072423 0.037946 -0.166093
C98   C     C_2   0.510064 0.072310 0.962719 -0.166961
C99   C     C_2   0.990846 0.572419 0.037950 -0.166027
C100  C     C_2   0.010076 0.572312 0.962721 -0.166967
C101  C     C_R   0.686087 0.443485 0.969265 0.117794
C102  C     C_R   0.756898 0.413321 0.073576 -0.095860
C103  C     C_R   0.314195 0.443725 0.030454 0.118241
C104  C     C_R   0.186087 0.943486 0.969265 0.117789
C105  C     C_R   0.814196 0.943724 0.030455 0.118239
C106  C     C_2   0.632139 0.472336 0.090775 0.317330
C107  C     C_2   0.368076 0.471977 0.908709 0.317859
C108  C     C_2   0.132139 0.972345 0.090775 0.317319
C109  C     C_2   0.868076 0.971969 0.908708 0.317861
C110  C     C_2   0.864832 0.286386 0.058498 0.283211
C111  C     C_2   0.134240 0.286618 0.942245 0.284019
C112  C     C_2   0.364829 0.786381 0.058502 0.283226
Cr1   Cr    Cr6+3 0.769270 0.163730 0.750710 1.114727
Cr2   Cr    Cr6+3 0.385840 0.322500 0.252290 1.079508
Cr3   Cr    Cr6+3 0.114160 0.822500 0.747710 1.074218
Cr4   Cr    Cr6+3 0.885840 0.822500 0.252290 1.079503
Cr5   Cr    Cr6+3 0.230730 0.163730 0.249290 1.117498
Cr6   Cr    Cr6+3 0.269270 0.663730 0.750710 1.114713
Cr7   Cr    Cr6+3 0.730730 0.663730 0.249290 1.117526
Cr8   Cr    Cr6+3 0.612620 0.009790 0.748780 1.097350
Cr9   Cr    Cr6+3 0.387380 0.009790 0.251220 1.087202
Cr10  Cr    Cr6+3 0.112620 0.509790 0.748780 1.097386
Cr11  Cr    Cr6+3 0.887380 0.509790 0.251220 1.087200
Cr12  Cr    Cr6+3 0.614160 0.322500 0.747710 1.074213
H1    H     H_    0.466487 0.990469 0.059703 0.190052
H2    H     H_    0.293385 0.601056 0.551932 0.194554
H3    H     H_    0.161393 0.005249 0.435740 0.228665
H4    H     H_    0.793386 0.101058 0.551931 0.194553
H5    H     H_    0.666542 0.520567 0.566846 0.159384
H6    H     H_    0.302479 0.568711 0.423349 0.142021
H7    H     H_    0.166543 0.020570 0.566847 0.159384
H8    H     H_    0.802480 0.068712 0.423348 0.142022
H9    H     H_    0.528335 0.251114 0.056971 0.149750
H10   H     H_    0.470949 0.248981 0.942434 0.148831
H11   H     H_    0.028330 0.751123 0.056971 0.149756
H12   H     H_    0.535138 0.991216 0.941546 0.188701
H13   H     H_    0.970949 0.748975 0.942437 0.148826
H14   H     H_    0.623893 0.417942 0.138487 0.102393
H15   H     H_    0.375832 0.417695 0.861115 0.103246
H16   H     H_    0.123895 0.917960 0.138490 0.102407
H17   H     H_    0.875830 0.917685 0.861115 0.103244
H18   H     H_    0.852166 0.235187 0.106441 0.164782
H19   H     H_    0.146312 0.235813 0.894267 0.166642
H20   H     H_    0.352159 0.735176 0.106441 0.164779
H21   H     H_    0.646299 0.735842 0.894266 0.166649
H22   H     H_    0.923507 0.373361 0.925736 0.199938
H23   H     H_    0.966514 0.490456 0.059708 0.190048
H24   H     H_    0.076590 0.373165 0.075060 0.199198
H25   H     H_    0.423502 0.873317 0.925730 0.199943
H26   H     H_    0.576573 0.873297 0.075038 0.199136
H27   H     H_    0.568862 0.436811 0.596665 0.153835
H28   H     H_    0.398632 0.402032 0.415433 0.148889
H29   H     H_    0.068863 0.936812 0.596665 0.153835
H30   H     H_    0.898632 0.902031 0.415434 0.148888
H31   H     H_    0.474679 0.867049 0.438074 0.167500
H32   H     H_    0.622683 0.975554 0.558034 0.098411
H33   H     H_    0.974684 0.367043 0.438087 0.167505
H34   H     H_    0.035155 0.491225 0.941547 0.188741
H35   H     H_    0.122696 0.475559 0.558007 0.098381
H36   H     H_    0.854198 0.313648 0.433388 0.160894
H37   H     H_    0.189172 0.255479 0.578788 0.172196
H38   H     H_    0.354196 0.813642 0.433387 0.160893
H39   H     H_    0.689166 0.755486 0.578785 0.172197
H40   H     H_    0.661392 0.505242 0.435739 0.228664
O1    O     O_R   0.784320 0.290430 0.830510 -0.464008
O2    O     O_R   0.456080 0.282180 0.333210 -0.516670
O3    O     O_R   0.043920 0.782180 0.666790 -0.524519
O4    O     O_R   0.956080 0.782180 0.333210 -0.516673
O5    O     O_R   0.679040 0.374160 0.674430 -0.548904
O6    O     O_R   0.320960 0.374160 0.325570 -0.555111
O7    O     O_R   0.179040 0.874160 0.674430 -0.548905
O8    O     O_R   0.820960 0.874160 0.325570 -0.555111
O9    O     O_3   0.665350 0.165340 0.749070 -0.307275
O10   O     O_3   0.334650 0.165340 0.250930 -0.304069
O11   O     O_3   0.165350 0.665340 0.749070 -0.307280
O12   O     O_R   0.215680 0.290430 0.169490 -0.464156
O13   O     O_3   0.834650 0.665340 0.250930 -0.304074
O14   O     O_R   0.762640 0.040960 0.825200 -0.493417
O15   O     O_R   0.237360 0.040960 0.174800 -0.495791
O16   O     O_R   0.262640 0.540960 0.825200 -0.493423
O17   O     O_R   0.737360 0.540960 0.174800 -0.495783
O18   O     O_R   0.667400 0.923970 0.829950 -0.526135
O19   O     O_R   0.332600 0.923970 0.170050 -0.526677
O20   O     O_R   0.167400 0.423970 0.829950 -0.526117
O21   O     O_R   0.832600 0.423970 0.170050 -0.526686
O22   O     O_R   0.553960 0.081340 0.821780 -0.479146
O23   O     O_R   0.284320 0.790430 0.830510 -0.464020
O24   O     O_R   0.446040 0.081340 0.178220 -0.475168
O25   O     O_R   0.053960 0.581340 0.821780 -0.479143
O26   O     O_R   0.946040 0.581340 0.178220 -0.475167
O27   O     O_R   0.543180 0.283240 0.826740 -0.463833
O28   O     O_R   0.456820 0.283240 0.173260 -0.465517
O29   O     O_R   0.043180 0.783240 0.826740 -0.463826
O30   O     O_R   0.956820 0.783240 0.173260 -0.465524
O31   O     O_R   0.678360 0.375140 0.822710 -0.470793
O32   O     O_R   0.321640 0.375140 0.177290 -0.471954
O33   O     O_R   0.178360 0.875140 0.822710 -0.470791
O34   O     O_R   0.715680 0.790430 0.169490 -0.464111
O35   O     O_R   0.821640 0.875140 0.177290 -0.471962
O36   O     O_R   0.785050 0.289380 0.670560 -0.450730
O37   O     O_R   0.214950 0.289380 0.329440 -0.431602
O38   O     O_R   0.285050 0.789380 0.670560 -0.450732
O39   O     O_R   0.714950 0.789380 0.329440 -0.431598
O40   O     O_R   0.763320 0.039990 0.676930 -0.486637
O41   O     O_R   0.236680 0.039990 0.323070 -0.486931
O42   O     O_R   0.263320 0.539990 0.676930 -0.486643
O43   O     O_R   0.736680 0.539990 0.323070 -0.486930
O44   O     O_R   0.668130 0.922920 0.670000 -0.519409
O45   O     O_R   0.554640 0.080370 0.673500 -0.453334
O46   O     O_R   0.331870 0.922920 0.330000 -0.535034
O47   O     O_R   0.168130 0.422920 0.670000 -0.519381
O48   O     O_R   0.831870 0.422920 0.330000 -0.535030
O49   O     O_2   0.593247 0.557854 0.079290 -0.376696
O50   O     O_2   0.407551 0.557334 0.919847 -0.376147
O51   O     O_2   0.093244 0.057858 0.079284 -0.376757
O52   O     O_2   0.907554 0.057323 0.919844 -0.376119
O53   O     O_2   0.921283 0.268691 0.030296 -0.439907
O54   O     O_2   0.077902 0.268572 0.970871 -0.438533
O55   O     O_2   0.421285 0.768699 0.030308 -0.439916
O56   O     O_R   0.445360 0.080370 0.326500 -0.448175
O57   O     O_2   0.577911 0.768539 0.970901 -0.438462
O58   O     O_2   0.875126 0.481965 0.860136 -0.503410
O59   O     O_2   0.125538 0.482751 0.139741 -0.496904
O60   O     O_2   0.375131 0.981961 0.860144 -0.503418
O61   O     O_2   0.625557 0.982758 0.139765 -0.496878
O62   O     O_2   0.547383 0.495035 0.502165 -0.444692
O63   O     O_2   0.411947 0.458220 0.512457 -0.453468
O64   O     O_2   0.047382 0.995036 0.502166 -0.444696
O65   O     O_2   0.911946 0.958217 0.512458 -0.453472
O66   O     O_2   0.543559 0.940295 0.370044 -0.423665
O67   O     O_R   0.054640 0.580370 0.673500 -0.453305
O68   O     O_2   0.541557 0.862439 0.565661 -0.402674
O69   O     O_2   0.043551 0.440288 0.370042 -0.423666
O70   O     O_2   0.041563 0.362456 0.565692 -0.402642
O71   O     O_R   0.945360 0.580370 0.326500 -0.448163
O72   O     O_R   0.543920 0.282180 0.666790 -0.524515

loop_
_geom_bond_atom_site_label_1
_geom_bond_atom_site_label_2
_ccdc_geom_bond_type
C2    C19   A    
Cr9   O10   S    
C45   C50   A    
C56   O26   A    
C72   C89   S    
C33   C34   A    
C107  O50   D    
C106  O49   D    
C54   O24   A    
C64   C68   A    
C78   O34   A    
C63   H2    S    
C77   O33   A    
C49   H36   S    
C90   O38   A    
Cr7   O17   S    
C89   O37   A    
C22   C27   A    
C30   C78   S    
C98   H12   S    
C47   O17   A    
C97   H1    S    
Cr7   O34   S    
Cr8   O22   S    
C68   C73   A    
Cr10  O11   S    
C11   O65   D    
Cr4   O13   S    
Cr12  O9    S    
C10   H29   S    
C10   O64   D    
C88   O36   A    
C13   C25   S    
C73   C90   S    
C57   C62   A    
C107  H15   S    
C85   O2    A    
Cr3   O33   S    
C94   C97   D    
C56   C96   S    
C34   C38   A    
Cr1   O40   S    
Cr2   O32   S    
C83   O48   A    
C110  H18   S    
C9    H28   S    
C62   H40   S    
Cr8   O18   S    
C29   C104  A    
C83   O43   A    
Cr6   O42   S    
Br1   C101  S    
C81   O46   A    
C15   H33   S    
Cr2   O10   S    
Cr5   O41   S    
Cr6   O23   S    
Cr12  O72   S    
C32   C35   A    
Cr1   O1    S    
C38   C87   S    
C54   C94   S    
Cr10  O20   S    
C69   C103  A    
C62   C66   A    
C81   O41   A    
Cr3   O11   S    
C79   O44   A    
Br5   C44   S    
C61   C65   A    
C95   C100  D    
C94   H9    S    
C8    O62   D    
C88   O5    A    
C15   O69   D    
C51   H38   S    
C58   C106  S    
C67   C72   A    
C18   C102  A    
C7    C26   S    
C6    O60   D    
C27   C101  A    
C11   C34   S    
C60   C64   A    
C86   O3    A    
C31   C37   A    
C76   O32   A    
C16   C43   S    
Cr1   O14   S    
C13   C80   A    
C91   C109  S    
C3    O57   D    
C57   C83   S    
Cr5   O12   S    
C111  H19   S    
C96   C99   D    
Br8   C48   S    
Cr6   O11   S    
Cr11  O21   S    
C35   C85   S    
C2    C69   A    
C17   C91   A    
C38   C42   A    
C42   C43   A    
C14   O68   D    
C46   C51   A    
C9    O63   D    
C110  O53   D    
C17   C21   A    
Br2   C103  S    
C66   H5    S    
Cr10  O67   S    
C112  H20   S    
Cr3   O29   S    
C6    H25   S    
C19   C23   A    
Br4   C105  S    
C20   C24   A    
C16   H35   S    
C50   C59   A    
C106  H14   S    
C7    H26   S    
C55   C95   S    
C1    O14   A    
Cr6   O38   S    
C10   C33   S    
C4    H22   S    
C31   C32   A    
C108  H16   S    
C30   C105  A    
C27   C75   S    
C77   O23   A    
C64   H3    S    
C39   C43   A    
Cr2   O2    S    
C12   H31   S    
C2    C36   S    
C21   C26   A    
Cr12  O27   S    
C55   O25   A    
Cr4   O30   S    
Cr11  O48   S    
C9    C32   S    
C80   C104  A    
C80   C108  S    
C53   C93   S    
C87   O4    A    
C5    H24   S    
Cr9   O46   S    
C51   C60   A    
C37   C84   S    
C14   H32   S    
C93   H10   S    
C70   C74   A    
C65   H4    S    
C37   C41   A    
Br3   C104  S    
C65   C70   A    
C45   C72   A    
C28   C103  A    
C60   C81   S    
C33   C39   A    
C96   H11   S    
C100  H34   S    
C1    C17   S    
C25   O15   A    
C79   O40   A    
C24   C29   A    
C58   C102  A    
C48   C74   A    
C112  O55   D    
C82   O47   A    
C12   C40   S    
Cr8   O44   S    
C14   C41   S    
Cr11  O13   S    
Cr7   O39   S    
C53   O27   A    
C47   O21   A    
C13   C20   A    
C36   O16   A    
C18   C22   A    
C66   C71   A    
C75   O1    A    
Cr4   O35   S    
C20   C112  S    
C99   C100  S    
C1    O18   A    
Cr10  O25   S    
C82   O42   A    
Cr9   O24   S    
C16   O70   D    
C95   H13   S    
Cr1   O9    S    
C35   C40   A    
C68   H7    S    
C29   C77   S    
C93   C98   D    
Cr2   O6    S    
C56   O30   A    
C40   C41   A    
Cr12  O31   S    
Cr5   O37   S    
C55   O29   A    
C4    C22   S    
Cr5   O10   S    
C26   C30   A    
C52   H39   S    
C74   C92   S    
Cr3   O7    S    
C5    C23   S    
C75   O31   A    
Cr8   O9    S    
C18   C110  S    
C49   C57   A    
C15   C42   S    
C67   H6    S    
C61   C79   S    
C78   O35   A    
C91   C105  A    
Cr3   O3    S    
C5    O59   D    
C4    O58   D    
Cr4   O4    S    
C19   C111  S    
C70   H8    S    
C97   C98   S    
Cr12  O5    S    
C92   O39   A    
Cr1   O36   S    
Cr5   O15   S    
C84   O45   A    
C25   O19   A    
C108  O51   D    
Cr6   O16   S    
C54   O28   A    
C7    O61   D    
C76   O12   A    
Cr11  O71   S    
C36   O20   A    
C63   C67   A    
C84   O72   A    
C85   O56   A    
Cr7   O43   S    
C89   O6    A    
C52   C61   A    
C28   C76   S    
C12   O66   D    
Cr9   O19   S    
Cr9   O56   S    
Cr8   O45   S    
Cr7   O13   S    
C39   C86   S    
C59   C63   A    
C59   C82   S    
C58   C101  A    
Cr10  O47   S    
Cr4   O8    S    
C44   C49   A    
C3    H21   S    
C8    C31   S    
C50   H37   S    
C47   C102  S    
C48   C52   A    
C86   O67   A    
C71   C88   S    
C6    C24   S    
C3    C21   S    
C23   C28   A    
C109  O52   D    
C109  H17   S    
Br6   C45   S    
Br7   C46   S    
Cr2   O28   S    
C90   O7    A    
C69   C107  S    
C53   O22   A    
C11   H30   S    
C46   C73   A    
C99   H23   S    
Cr11  O26   S    
C111  O54   D    
C87   O71   A    
C8    H27   S    
C44   C71   A    
C92   O8    A    
