data_mof_unit_39024.cif
_audit_creation_date              2012-12-10T18:04:01-0500
_audit_creation_method            fapswitch 2.2
_symmetry_space_group_name_H-M    P1
_symmetry_Int_Tables_number       1
_space_group_crystal_system       triclinic
_cell_length_a                    10.833011
_cell_length_b                    9.563067
_cell_length_c                    10.91311
_cell_angle_alpha                 89.879464
_cell_angle_beta                  91.911251
_cell_angle_gamma                 89.981711
_cell_volume                      1129.93184894

loop_
_atom_site_label
_atom_site_type_symbol
_atom_type_description
_atom_site_fract_x
_atom_site_fract_y
_atom_site_fract_z
_atom_type_partial_charge
C1    C     C_R   0.262205 0.499900 0.500280 0.811871
C2    C     C_R   0.737798 0.499878 0.499903 0.823116
C3    C     C_R   0.411440 0.075551 0.435695 -0.000820
C4    C     C_R   0.588650 0.075316 0.563802 -0.004921
C5    C     C_R   0.410845 0.927627 0.435332 0.427878
C6    C     C_R   0.588758 0.927688 0.564672 0.402686
C7    C     C_R   0.505056 0.499807 0.262665 0.871706
C8    C     C_R   0.508728 0.499142 0.737511 0.891216
C9    C     C_R   0.478258 0.616210 0.061080 0.035434
C10   C     C_R   0.493000 0.616780 0.935505 -0.002003
C11   C     C_R   0.512579 0.497491 0.129452 -0.271068
C12   C     C_R   0.519616 0.495809 0.871238 -0.190808
C13   C     C_R   0.555526 0.377252 0.067401 0.341392
C14   C     C_R   0.553557 0.374067 0.938548 0.345495
C15   C     C_3   0.559454 0.754812 0.938208 -0.242197
C16   C     C_3   0.530803 0.761254 0.073281 -0.268659
C17   C     C_R   0.063882 0.372521 0.499360 -0.158763
C18   C     C_R   0.936100 0.372508 0.499304 -0.129247
C19   C     C_R   0.871699 0.499615 0.499757 -0.032221
C20   C     C_R   0.128286 0.499634 0.500707 -0.035331
C21   C     C_R   0.936183 0.626509 0.500380 -0.131950
C22   C     C_R   0.063793 0.626507 0.502082 -0.125410
Cu1   Cu    Cu3+1 0.500000 0.640660 0.500000 1.054972
Cu2   Cu    Cu3+1 0.500000 0.359340 0.500000 1.031215
H1    H     H_    0.512516 0.834981 0.878985 0.187965
H2    H     H_    0.612893 0.766983 0.137488 0.163118
H3    H     H_    0.111910 0.273174 0.498438 0.166604
H4    H     H_    0.888070 0.273159 0.498656 0.174493
H5    H     H_    0.888526 0.725921 0.499482 0.205239
H6    H     H_    0.111457 0.725889 0.504466 0.202207
H7    H     H_    0.340916 0.132486 0.383753 0.171657
H8    H     H_    0.660029 0.131942 0.614444 0.202547
N1    N     N_R   0.500000 0.852070 0.500000 -0.233514
N2    N     N_R   0.500000 0.147940 0.500000 -0.220459
O1    O     O_R   0.319640 0.618740 0.499990 -0.541162
O2    O     O_R   0.680360 0.618740 0.500010 -0.547916
O3    O     O_R   0.319620 0.381170 0.499990 -0.607760
O4    O     O_R   0.680380 0.381170 0.500010 -0.588621
O5    O     O_R   0.499990 0.618810 0.319660 -0.562199
O6    O     O_R   0.500010 0.618810 0.680340 -0.558559
O7    O     O_R   0.499960 0.381240 0.319650 -0.530880
O8    O     O_R   0.500040 0.381240 0.680350 -0.550039
Cl1   Cl    Cl    0.628052 0.236464 0.147792 -0.458052
Cl2   Cl    Cl    0.606677 0.220739 0.866044 -0.507902
C23   C     C_2   0.697728 0.748782 0.922727 0.971623
O9    O     O_2   0.759372 0.853557 0.944121 -0.492196
O10   O     O_R   0.755533 0.626186 0.884866 -0.746167
H9    H     H_    0.848060 0.637683 0.877909 0.353768
C24   C     C_2   0.434999 0.870931 0.096654 1.010217
O11   O     O_2   0.463839 0.974218 0.156561 -0.529090
O12   O     O_R   0.315109 0.857579 0.046270 -0.722249
H10   H     H_    0.260395 0.939638 0.067019 0.358473
Cl3   Cl    Cl    0.292139 0.847219 0.348025 -0.614742
Cl4   Cl    Cl    0.706879 0.848108 0.652020 -0.599989

loop_
_geom_bond_atom_site_label_1
_geom_bond_atom_site_label_2
_ccdc_geom_bond_type
C17   C18   A    
Cu1   N1    S    
Cu2   O4    S    
Cu1   Cu2   S    
C13   C14   A    
C20   C22   A    
C11   C13   A    
C9    C10   A    
C2    O4    A    
O10   H9    S    
C6    N1    A    
C1    O3    A    
C8    C12   S    
C23   O10   S    
Cu2   O3    S    
C5    Cl3   S    
C18   H4    S    
C22   H6    S    
C21   C22   A    
C3    H7    S    
Cu2   O7    S    
C9    C11   A    
C4    H8    S    
C10   C12   A    
C6    Cl4   S    
Cu1   O5    S    
C4    C6    A    
C19   C21   A    
C9    C16   S    
C12   C14   A    
C7    C11   S    
Cu1   O1    S    
C10   C15   S    
C7    O7    A    
C16   H2    S    
C4    N2    A    
C15   H1    S    
C15   C16   S    
C15   C23   S    
Cu1   O6    S    
C17   H3    S    
C13   Cl1   S    
C17   C20   A    
Cu2   O8    S    
C16   C24   S    
C1    O1    A    
C14   Cl2   S    
Cu1   O2    S    
C2    O2    A    
C24   O11   D    
C7    O5    A    
C18   C19   A    
C1    C20   S    
C8    O6    A    
C3    N2    A    
C24   O12   S    
C2    C19   S    
C23   O9    D    
C21   H5    S    
Cu2   N2    S    
O12   H10   S    
C8    O8    A    
C3    C5    A    
C5    N1    A    
