data_mof_unit_17567.cif
_audit_creation_date              2012-12-11T15:31:36-0500
_audit_creation_method            fapswitch 2.2
_symmetry_space_group_name_H-M    P1
_symmetry_Int_Tables_number       1
_space_group_crystal_system       triclinic
_cell_length_a                    13.57104
_cell_length_b                    13.581287
_cell_length_c                    27.674904
_cell_angle_alpha                 90.454842
_cell_angle_beta                  90.035603
_cell_angle_gamma                 119.894417
_cell_volume                      4421.93287875

loop_
_atom_site_label
_atom_site_type_symbol
_atom_type_description
_atom_site_fract_x
_atom_site_fract_y
_atom_site_fract_z
_atom_type_partial_charge
C1    C     C_R   0.619550 0.898420 0.431278 0.544321
C2    C     C_R   0.073063 0.793924 0.271280 -0.103078
C3    C     C_R   0.053897 0.784704 0.221334 -0.100792
C4    C     C_R   0.599765 0.218514 0.431300 0.547886
C5    C     C_R   0.257194 0.883633 0.207282 -0.104051
C6    C     C_R   0.276364 0.892963 0.257232 -0.100810
C7    C     C_R   0.184400 0.847648 0.289358 0.041953
C8    C     C_R   0.145839 0.829036 0.189202 0.041920
C9    C     C_1   0.124072 0.813881 0.137932 -0.055733
C10   C     C_1   0.205972 0.854386 0.340618 -0.053194
C11   C     C_1   0.096782 0.794503 0.095918 -0.013289
C12   C     C_R   0.631013 0.234719 0.208643 -0.103837
C13   C     C_1   0.634764 0.866057 0.383629 -0.008951
C14   C     C_R   0.600293 0.874407 0.258314 -0.100654
C15   C     C_R   0.607761 0.862563 0.208406 -0.104075
C16   C     C_R   0.279620 0.878902 0.430516 0.549168
C17   C     C_R   0.708476 0.759727 0.222647 -0.100796
C18   C     C_R   0.701109 0.771674 0.272558 -0.103459
C19   C     C_R   0.647410 0.829510 0.290496 0.042099
C20   C     C_R   0.662301 0.805564 0.190461 0.042018
C21   C     C_1   0.675312 0.796761 0.139248 -0.055846
C22   C     C_1   0.642308 0.846231 0.341674 -0.053596
C23   C     C_R   0.620498 0.217273 0.258551 -0.100774
C24   C     C_1   0.692725 0.787044 0.097242 -0.012960
C25   C     C_R   0.640489 0.280423 0.614921 0.028554
C26   C     C_R   0.724432 0.269550 0.639995 -0.109795
C27   C     C_R   0.737605 0.289474 0.689207 -0.115904
C28   C     C_R   0.620541 0.900594 0.568878 0.539524
C29   C     C_R   0.669974 0.324510 0.713710 0.035543
C30   C     C_R   0.595061 0.347711 0.687743 -0.120120
C31   C     C_R   0.579654 0.324853 0.638483 -0.127649
C32   C     C_R   0.576984 0.301891 0.793424 -0.117862
C33   C     C_R   0.585092 0.322861 0.842864 -0.123923
C34   C     C_R   0.666234 0.310292 0.290648 0.042068
C35   C     C_R   0.788407 0.394271 0.839167 -0.126663
C36   C     C_R   0.780788 0.376391 0.789812 -0.122569
C37   C     C_R   0.675748 0.333787 0.766363 0.037074
C38   C     C_R   0.691761 0.373880 0.865509 0.024712
C39   C     C_R   0.226309 0.865924 0.615512 0.032521
C40   C     C_R   0.601758 0.223254 0.568371 0.543027
C41   C     C_R   0.256576 0.962488 0.644417 -0.188202
C42   C     C_R   0.231489 0.951236 0.693277 -0.147433
C43   C     C_R   0.173604 0.843173 0.713835 -0.025835
C44   C     C_R   0.134900 0.746216 0.684200 -0.083902
C45   C     C_R   0.687544 0.345381 0.190629 0.041930
C46   C     C_R   0.161878 0.757309 0.635312 0.375916
C47   C     C_R   0.166667 0.747049 0.790859 -0.119159
C48   C     C_R   0.138842 0.727982 0.839441 -0.121057
C49   C     C_R   0.103052 0.886015 0.840827 -0.141338
C50   C     C_R   0.128445 0.903514 0.791972 -0.124000
C51   C     C_R   0.156635 0.831615 0.766284 0.039769
C52   C     C_R   0.279757 0.881741 0.568244 0.574958
C53   C     C_R   0.102282 0.794359 0.864244 0.022115
C54   C     C_R   0.641271 0.859827 0.614453 0.022012
C55   C     C_R   0.555659 0.758235 0.634614 -0.121126
C56   C     C_1   0.694087 0.365266 0.139426 -0.055513
C57   C     C_R   0.565216 0.730942 0.682085 -0.119359
C58   C     C_R   0.660701 0.804506 0.709708 0.035986
C59   C     C_R   0.748989 0.902636 0.688663 -0.117874
C60   C     C_R   0.739615 0.929840 0.641338 -0.125889
C61   C     C_R   0.771763 0.802888 0.779667 -0.130662
C62   C     C_R   0.785395 0.798520 0.828778 -0.127723
C63   C     C_R   0.587755 0.746294 0.842280 -0.022319
C64   C     C_1   0.631302 0.264472 0.383714 -0.007592
C65   C     C_R   0.575205 0.752313 0.792135 -0.118066
C66   C     C_R   0.667902 0.783064 0.761028 0.017990
C67   C     C_1   0.650449 0.290372 0.341794 -0.053100
C68   C     C_R   0.695461 0.772904 0.860549 0.028602
C69   C     C_R   0.049252 0.761131 0.048246 0.543252
C70   C     C_R   0.714270 0.435798 0.049723 0.544208
C71   C     C_R   0.723460 0.770786 0.049503 0.543622
C72   C     C_R   0.044763 0.756148 0.910697 0.536355
C73   C     C_R   0.708175 0.428620 0.912512 0.540720
C74   C     C_R   0.718911 0.764335 0.911251 0.532005
C75   C     C_R   0.723751 0.420949 0.272649 -0.103116
C76   C     C_R   0.734377 0.438397 0.222735 -0.100899
C77   C     C_R   0.489460 0.716162 0.874372 0.035702
C78   C     C_1   0.701438 0.390763 0.097429 -0.011936
C79   C     C_R   0.498887 0.786662 0.913681 -0.081946
C80   C     C_R   0.405435 0.758181 0.943483 -0.107460
C81   C     C_R   0.301998 0.659375 0.934321 -0.100117
C82   C     C_R   0.291757 0.588992 0.895260 -0.122798
C83   C     C_R   0.384775 0.617437 0.865203 -0.094469
C84   C     C_1   0.232841 0.862950 0.382669 -0.006980
Cr1   Cr    Cr6+3 0.417720 0.831920 0.499820 1.061721
Cr2   Cr    Cr6+3 0.668190 0.085770 0.500360 1.034632
Cr3   Cr    Cr6+3 0.414060 0.082260 0.499840 1.028307
Cr4   Cr    Cr6+3 0.908000 0.821090 0.979770 1.020370
Cr5   Cr    Cr6+3 0.912420 0.571130 0.979880 1.010143
Cr6   Cr    Cr6+3 0.657970 0.566940 0.980940 1.038277
F1    F     F_    0.128949 0.662419 0.607968 -0.623008
H1    H     H_    0.759133 0.493437 0.297060 0.105304
H2    H     H_    0.872025 0.433785 0.855720 0.132592
H3    H     H_    0.545261 0.379123 0.705799 0.105946
H4    H     H_    0.777823 0.524418 0.209146 0.098955
H5    H     H_    0.515541 0.335226 0.619579 0.128447
H6    H     H_    0.307219 0.047368 0.630188 0.147509
H7    H     H_    0.192362 0.693182 0.772161 0.102931
H8    H     H_    0.139609 0.657202 0.856720 0.129394
H9    H     H_    0.262730 0.027318 0.715325 0.119234
H10   H     H_    0.120370 0.969573 0.773892 0.100956
H11   H     H_    0.076116 0.939212 0.859243 0.123949
H12   H     H_    0.572195 0.898729 0.183937 0.102266
H13   H     H_    0.086443 0.661845 0.699139 0.128657
H14   H     H_    0.478935 0.702453 0.614542 0.142648
H15   H     H_    0.594003 0.162244 0.184224 0.102795
H16   H     H_    0.843269 0.823469 0.756208 0.116557
H17   H     H_    0.866849 0.813670 0.842079 0.133706
H18   H     H_    0.497177 0.654001 0.697543 0.105514
H19   H     H_    0.494810 0.737891 0.777640 0.109045
H20   H     H_    0.823138 0.961271 0.709528 0.105272
H21   H     H_    0.806620 0.008768 0.626810 0.130714
H22   H     H_    0.575545 0.131270 0.272123 0.098293
H23   H     H_    0.751265 0.715828 0.209127 0.098800
H24   H     H_    0.001324 0.758285 0.295669 0.105140
H25   H     H_    0.967342 0.741844 0.207744 0.098951
H26   H     H_    0.328905 0.917771 0.182885 0.102428
H27   H     H_    0.362896 0.934456 0.270819 0.098016
H28   H     H_    0.558794 0.919580 0.271825 0.098043
H29   H     H_    0.578103 0.864172 0.920962 0.102271
H30   H     H_    0.413139 0.812900 0.973621 0.109354
H31   H     H_    0.229691 0.637554 0.957374 0.131555
H32   H     H_    0.211506 0.512608 0.888128 0.101460
H33   H     H_    0.375504 0.562024 0.835068 0.099865
H34   H     H_    0.738085 0.736908 0.297022 0.104761
H35   H     H_    0.773026 0.235789 0.622655 0.138486
H36   H     H_    0.494323 0.264728 0.776148 0.101433
H37   H     H_    0.509443 0.305496 0.862738 0.126708
H38   H     H_    0.795854 0.270722 0.708333 0.104334
H39   H     H_    0.858316 0.402111 0.769825 0.104667
O1    O     O_R   0.302900 0.805360 0.446400 -0.497863
O2    O     O_R   0.638120 0.455970 0.034270 -0.505089
O3    O     O_R   0.667540 0.672320 0.030160 -0.492009
O4    O     O_R   0.522090 0.841370 0.450730 -0.495562
O5    O     O_R   0.814460 0.840990 0.926980 -0.525518
O6    O     O_R   0.001710 0.811400 0.930110 -0.507679
O7    O     O_R   0.023410 0.659800 0.926210 -0.530675
O8    O     O_R   0.806940 0.473170 0.931090 -0.508258
O9    O     O_R   0.633420 0.451310 0.927930 -0.513731
O10   O     O_R   0.663190 0.668000 0.931580 -0.484710
O11   O     O_3   0.826130 0.653050 0.980200 -0.247189
O12   O     O_R   0.657980 0.180990 0.549630 -0.502863
O13   O     O_R   0.693280 0.995650 0.447220 -0.502281
O14   O     O_R   0.657260 0.178740 0.451050 -0.490520
O15   O     O_R   0.502640 0.195380 0.446850 -0.503337
O16   O     O_R   0.319630 0.976590 0.450330 -0.494507
O17   O     O_R   0.303680 0.807790 0.552740 -0.446099
O18   O     O_R   0.522820 0.843620 0.549310 -0.504959
O19   O     O_R   0.694060 0.998080 0.553560 -0.520609
O20   O     O_R   0.503420 0.197810 0.553190 -0.522236
O21   O     O_R   0.320350 0.978840 0.548910 -0.520973
O22   O     O_3   0.499990 0.999990 0.500010 -0.258689
O23   O     O_R   0.819150 0.845650 0.033320 -0.504393
O24   O     O_R   0.006060 0.815720 0.028680 -0.491074
O25   O     O_R   0.028100 0.664460 0.032550 -0.510524
O26   O     O_R   0.811290 0.477490 0.029660 -0.493331

loop_
_geom_bond_atom_site_label_1
_geom_bond_atom_site_label_2
_ccdc_geom_bond_type
C25   C31   A    
C7    C10   S    
C63   C65   A    
Cr3   O16   S    
C40   O12   A    
C70   C78   S    
C41   C42   A    
C82   H32   S    
C2    C7    A    
Cr1   O18   S    
C75   C76   A    
Cr6   O9    S    
C44   H13   S    
Cr2   O14   S    
C39   C41   A    
C54   C60   A    
C12   C23   A    
C26   C27   A    
C69   O25   A    
C47   H7    S    
C55   H14   S    
C45   C76   A    
C70   O26   A    
C32   H36   S    
C36   C37   A    
C42   H9    S    
C3    H25   S    
C25   C40   S    
C30   C31   A    
Cr5   O11   S    
Cr5   O25   S    
C27   C29   A    
C73   O8    A    
C77   C83   A    
C68   C74   S    
C31   H5    S    
C71   O23   A    
C36   H39   S    
C16   C84   S    
C17   C20   A    
C56   C78   T    
C16   O16   A    
C18   C19   A    
C26   H35   S    
C49   C50   A    
C16   O1    A    
C63   C68   A    
C61   C66   A    
C58   C66   S    
C57   H18   S    
C35   C36   A    
C45   C56   S    
C8    C9    S    
Cr3   O20   S    
C17   H23   S    
C59   H20   S    
C83   H33   S    
Cr1   O4    S    
Cr6   O2    S    
C77   C79   A    
C39   C52   S    
C59   C60   A    
Cr3   O21   S    
C74   O5    A    
C48   C53   A    
C44   C46   A    
Cr2   O13   S    
C81   C82   A    
C80   H30   S    
C35   H2    S    
C15   C20   A    
C28   O18   A    
Cr5   O8    S    
C64   C67   T    
C19   C22   S    
Cr4   O6    S    
C3    C8    A    
Cr2   O19   S    
C49   H11   S    
Cr6   O3    S    
C28   C54   S    
C12   C45   A    
Cr5   O26   S    
C47   C51   A    
C46   F1    S    
C73   O9    A    
C50   C51   A    
C58   C59   A    
C74   O10   A    
C33   H37   S    
C5    H26   S    
Cr4   O24   S    
C43   C44   A    
C4    O14   A    
C29   C30   A    
C60   H21   S    
Cr2   O22   S    
C23   H22   S    
C2    H24   S    
C47   C48   A    
C23   C34   A    
C79   H29   S    
C35   C38   A    
C70   O2    A    
C17   C18   A    
C40   O20   A    
C32   C37   A    
C9    C11   T    
C75   H1    S    
C39   C46   A    
C72   O7    A    
C82   C83   A    
C52   O17   A    
Cr5   O7    S    
Cr3   O22   S    
C55   C57   A    
C27   H38   S    
C41   H6    S    
C1    C13   S    
C42   C43   A    
C1    O4    A    
Cr4   O11   S    
Cr2   O12   S    
C63   C77   S    
C48   H8    S    
C54   C55   A    
Cr3   O15   S    
C14   C19   A    
Cr1   O17   S    
Cr4   O5    S    
C80   C81   A    
C34   C67   S    
C71   O3    A    
C5    C8    A    
Cr6   O10   S    
C11   C69   S    
C6    C7    A    
C1    O13   A    
C4    C64   S    
C69   O24   A    
C62   C68   A    
C81   H31   S    
Cr4   O23   S    
C2    C3    A    
C25   C26   A    
Cr1   O22   S    
C76   H4    S    
C32   C33   A    
C12   H15   S    
C43   C51   S    
C57   C58   A    
C5    C6    A    
C52   O21   A    
C49   C53   A    
C4    O15   A    
C10   C84   T    
C18   H34   S    
C13   C22   T    
C65   C66   A    
C61   C62   A    
C61   H16   S    
C65   H19   S    
Cr6   O11   S    
C72   O6    A    
C79   C80   A    
C28   O19   A    
C34   C75   A    
C62   H17   S    
C20   C21   S    
C50   H10   S    
C30   H3    S    
C14   H28   S    
C21   C24   T    
C29   C37   S    
C14   C15   A    
C33   C38   A    
C15   H12   S    
C53   C72   S    
C6    H27   S    
Cr1   O1    S    
C24   C71   S    
C38   C73   S    
