data_mof_unit_53433.cif
_audit_creation_date              2012-12-11T17:08:23-0500
_audit_creation_method            fapswitch 2.2
_symmetry_space_group_name_H-M    P1
_symmetry_Int_Tables_number       1
_space_group_crystal_system       triclinic
_cell_length_a                    7.01047
_cell_length_b                    14.430701
_cell_length_c                    16.182533
_cell_angle_alpha                 90.154035
_cell_angle_beta                  90.192354
_cell_angle_gamma                 89.980449
_cell_volume                      1637.10684345

loop_
_atom_site_label
_atom_site_type_symbol
_atom_type_description
_atom_site_fract_x
_atom_site_fract_y
_atom_site_fract_z
_atom_type_partial_charge
O1    O     O_R   0.505700 0.583890 0.413310 -0.538188
O2    O     O_R   0.175960 0.594920 0.586080 -0.519359
O3    O     O_R   0.005660 0.416110 0.586690 -0.522459
C1    C     C_R   0.344813 0.617557 0.614138 0.798808
O4    O     O_R   0.175980 0.594920 0.413930 -0.540242
O5    O     O_R   0.005680 0.416110 0.413310 -0.548686
C2    C     C_R   0.344513 0.617171 0.385512 0.695813
O6    O     O_R   0.505680 0.583890 0.586690 -0.522464
O7    O     O_3   0.339200 0.441330 0.500000 -0.377843
V1    V     V_3+5 0.064350 0.510880 0.500000 1.493953
O8    O     O_R   0.675960 0.405080 0.413920 -0.550104
C3    C     C_R   0.844648 0.383996 0.384665 0.665032
O9    O     O_R   0.675940 0.405080 0.586070 -0.528963
C4    C     C_R   0.844971 0.380829 0.613285 0.735853
V2    V     V_3+5 0.564340 0.489120 0.500000 1.463002
O10   O     O_3   0.839360 0.558670 0.500000 -0.349578
C5    C     C_R   0.014501 0.306491 0.733442 0.120091
C6    C     C_R   0.854003 0.312750 0.682871 -0.122588
C7    C     C_R   0.704789 0.251607 0.701154 -0.119621
H1    H     H_    0.587017 0.245942 0.660156 0.154980
C8    C     C_R   0.712316 0.191728 0.769453 -0.177415
H2    H     H_    0.596932 0.143059 0.778198 0.136951
C9    C     C_R   0.874066 0.188965 0.821246 -0.117007
C10   C     C_R   0.022588 0.250838 0.804137 0.044670
C11   C     C_3   0.227410 0.227851 0.789671 -0.445862
C12   C     C_3   0.210187 0.279752 0.708037 0.196444
H3    H     H_    0.254828 0.152250 0.784096 0.152816
H4    H     H_    0.321178 0.262484 0.835879 0.201766
C13   C     C_R   0.719438 0.242352 0.193245 0.051789
C14   C     C_R   0.881547 0.187714 0.181201 -0.071968
C15   C     C_R   0.035378 0.202146 0.235260 -0.162680
H5    H     H_    0.158747 0.158844 0.230045 0.182052
C16   C     C_R   0.024005 0.266447 0.300641 -0.160619
H6    H     H_    0.141477 0.271319 0.343827 0.138361
C17   C     C_R   0.857576 0.319220 0.313526 -0.070030
C18   C     C_R   0.710011 0.309728 0.255333 0.046511
C19   C     C_3   0.505002 0.290175 0.270638 -0.439666
C20   C     C_3   0.519729 0.211814 0.208183 0.113178
H7    H     H_    0.412532 0.348067 0.249389 0.141664
H8    H     H_    0.479005 0.268023 0.334753 0.190990
H9    H     H_    0.426900 0.220780 0.152977 0.105896
C21   C     C_R   0.504310 0.751058 0.687871 0.111288
C22   C     C_R   0.352450 0.688387 0.680625 -0.134080
C23   C     C_R   0.202167 0.697494 0.737761 -0.102133
H10   H     H_    0.080439 0.651697 0.734150 0.136917
C24   C     C_R   0.213605 0.761380 0.803718 -0.177899
H11   H     H_    0.099444 0.763488 0.848468 0.124836
C25   C     C_R   0.376516 0.817381 0.814965 -0.103759
C26   C     C_R   0.516388 0.813472 0.753472 0.067759
C27   C     C_3   0.727132 0.802254 0.760355 -0.441141
C28   C     C_3   0.714115 0.734726 0.688001 0.114294
H12   H     H_    0.769021 0.768406 0.819270 0.145857
H13   H     H_    0.804446 0.867545 0.746287 0.201729
H14   H     H_    0.751818 0.662167 0.704102 0.108125
C29   C     C_R   0.508676 0.747860 0.310355 0.136348
C30   C     C_R   0.352301 0.688202 0.319183 -0.113847
C31   C     C_R   0.199741 0.699739 0.263216 -0.174516
H15   H     H_    0.075811 0.655604 0.267445 0.131839
C32   C     C_R   0.211700 0.763443 0.197361 -0.186589
H16   H     H_    0.095381 0.767185 0.153464 0.130965
C33   C     C_R   0.377216 0.817174 0.184998 -0.117070
C34   C     C_R   0.520846 0.810573 0.245089 0.177715
C35   C     C_3   0.729152 0.794002 0.235072 -0.425900
C36   C     C_3   0.715993 0.726005 0.306434 -0.406202
H17   H     H_    0.815075 0.856621 0.249988 0.206201
H18   H     H_    0.762599 0.760222 0.175039 0.160382
H19   H     H_    0.793809 0.749501 0.362672 0.215007
H20   H     H_    0.742527 0.652900 0.287884 0.159106
O11   O     O_R   0.229000 0.916070 0.913330 -0.542929
O12   O     O_R   0.558770 0.905070 0.086080 -0.534152
O13   O     O_R   0.729000 0.083900 0.086690 -0.517302
C37   C     C_R   0.389992 0.883046 0.114688 0.745628
O14   O     O_R   0.558720 0.905070 0.913930 -0.543095
O15   O     O_R   0.728960 0.083900 0.913310 -0.543362
C38   C     C_R   0.389647 0.883160 0.885316 0.687472
O16   O     O_R   0.229050 0.916070 0.086710 -0.537032
O17   O     O_3   0.395460 0.058650 0.000020 -0.367824
V3    V     V_3+5 0.670340 0.989120 0.000000 1.433211
O18   O     O_R   0.058670 0.094960 0.913900 -0.542440
C39   C     C_R   0.889139 0.118015 0.886636 0.695126
O19   O     O_R   0.058720 0.094960 0.086050 -0.543684
C40   C     C_R   0.890200 0.116806 0.114742 0.731168
V4    V     V_3+5 0.170330 0.010930 0.999970 1.422707
O20   O     O_3   0.895340 0.941350 0.999980 -0.377765
Br1   Br    Br    0.511329 0.089881 0.261112 -0.615438
Br2   Br    Br    0.831286 0.781567 0.587882 -0.570407
C41   C     C_R   0.209871 0.214241 0.631857 0.070495
C42   C     C_R   0.315341 0.233889 0.560330 -0.132548
C43   C     C_R   0.320491 0.171669 0.494042 -0.146751
C44   C     C_R   0.213421 0.090502 0.495725 -0.047253
C45   C     C_R   0.103863 0.070207 0.564832 -0.105040
C46   C     C_R   0.103090 0.130693 0.632323 -0.160836
H21   H     H_    0.402018 0.294778 0.556816 0.175205
H22   H     H_    0.410748 0.185350 0.441923 0.138415
H23   H     H_    0.217197 0.042922 0.443922 0.152662
H24   H     H_    0.021313 0.006863 0.566733 0.160392
H25   H     H_    0.019389 0.110801 0.685070 0.125663
Br3   Br    Br    0.355107 0.394853 0.707149 -0.600799

loop_
_geom_bond_atom_site_label_1
_geom_bond_atom_site_label_2
_ccdc_geom_bond_type
C41   C42   A    
C35   H17   S    
O12   V3    S    
C4    C6    S    
C17   C18   A    
C37   O16   A    
O19   C40   A    
C31   H15   S    
C44   H23   S    
O17   V3    S    
C11   H4    S    
C13   C18   A    
C13   C14   A    
C5    C12   S    
C36   H20   S    
C18   C19   S    
C7    C8    A    
C19   C20   S    
C19   H8    S    
O5    C3    A    
C14   C15   A    
C31   C32   A    
O17   V4    S    
V2    O10   S    
C29   C34   A    
C30   C31   A    
C28   Br2   S    
C6    C7    A    
C43   H22   S    
C45   H24   S    
C24   H11   S    
O8    V2    S    
C7    H1    S    
C12   C41   S    
C13   C20   S    
C27   H12   S    
C9    C10   A    
C15   C16   A    
O1    V2    S    
C9    C39   S    
O7    V1    S    
C1    O6    A    
C21   C28   S    
O13   C40   A    
C35   H18   S    
C32   H16   S    
O15   C39   A    
O9    C4    A    
O14   C38   A    
C25   C38   S    
C2    C30   S    
O16   V4    S    
O19   V4    S    
C23   C24   A    
C46   H25   S    
C5    C6    A    
C24   C25   A    
C32   C33   A    
C27   H13   S    
C20   Br1   S    
C5    C10   A    
C36   H19   S    
C10   C11   S    
C20   H9    S    
C45   C46   A    
O4    C2    A    
C11   C12   S    
O18   C39   A    
C14   C40   S    
O2    C1    A    
C22   C23   A    
C34   C35   S    
O11   V4    S    
V4    O20   S    
O14   V3    S    
C29   C36   S    
C29   C30   A    
C27   C28   S    
C3    C17   S    
O3    C4    A    
C12   Br3   S    
C33   C37   S    
C25   C26   A    
O6    V2    S    
C8    C9    A    
C21   C22   A    
O2    V1    S    
C41   C46   A    
C23   H10   S    
C42   H21   S    
O1    C2    A    
C15   H5    S    
O5    V1    S    
O8    C3    A    
C1    C22   S    
C11   H3    S    
C28   H14   S    
O9    V2    S    
O7    V2    S    
O4    V1    S    
C19   H7    S    
O3    V1    S    
V1    O10   S    
O18   V4    S    
C44   C45   A    
C16   C17   A    
C16   H6    S    
O11   C38   A    
C33   C34   A    
C21   C26   A    
C35   C36   S    
V3    O20   S    
C42   C43   A    
C26   C27   S    
O15   V3    S    
O12   C37   A    
C43   C44   A    
C8    H2    S    
O13   V3    S    
