data_mof_unit_13456.cif
_audit_creation_date              2013-03-05T16:22:22-0500
_audit_creation_method            fapswitch 2.2
_symmetry_space_group_name_H-M    P1
_symmetry_Int_Tables_number       1
_space_group_crystal_system       triclinic
_cell_length_a                    13.833634
_cell_length_b                    15.119953
_cell_length_c                    15.905179
_cell_angle_alpha                 89.898568
_cell_angle_beta                  70.226824
_cell_angle_gamma                 90.251607
_cell_volume                      3130.59029961

loop_
_atom_site_label
_atom_site_type_symbol
_atom_site_description
_atom_site_fract_x
_atom_site_fract_y
_atom_site_fract_z
_atom_type_partial_charge
O1    O     O_R   0.418570 0.628550 0.499990 -0.572509
O2    O     O_R   0.581430 0.371450 0.500010 -0.532419
O3    O     O_R   0.581440 0.628540 0.499990 -0.593967
O4    O     O_R   0.418560 0.371460 0.500010 -0.610502
C1    C     C_R   0.498829 0.670032 0.503406 0.782186
C2    C     C_R   0.499298 0.329833 0.501254 0.838019
O5    O     O_R   0.372890 0.500010 0.629830 -0.594424
O6    O     O_R   0.627110 0.499990 0.370170 -0.588589
O7    O     O_R   0.535760 0.500000 0.629840 -0.572206
O8    O     O_R   0.464240 0.500000 0.370160 -0.583431
C3    C     C_R   0.437531 0.496160 0.672479 0.793691
C4    C     C_R   0.562774 0.504123 0.327541 0.788277
Cu1   Cu    Cu3+1 0.403570 0.500010 0.500000 0.930821
Cu2   Cu    Cu3+1 0.596430 0.499990 0.500000 0.950473
C5    C     C_R   0.399977 0.489376 0.771363 -0.073312
C6    C     C_R   0.601813 0.515459 0.228991 -0.084188
C7    C     C_R   0.270739 0.460211 0.915794 -0.232961
C8    C     C_R   0.732932 0.549090 0.086611 -0.235837
C9    C     C_R   0.300852 0.457452 0.822495 0.105269
C10   C     C_R   0.703797 0.542571 0.179563 0.097956
C11   C     C_R   0.468709 0.512719 0.815425 -0.261518
C12   C     C_R   0.532146 0.501946 0.183594 -0.276819
C13   C     C_R   0.443039 0.504190 0.908752 0.076219
C14   C     C_R   0.558855 0.516866 0.090881 0.077189
C15   C     C_R   0.339194 0.485408 0.959991 0.085574
C16   C     C_R   0.663147 0.534245 0.040899 0.087781
C17   C     C_R   0.517464 0.514203 0.952225 0.031401
C18   C     C_R   0.484815 0.512072 0.046843 0.030385
C19   C     C_R   0.378615 0.507947 0.095438 -0.222518
C20   C     C_R   0.623812 0.522382 0.903861 -0.212642
C21   C     C_R   0.305414 0.492417 0.054156 0.081146
C22   C     C_R   0.696651 0.534863 0.946424 0.081540
H1    H     H_    0.457326 0.476599 0.222106 0.157608
H2    H     H_    0.542059 0.539358 0.775079 0.154209
H3    H     H_    0.193858 0.438221 0.953790 0.125334
H4    H     H_    0.811434 0.567998 0.050449 0.125430
H5    H     H_    0.351595 0.518229 0.166232 0.138482
H6    H     H_    0.651891 0.517483 0.832482 0.141842
C23   C     C_R   0.409892 0.905436 0.554180 -0.190214
C24   C     C_R   0.551048 0.093978 0.547559 -0.295131
H7    H     H_    0.341864 0.941442 0.592954 0.159281
H8    H     H_    0.593147 0.057082 0.582303 0.135662
C25   C     C_R   0.408392 0.813590 0.558290 0.404760
C26   C     C_R   0.554227 0.186406 0.547422 0.399781
C27   C     C_R   0.497506 0.766550 0.508482 -0.159625
C28   C     C_R   0.497386 0.233229 0.503761 -0.097823
C29   C     C_R   0.587395 0.812711 0.461067 -0.284120
C30   C     C_R   0.436382 0.187800 0.463237 -0.309631
H9    H     H_    0.655845 0.776252 0.425185 0.164942
H10   H     H_    0.391807 0.224882 0.430915 0.167872
C31   C     C_R   0.589655 0.905027 0.457493 0.111041
C32   C     C_R   0.433877 0.095346 0.462091 0.105723
C33   C     C_R   0.498324 0.951515 0.503154 0.010791
C34   C     C_R   0.494514 0.048358 0.503075 0.057696
C35   C     C_R   0.907496 0.431807 0.462828 -0.338236
C36   C     C_R   0.125374 0.564387 0.454143 -0.353436
H11   H     H_    0.957024 0.376891 0.432656 0.177326
H12   H     H_    0.102201 0.616141 0.417906 0.167369
C37   C     C_R   0.806208 0.432391 0.462084 0.065005
C38   C     C_R   0.226651 0.563887 0.454939 0.074096
H13   H     H_    0.779684 0.378285 0.431057 0.146260
H14   H     H_    0.279815 0.614841 0.419065 0.143016
N1    N     N_R   0.741310 0.499980 0.500000 -0.203869
N2    N     N_R   0.258690 0.500020 0.500000 -0.204087
C39   C     C_R   0.775120 0.568996 0.537907 0.049785
C40   C     C_R   0.192974 0.434196 0.543056 0.041927
H15   H     H_    0.722946 0.622136 0.568106 0.153618
H16   H     H_    0.220282 0.383318 0.576887 0.150417
C41   C     C_R   0.876660 0.573151 0.538461 0.305153
C42   C     C_R   0.090218 0.431866 0.545440 0.314815
C43   C     C_R   0.945079 0.502130 0.501030 -0.009197
C44   C     C_R   0.054365 0.499207 0.500682 0.003483
C45   C     C_3   0.191036 0.485076 0.108830 -0.412437
C46   C     C_3   0.158768 0.512395 0.207513 -0.351212
C47   C     C_3   0.042227 0.510287 0.250525 -0.857889
H17   H     H_    0.006480 0.549920 0.210430 0.250121
H18   H     H_    0.013101 0.441212 0.255638 0.252693
H19   H     H_    0.019923 0.539504 0.318105 0.259483
H20   H     H_    0.191855 0.466382 0.245050 0.224267
H21   H     H_    0.185998 0.580856 0.212504 0.220174
H22   H     H_    0.148824 0.528710 0.076858 0.198009
H23   H     H_    0.165706 0.415658 0.105586 0.196096
C48   C     C_3   0.811072 0.545520 0.893395 -0.426171
C49   C     C_3   0.845434 0.536328 0.791605 -0.342607
C50   C     C_3   0.962124 0.545314 0.751846 -0.791638
H24   H     H_    0.987640 0.610698 0.768561 0.254268
H25   H     H_    0.000089 0.491951 0.777165 0.244833
H26   H     H_    0.986439 0.539862 0.678648 0.252224
H27   H     H_    0.822759 0.470360 0.773449 0.224053
H28   H     H_    0.809853 0.588974 0.763038 0.244633
H29   H     H_    0.835780 0.612066 0.908236 0.200908
H30   H     H_    0.853108 0.494449 0.917687 0.200755
O9    O     O_3   0.903273 0.646781 0.577228 -0.754180
H31   H     H_    0.975356 0.642676 0.574629 0.339929
O10   O     O_3   0.028148 0.364938 0.594534 -0.761705
H32   H     H_    0.955394 0.378567 0.604082 0.340957
C51   C     C_3   0.784432 0.567285 0.220951 -0.389638
C52   C     C_3   0.762543 0.658187 0.265971 -0.323696
C53   C     C_3   0.846090 0.684728 0.303948 -0.840482
H33   H     H_    0.851298 0.635172 0.353779 0.265550
H34   H     H_    0.921459 0.690312 0.249506 0.248168
H35   H     H_    0.828166 0.750055 0.336970 0.231825
H36   H     H_    0.759352 0.708808 0.216188 0.211011
H37   H     H_    0.687207 0.657539 0.320529 0.228444
H38   H     H_    0.792549 0.515075 0.267073 0.219500
H39   H     H_    0.861445 0.571067 0.168322 0.173963
C54   C     C_3   0.227450 0.413415 0.782506 -0.405486
C55   C     C_3   0.268060 0.322420 0.743537 -0.341945
C56   C     C_3   0.182137 0.262619 0.735937 -0.825928
H40   H     H_    0.129648 0.243855 0.803582 0.250182
H41   H     H_    0.136927 0.296494 0.699820 0.282913
H42   H     H_    0.215679 0.201458 0.699249 0.247340
H43   H     H_    0.327151 0.330806 0.676529 0.226066
H44   H     H_    0.304678 0.288488 0.787075 0.228562
H45   H     H_    0.150976 0.403793 0.835005 0.190513
H46   H     H_    0.211857 0.456255 0.732039 0.211815
O11   O     O_3   0.319737 0.773308 0.613266 -0.727605
H47   H     H_    0.337247 0.715098 0.632594 0.327296
O12   O     O_3   0.610047 0.231908 0.591046 -0.728137
H48   H     H_    0.645201 0.188954 0.617924 0.319183
C57   C     C_3   0.690317 0.950579 0.405207 -0.385422
C58   C     C_3   0.687786 0.991205 0.317642 -0.359072
C59   C     C_3   0.792645 0.028697 0.262255 -0.840575
H49   H     H_    0.816709 0.080819 0.300326 0.255863
H50   H     H_    0.851048 0.975397 0.244278 0.253852
H51   H     H_    0.788177 0.058377 0.199774 0.242003
H52   H     H_    0.665157 0.939875 0.277783 0.216312
H53   H     H_    0.631316 0.045770 0.331987 0.228358
H54   H     H_    0.709916 0.001851 0.446553 0.199226
H55   H     H_    0.754299 0.902192 0.388826 0.192924
C60   C     C_3   0.364831 0.050090 0.418344 -0.389026
C61   C     C_3   0.426077 0.006024 0.329681 -0.360108
C62   C     C_3   0.354798 0.967016 0.284028 -0.834064
H56   H     H_    0.303311 0.916392 0.327710 0.258159
H57   H     H_    0.307630 0.019854 0.268768 0.253264
H58   H     H_    0.401215 0.935073 0.220458 0.241510
H59   H     H_    0.477495 0.055621 0.284268 0.217927
H60   H     H_    0.473508 0.951677 0.341458 0.227701
H61   H     H_    0.314445 0.000829 0.464600 0.200233
H62   H     H_    0.312175 0.099256 0.404944 0.198516

loop_
_geom_bond_atom_site_label_1
_geom_bond_atom_site_label_2
_geom_bond_distance
_ccdc_geom_bond_type
C15   C21   1.414285 A    
O5    Cu1   1.962460 S    
C40   H16   1.078252 S    
N1    C39   1.363792 A    
C16   C22   1.414762 A    
O9    H31   0.986187 S    
C35   C37   1.405285 A    
C45   C46   1.537302 S    
O10   H32   0.988435 S    
C8    C16   1.408724 A    
C57   H55   1.112151 S    
C47   H17   1.106779 S    
C51   C52   1.534253 S    
C59   H49   1.111001 S    
C23   H7    1.084131 S    
C40   C42   1.409402 A    
C50   H24   1.110839 S    
O5    C3    1.293794 A    
C48   H30   1.112932 S    
O1    C1    1.289905 A    
C18   C19   1.410800 A    
C14   C16   1.415074 A    
C41   O9    1.381136 S    
C56   H41   1.108303 S    
C39   C41   1.408809 A    
C59   H50   1.110947 S    
C61   H60   1.108241 S    
C52   H36   1.111989 S    
O4    Cu1   1.955611 S    
C55   C56   1.527470 S    
C20   H6    1.071185 S    
C38   H14   1.081454 S    
C55   H44   1.112521 S    
C58   H52   1.111823 S    
C41   C43   1.425948 A    
C60   H62   1.112607 S    
C3    C5    1.483289 S    
C10   C51   1.520287 S    
C4    C6    1.484408 S    
C26   C28   1.405114 A    
C61   C62   1.525858 S    
C39   H15   1.081261 S    
C62   H58   1.110432 S    
C6    C12   1.400543 A    
C54   C55   1.538483 S    
C13   C17   1.428880 A    
C6    C10   1.421201 A    
C51   H38   1.108327 S    
C50   H25   1.111157 S    
C46   H21   1.112105 S    
Cu1   Cu2   2.667956 S    
C17   C20   1.415545 A    
O2    C2    1.290631 A    
C49   H28   1.111666 S    
C12   H1    1.077084 S    
C45   H22   1.112630 S    
C32   C34   1.416629 A    
C27   C29   1.399342 A    
C28   C30   1.401411 A    
C37   H13   1.081072 S    
C46   C47   1.523623 S    
C60   H61   1.108339 S    
C49   C50   1.526830 S    
C29   H9    1.079948 S    
C56   H42   1.110606 S    
C59   H51   1.110402 S    
C23   C25   1.389860 A    
C11   H2    1.076364 S    
C26   O12   1.382236 S    
C36   C44   1.407495 A    
C61   H59   1.111670 S    
C33   C34   1.465458 S    
C1    C27   1.461578 S    
C36   C38   1.405414 A    
C31   C33   1.416524 A    
N2    C40   1.361749 A    
C55   H43   1.108744 S    
C5    C9    1.418798 A    
O7    Cu2   1.948451 S    
C47   H18   1.110663 S    
C48   C49   1.532015 S    
C30   C32   1.398478 A    
O6    C4    1.290085 A    
C30   H10   1.084149 S    
O7    C3    1.298252 A    
C54   H45   1.112705 S    
C57   C58   1.532450 S    
O3    Cu2   1.955613 S    
O8    C4    1.302049 A    
C25   O11   1.380445 S    
C51   H39   1.111257 S    
O4    C2    1.290375 A    
C53   H34   1.110018 S    
C24   C34   1.399794 A    
C46   H20   1.111833 S    
C11   C13   1.410113 A    
C62   H56   1.111026 S    
C31   C57   1.520230 S    
C12   C14   1.411143 A    
C5    C11   1.403033 A    
O1    Cu1   1.953652 S    
C49   H27   1.111850 S    
C60   C61   1.533067 S    
C45   H23   1.111890 S    
C50   H26   1.100453 S    
C22   C48   1.528658 S    
O6    Cu2   1.962463 S    
C2    C28   1.461001 S    
C32   C60   1.519966 S    
C14   C18   1.424734 A    
C57   H54   1.107945 S    
O3    C1    1.291105 A    
O8    Cu1   1.948453 S    
C29   C31   1.396658 A    
O12   H48   0.991729 S    
C48   H29   1.112366 S    
C37   N1    1.363074 A    
C53   H33   1.109867 S    
C38   N2    1.363391 A    
C7    C15   1.408633 A    
C35   H11   1.083117 S    
C42   O10   1.380932 S    
C43   C44   1.510801 S    
C25   C27   1.414959 A    
O11   H47   0.989489 S    
C20   C22   1.403394 A    
C23   C33   1.399786 A    
Cu1   N2    2.004218 S    
C52   H37   1.107799 S    
Cu2   N1    2.004218 S    
C24   H8    1.084090 S    
C7    C9    1.399799 A    
C36   H12   1.083010 S    
C8    C10   1.397812 A    
C13   C15   1.418445 A    
C58   H53   1.108469 S    
O2    Cu2   1.953652 S    
C47   H19   1.106424 S    
C54   H46   1.107668 S    
C21   C45   1.529453 S    
C24   C26   1.397977 A    
C53   H35   1.108525 S    
C19   C21   1.400019 A    
C52   C53   1.526692 S    
C19   H5    1.071489 S    
C17   C18   1.417612 A    
C62   H57   1.110848 S    
C42   C44   1.424866 A    
C7    H3    1.080837 S    
C58   C59   1.525771 S    
C56   H40   1.110790 S    
C8    H4    1.079792 S    
C35   C43   1.407552 A    
C9    C54   1.520366 S    
