data_mof_unit_43197.cif
_audit_creation_date              2012-12-10T17:05:19-0500
_audit_creation_method            fapswitch 2.2
_symmetry_space_group_name_H-M    P1
_symmetry_Int_Tables_number       1
_space_group_crystal_system       triclinic
_cell_length_a                    10.026984
_cell_length_b                    10.735934
_cell_length_c                    15.558292
_cell_angle_alpha                 90.320857
_cell_angle_beta                  67.760016
_cell_angle_gamma                 90.44144
_cell_volume                      1550.18609974

loop_
_atom_site_label
_atom_site_type_symbol
_atom_type_description
_atom_site_fract_x
_atom_site_fract_y
_atom_site_fract_z
_atom_type_partial_charge
C1    C     C_R   0.501656 0.737472 0.498880 0.969211
C2    C     C_R   0.406111 0.537386 0.915977 0.024591
C3    C     C_R   0.262478 0.500795 0.970305 0.049463
C4    C     C_R   0.506088 0.562568 0.958474 0.068294
C5    C     C_R   0.467790 0.531855 0.053017 -0.005038
C6    C     C_R   0.323011 0.499038 0.106470 -0.332576
C7    C     C_R   0.221542 0.483243 0.065995 0.493282
C8    C     C_R   0.642671 0.618195 0.909754 -0.206627
C9    C     C_R   0.742259 0.634798 0.951229 -0.244920
C10   C     C_R   0.710422 0.594432 0.041636 0.153334
C11   C     C_R   0.574612 0.538915 0.091936 0.133502
C12   C     C_R   0.409826 0.501808 0.675840 0.851703
C13   C     C_R   0.811307 0.611198 0.083475 -0.208102
C14   C     C_R   0.776838 0.575518 0.175479 -0.101387
C15   C     C_R   0.549855 0.491694 0.179975 -0.262016
C16   C     C_2   0.625088 0.068392 0.476819 -0.256541
C17   C     C_2   0.508323 0.131487 0.481702 -0.415322
C18   C     C_2   0.628781 0.933599 0.467764 0.568656
C19   C     C_2   0.503916 0.869748 0.502144 -0.455011
C20   C     C_2   0.113083 0.453621 0.433234 -0.266133
C21   C     C_2   0.958336 0.435937 0.440519 0.566626
C22   C     C_R   0.501597 0.262616 0.496350 0.967925
C23   C     C_R   0.590097 0.500700 0.324233 0.874877
C24   C     C_R   0.353159 0.508766 0.777000 -0.046570
C25   C     C_R   0.644705 0.516936 0.223989 -0.089230
C26   C     C_R   0.163649 0.478592 0.927283 -0.191493
C27   C     C_R   0.208823 0.482842 0.830989 -0.222947
C28   C     C_R   0.448895 0.538877 0.819591 -0.230825
H1    H     H_    0.914101 0.656212 0.046326 0.153327
H2    H     H_    0.718902 0.115870 0.479994 0.182298
H3    H     H_    0.417563 0.087798 0.471331 0.155774
H4    H     H_    0.400943 0.913673 0.539495 0.113195
H5    H     H_    0.198987 0.422766 0.370248 0.178728
H6    H     H_    0.066260 0.518029 0.561312 0.146018
H7    H     H_    0.876345 0.564355 0.539479 0.093447
H8    H     H_    0.454661 0.437347 0.217211 0.145681
H9    H     H_    0.850492 0.597489 0.209479 0.205126
H10   H     H_    0.844870 0.678999 0.912163 0.146026
H11   H     H_    0.052757 0.453278 0.967439 0.182651
H12   H     H_    0.132641 0.461100 0.798851 0.158227
H13   H     H_    0.559673 0.556140 0.775715 0.152514
H14   H     H_    0.283501 0.488456 0.180882 0.173250
H15   H     H_    0.673599 0.654890 0.840488 0.137014
N1    N     N_2   0.148330 0.498670 0.499030 -0.207914
N2    N     N_2   0.852680 0.498640 0.499000 -0.220214
O1    O     O_R   0.386950 0.680940 0.500010 -0.616250
O2    O     O_R   0.613110 0.680900 0.499990 -0.571980
O3    O     O_R   0.322330 0.500030 0.632270 -0.618046
O4    O     O_R   0.548480 0.499990 0.632240 -0.629651
O5    O     O_R   0.386890 0.319100 0.500010 -0.618357
O6    O     O_R   0.613050 0.319060 0.499990 -0.577755
O7    O     O_R   0.451520 0.500010 0.367760 -0.618221
O8    O     O_R   0.677670 0.499970 0.367730 -0.561412
Zn1   Zn    Zn3+2 0.349000 0.500030 0.500020 0.932823
Zn2   Zn    Zn3+2 0.651000 0.499970 0.499980 0.995509
O9    O     O_3   0.081087 0.452731 0.121363 -0.618366
C29   C     C_3   0.070540 0.322292 0.132208 -0.281759
H16   H     H_    0.958476 0.298090 0.178157 0.216858
H17   H     H_    0.143547 0.287151 0.165396 0.159796
H18   H     H_    0.093741 0.274436 0.064491 0.146085
O10   O     O_3   0.757776 0.873780 0.417985 -0.581922
C30   C     C_3   0.853152 0.886441 0.464905 -0.293097
H19   H     H_    0.798759 0.870599 0.541092 0.146225
H20   H     H_    0.907294 0.978793 0.450951 0.137899
H21   H     H_    0.938291 0.814910 0.437664 0.191334
O11   O     O_3   0.928193 0.360382 0.377380 -0.554946
C31   C     C_3   0.992506 0.242612 0.371755 -0.361975
H22   H     H_    0.975356 0.204400 0.441617 0.145185
H23   H     H_    0.109212 0.246452 0.327910 0.152517
H24   H     H_    0.941828 0.176781 0.337790 0.197630

loop_
_geom_bond_atom_site_label_1
_geom_bond_atom_site_label_2
_ccdc_geom_bond_type
C2    C4    A    
C8    H15   S    
C18   O10   S    
C23   O8    A    
C30   H19   S    
C21   O11   S    
C9    C10   A    
C15   H8    S    
O6    Zn2   S    
C17   C22   S    
C24   C27   A    
C12   O3    A    
C27   H12   S    
C4    C8    A    
C31   H24   S    
O1    Zn1   S    
C23   C25   S    
C2    C3    A    
C23   O7    A    
C13   C14   A    
C20   C21   S    
C14   H9    S    
O3    Zn1   S    
C30   H20   S    
C26   C27   A    
O5    Zn1   S    
C26   H11   S    
C7    O9    S    
C21   N2    D    
C5    C6    A    
C19   H4    S    
C16   C18   S    
C9    H10   S    
C20   N1    D    
O7    Zn1   S    
C5    C11   A    
C6    C7    A    
C3    C7    A    
O8    Zn2   S    
C14   C25   A    
C22   O6    A    
O10   C30   S    
C17   H3    S    
C1    O1    A    
C15   C25   A    
C12   O4    A    
C29   H17   S    
C10   C11   A    
C20   H5    S    
C16   H2    S    
C31   H22   S    
H7    N2    S    
N1    Zn1   S    
C28   H13   S    
H6    N1    S    
O9    C29   S    
N2    Zn2   S    
O2    Zn2   S    
C18   C19   D    
C6    H14   S    
C13   H1    S    
O11   C31   S    
C22   O5    A    
C12   C24   S    
C4    C5    A    
C29   H18   S    
C2    C28   A    
C30   H21   S    
C29   H16   S    
O4    Zn2   S    
C1    C19   S    
C11   C15   A    
C3    C26   A    
C1    O2    A    
C24   C28   A    
C16   C17   D    
C8    C9    A    
C31   H23   S    
C10   C13   A    
