data_mof_unit_30080.cif
_audit_creation_date              2012-12-11T14:34:06-0500
_audit_creation_method            fapswitch 2.2
_symmetry_space_group_name_H-M    P1
_symmetry_Int_Tables_number       1
_space_group_crystal_system       triclinic
_cell_length_a                    13.894356
_cell_length_b                    13.993243
_cell_length_c                    27.323552
_cell_angle_alpha                 90.12963
_cell_angle_beta                  90.087575
_cell_angle_gamma                 120.043199
_cell_volume                      4598.66960233

loop_
_atom_site_label
_atom_site_type_symbol
_atom_type_description
_atom_site_fract_x
_atom_site_fract_y
_atom_site_fract_z
_atom_type_partial_charge
C1    C     C_R   0.233819 0.787591 0.568693 0.541153
C2    C     C_1   0.708788 0.863439 0.859934 -0.080479
C3    C     C_1   0.111548 0.888139 0.851568 -0.082214
C4    C     C_1   0.152243 0.289384 0.859715 -0.081229
C5    C     C_1   0.629996 0.816917 0.658709 -0.073655
C6    C     C_1   0.176405 0.822672 0.655603 -0.072561
C7    C     C_1   0.185894 0.370537 0.658693 -0.073917
C8    C     C_1   0.602165 0.797678 0.616464 -0.019232
C9    C     C_1   0.198710 0.808235 0.614714 -0.019231
C10   C     C_1   0.195360 0.398376 0.616489 -0.019251
C11   C     C_R   0.064847 0.150336 0.095842 0.575124
C12   C     C_R   0.212640 0.446948 0.568961 0.542606
C13   C     C_R   0.778919 0.885142 0.088828 0.539023
C14   C     C_R   0.116646 0.894014 0.088418 0.555316
C15   C     C_R   0.107265 0.220279 0.950744 0.562067
C16   C     C_R   0.779682 0.886808 0.950770 0.547363
C17   C     C_R   0.089924 0.931152 0.943554 0.567460
C18   C     C_R   0.565820 0.856065 0.354032 -0.166685
C19   C     C_R   0.103627 0.723452 0.361417 -0.170924
C20   C     C_R   0.269679 0.374608 0.360737 -0.169730
C21   C     C_R   0.600812 0.880027 0.306108 -0.006838
C22   C     C_R   0.087276 0.735308 0.312076 -0.005887
C23   C     C_R   0.553125 0.765744 0.568906 0.542061
C24   C     C_R   0.248843 0.324659 0.314758 0.001550
C25   C     C_R   0.654584 0.905817 0.206835 0.008171
C26   C     C_R   0.070886 0.754267 0.210544 0.004663
C27   C     C_R   0.210039 0.246298 0.217959 0.017269
C28   C     C_R   0.231553 0.788523 0.432226 0.566961
C29   C     C_R   0.210940 0.443335 0.431750 0.570064
C30   C     C_R   0.553985 0.766839 0.431639 0.577600
C31   C     C_R   0.575826 0.931536 0.224532 -0.134009
C32   C     C_R   0.999471 0.654679 0.234110 -0.138086
C33   C     C_R   0.317958 0.298404 0.237361 -0.133645
C34   C     C_3   0.693771 0.752558 0.787009 -0.223266
C35   C     C_R   0.549128 0.918853 0.274041 -0.132191
C36   C     C_R   0.008439 0.644896 0.284540 -0.132817
C37   C     C_R   0.337247 0.337316 0.285447 -0.128464
C38   C     C_R   0.676380 0.910576 0.156798 -0.156611
C39   C     C_R   0.061645 0.766513 0.160148 -0.152037
C40   C     C_R   0.191457 0.216184 0.168562 -0.129295
C41   C     C_R   0.751590 0.879727 0.139973 0.001500
C42   C     C_R   0.135233 0.866774 0.137670 -0.006768
C43   C     C_R   0.084468 0.172547 0.148425 -0.008328
C44   C     C_R   0.697641 0.792667 0.370278 0.078447
C45   C     C_3   0.234143 0.969893 0.779799 -0.226067
C46   C     C_R   0.244552 0.918507 0.367155 0.084454
C47   C     C_R   0.071286 0.302815 0.372946 0.087524
C48   C     C_R   0.736176 0.819160 0.321800 0.019604
C49   C     C_R   0.233719 0.930105 0.316786 0.014670
C50   C     C_R   0.049203 0.253015 0.326069 0.017664
C51   C     C_R   0.683953 0.858779 0.289401 0.040943
C52   C     C_R   0.156561 0.837112 0.289151 0.038053
C53   C     C_R   0.139028 0.267234 0.296560 0.043223
C54   C     C_R   0.821711 0.802586 0.304178 -0.131673
C55   C     C_R   0.302955 0.030422 0.292893 -0.136198
C56   C     C_3   0.052940 0.299198 0.786293 -0.223815
C57   C     C_R   0.940297 0.194142 0.306931 -0.135700
C58   C     C_R   0.849325 0.817486 0.254881 -0.132044
C59   C     C_R   0.300322 0.036660 0.242373 -0.136038
C60   C     C_R   0.921811 0.157630 0.258492 -0.129020
C61   C     C_R   0.791680 0.848051 0.222454 0.005378
C62   C     C_R   0.224806 0.944806 0.215148 0.008542
C63   C     C_R   0.011126 0.176959 0.228435 0.016702
C64   C     C_3   0.545639 0.817438 0.739691 0.005570
C65   C     C_3   0.159713 0.747737 0.740367 0.004327
C66   C     C_3   0.267172 0.454283 0.740369 0.007057
C67   C     C_3   0.675715 0.741989 0.730870 -0.238794
C68   C     C_R   0.710958 0.872109 0.239665 0.058334
C69   C     C_R   0.150522 0.845333 0.238297 0.059394
C70   C     C_R   0.119797 0.228483 0.247895 0.067018
C71   C     C_R   0.811480 0.852075 0.172769 -0.127972
C72   C     C_R   0.220221 0.952784 0.165045 -0.130311
C73   C     C_R   0.994286 0.149885 0.178727 -0.138386
C74   C     C_R   0.609828 0.807882 0.385239 0.042461
C75   C     C_R   0.187980 0.812216 0.387866 0.032089
C76   C     C_R   0.182738 0.369512 0.388803 0.033309
C77   C     C_3   0.753823 0.945584 0.723955 -0.211400
C78   C     C_3   0.251040 0.952085 0.725196 -0.238327
C79   C     C_3   0.045365 0.836706 0.713779 -0.209746
C80   C     C_3   0.193763 0.248841 0.723533 -0.210729
C81   C     C_3   0.773240 0.958261 0.780110 -0.217765
C82   C     C_3   0.026656 0.851750 0.768567 -0.219243
C83   C     C_3   0.188262 0.229928 0.779628 -0.219018
C84   C     C_1   0.735359 0.873007 0.902370 -0.024602
C85   C     C_1   0.100684 0.906094 0.893727 -0.021661
C86   C     C_1   0.136655 0.263295 0.902184 -0.027548
C87   C     C_3   0.650985 0.831815 0.711719 0.079791
C88   C     C_3   0.156873 0.837882 0.707187 0.078948
C89   C     C_3   0.062246 0.321146 0.730414 -0.238162
C90   C     C_3   0.178824 0.349018 0.711671 0.080332
C91   C     C_3   0.568959 0.833598 0.795734 -0.169050
C92   C     C_3   0.139354 0.765472 0.794793 -0.166052
C93   C     C_3   0.258156 0.431023 0.796366 -0.169112
C94   C     C_3   0.686250 0.852314 0.807067 0.049414
C95   C     C_3   0.127367 0.869244 0.799979 0.048770
C96   C     C_3   0.163059 0.312331 0.806880 0.050124
Cr1   Cr    Cr6+3 0.164410 0.584450 0.499910 1.029425
Cr2   Cr    Cr6+3 0.415550 0.579960 0.499910 1.028097
Cr3   Cr    Cr6+3 0.420040 0.835590 0.499910 1.027983
Cr4   Cr    Cr6+3 0.155170 0.075460 0.019960 1.008993
Cr5   Cr    Cr6+3 0.924540 0.079710 0.019960 1.011438
Cr6   Cr    Cr6+3 0.920290 0.844830 0.019960 1.014045
H1    H     H_    0.562478 0.905102 0.809520 0.137724
H2    H     H_    0.776422 0.762670 0.795885 0.113476
H3    H     H_    0.228381 0.045857 0.783640 0.111945
H4    H     H_    0.983176 0.214249 0.793529 0.114751
H5    H     H_    0.633840 0.935692 0.131039 0.104837
H6    H     H_    0.996098 0.700298 0.138926 0.114564
H7    H     H_    0.261017 0.231386 0.145434 0.121433
H8    H     H_    0.497983 0.867789 0.366063 0.138531
H9    H     H_    0.057018 0.642479 0.377952 0.135959
H10   H     H_    0.354997 0.423863 0.373215 0.134352
H11   H     H_    0.532924 0.958573 0.199967 0.114793
H12   H     H_    0.063238 0.692130 0.809061 0.140676
H13   H     H_    0.937573 0.584305 0.213524 0.113272
H14   H     H_    0.387907 0.312162 0.214876 0.100416
H15   H     H_    0.485443 0.935863 0.286972 0.119579
H16   H     H_    0.954605 0.566327 0.301938 0.110829
H17   H     H_    0.421849 0.380586 0.299192 0.109358
H18   H     H_    0.873965 0.833575 0.159448 0.132159
H19   H     H_    0.278142 0.030618 0.147962 0.126619
H20   H     H_    0.911435 0.113854 0.163211 0.121665
H21   H     H_    0.913386 0.801768 0.241809 0.130657
H22   H     H_    0.356956 0.113755 0.224554 0.104219
H23   H     H_    0.337777 0.441920 0.811162 0.136465
H24   H     H_    0.837803 0.117202 0.244131 0.123358
H25   H     H_    0.865654 0.775097 0.327754 0.119564
H26   H     H_    0.362493 0.103639 0.312532 0.110844
H27   H     H_    0.868849 0.179472 0.328388 0.112612
H28   H     H_    0.828866 0.952622 0.705878 0.107550
H29   H     H_    0.047076 0.905010 0.692265 0.109682
H30   H     H_    0.126696 0.173400 0.705390 0.107797
H31   H     H_    0.743852 0.014233 0.709484 0.110936
H32   H     H_    0.974333 0.759012 0.699367 0.110108
H33   H     H_    0.273519 0.260735 0.708858 0.110642
H34   H     H_    0.476705 0.731181 0.733738 0.163929
H35   H     H_    0.767680 0.030710 0.793207 0.111022
H36   H     H_    0.950168 0.777172 0.781488 0.108412
H37   H     H_    0.268795 0.240138 0.792697 0.109864
H38   H     H_    0.858770 0.975048 0.788501 0.107229
H39   H     H_    0.013464 0.923505 0.772760 0.104259
H40   H     H_    0.122405 0.143702 0.787809 0.107363
H41   H     H_    0.605707 0.658283 0.721772 0.138338
H42   H     H_    0.333412 0.957947 0.720566 0.134785
H43   H     H_    0.047193 0.390606 0.722495 0.131032
H44   H     H_    0.751244 0.750237 0.712751 0.113327
H45   H     H_    0.244543 0.758138 0.737972 0.157254
H46   H     H_    0.252199 0.019164 0.702895 0.115901
H47   H     H_    0.996376 0.247005 0.711023 0.114724
H48   H     H_    0.630010 0.675165 0.804892 0.124522
H49   H     H_    0.307762 0.982798 0.801375 0.123389
H50   H     H_    0.032980 0.357811 0.805064 0.125173
H51   H     H_    0.482287 0.873810 0.685436 0.240778
H52   H     H_    0.569343 0.973532 0.724863 0.236439
H53   H     H_    0.099829 0.620270 0.689705 0.238563
H54   H     H_    0.999552 0.620852 0.724670 0.237073
H55   H     H_    0.389305 0.517702 0.687069 0.239210
H56   H     H_    0.247991 0.521709 0.734081 0.150233
H57   H     H_    0.403537 0.434070 0.727603 0.236510
H58   H     H_    0.735106 0.675189 0.389872 0.229885
H59   H     H_    0.828987 0.805610 0.408510 0.226747
H60   H     H_    0.291772 0.071291 0.394087 0.227170
H61   H     H_    0.398151 0.045574 0.384797 0.226955
H62   H     H_    0.929925 0.204330 0.410690 0.226153
H63   H     H_    0.937109 0.320101 0.386661 0.225790
H64   H     H_    0.505098 0.759252 0.815459 0.100560
H65   H     H_    0.210218 0.775129 0.817578 0.102703
H66   H     H_    0.242064 0.491692 0.815749 0.099894
N1    N     N_3   0.506336 0.891152 0.722129 -0.683097
N2    N     N_3   0.080493 0.634141 0.725008 -0.676615
N3    N     N_3   0.381778 0.495105 0.723900 -0.689039
N4    N     N_3   0.744320 0.748643 0.404238 -0.616321
N5    N     N_3   0.316377 0.012110 0.397147 -0.603844
N6    N     N_3   0.982157 0.288625 0.404259 -0.603720
O1    O     O_R   0.137150 0.468200 0.553200 -0.506188
O2    O     O_R   0.140110 0.470540 0.446010 -0.475440
O3    O     O_R   0.529460 0.669570 0.446010 -0.484317
O4    O     O_R   0.330430 0.859890 0.446010 -0.481556
O5    O     O_R   0.176710 0.690910 0.450560 -0.518132
O6    O     O_R   0.309090 0.485800 0.450560 -0.516869
O7    O     O_R   0.514200 0.823290 0.450560 -0.519516
O8    O     O_3   0.333333 0.666667 0.499990 -0.277934
O9    O     O_R   0.176750 0.985260 0.074180 -0.529256
O10   O     O_R   0.014740 0.191490 0.074180 -0.497071
O11   O     O_R   0.808510 0.823250 0.074180 -0.512529
O12   O     O_R   0.531800 0.668950 0.553200 -0.506184
O13   O     O_R   0.146100 0.172630 0.068980 -0.494683
O14   O     O_R   0.827370 0.973470 0.068980 -0.518613
O15   O     O_R   0.026530 0.853900 0.068980 -0.493165
O16   O     O_3   0.000000 0.000000 0.020040 -0.267679
O17   O     O_R   0.148270 0.170520 0.969620 -0.511262
O18   O     O_R   0.829480 0.977750 0.969620 -0.498595
O19   O     O_R   0.022250 0.851730 0.969620 -0.485141
O20   O     O_R   0.331050 0.862850 0.553200 -0.505984
O21   O     O_R   0.179100 0.982980 0.967000 -0.503117
O22   O     O_R   0.017020 0.196120 0.967000 -0.500636
O23   O     O_R   0.803880 0.820900 0.967000 -0.513694
O24   O     O_R   0.173970 0.688730 0.549930 -0.501861
O25   O     O_R   0.311270 0.485240 0.549930 -0.500971
O26   O     O_R   0.514760 0.826030 0.549930 -0.499815

loop_
_geom_bond_atom_site_label_1
_geom_bond_atom_site_label_2
_ccdc_geom_bond_type
C25   C31   A    
C65   C92   S    
C64   H34   S    
C26   C32   A    
C80   H30   S    
C55   C59   A    
C72   H19   S    
C81   H38   S    
C18   C21   A    
C91   H64   S    
C17   O19   A    
C1    O24   A    
C61   C68   A    
C21   C51   A    
Cr5   O18   S    
C67   H41   S    
Cr6   O15   S    
C6    C9    T    
C13   C41   S    
C14   O9    A    
C34   H48   S    
Cr1   O8    S    
C66   C90   S    
H60   N5    S    
C27   C33   A    
C81   H35   S    
C34   H2    S    
Cr3   O20   S    
C58   H21   S    
C80   H33   S    
H57   N3    S    
C71   H18   S    
C60   C63   A    
C11   O13   A    
C32   C36   A    
C57   H27   S    
C51   C68   A    
C60   H24   S    
C47   C76   A    
C80   C83   S    
C30   C74   S    
C26   C39   A    
Cr1   O5    S    
C4    C86   T    
C92   H65   S    
C16   C84   S    
C8    C23   S    
C6    C88   S    
C20   C76   A    
C7    C10   T    
C38   H5    S    
Cr4   O9    S    
C39   C42   A    
C79   C88   S    
Cr3   O8    S    
C52   C69   A    
C16   O18   A    
C4    C96   S    
H59   N4    S    
C2    C84   T    
C43   C73   A    
C30   O3    A    
C40   C43   A    
C20   C24   A    
C93   H66   S    
C33   H14   S    
C29   O6    A    
Cr3   O26   S    
H62   N6    S    
C45   C78   S    
C56   H50   S    
Cr5   O14   S    
C36   H16   S    
C64   C87   S    
Cr5   O22   S    
C78   H46   S    
C41   C71   A    
C61   C71   A    
C58   C61   A    
C89   H47   S    
C18   C74   A    
C13   O14   A    
C20   H10   S    
C14   O15   A    
C25   C68   A    
C77   H31   S    
C82   H39   S    
C53   C70   A    
C83   H37   S    
C46   C75   A    
C45   H3    S    
C47   C50   A    
C79   C82   S    
C48   C51   A    
C39   H6    S    
C77   C87   S    
C50   C53   A    
C13   O11   A    
Cr6   O11   S    
C18   H8    S    
C66   N3    S    
C2    C94   S    
C19   C22   A    
C1    C9    S    
Cr3   O4    S    
Cr5   O16   S    
Cr6   O23   S    
Cr1   O1    S    
C29   C76   S    
C57   C60   A    
C63   C73   A    
H63   N6    S    
C49   C55   A    
C7    C90   S    
C23   O26   A    
C92   C95   S    
C33   C37   A    
C62   C69   A    
C45   H49   S    
Cr2   O8    S    
C89   H43   S    
C44   N4    S    
C78   H42   S    
C25   C38   A    
C23   O12   A    
C37   H17   S    
C63   C70   A    
C77   C81   S    
C27   C40   A    
C49   C52   A    
C79   H29   S    
Cr4   O13   S    
C67   H44   S    
C42   C72   A    
C24   C37   A    
H58   N4    S    
C46   N5    S    
C62   C72   A    
Cr2   O3    S    
C11   C43   S    
Cr5   O10   S    
C56   H4    S    
C48   C54   A    
C27   C70   A    
C10   C12   S    
C38   C41   A    
C12   O1    A    
C15   O22   A    
Cr2   O25   S    
C56   C89   S    
C64   N1    S    
C93   C96   S    
C15   C86   S    
C30   O7    A    
C17   C85   S    
C3    C85   T    
C35   H15   S    
Cr4   O17   S    
C65   H45   S    
C29   O2    A    
Cr2   O6    S    
H61   N5    S    
Cr6   O19   S    
C66   H56   S    
C65   C88   S    
C22   C52   A    
C54   C58   A    
Cr4   O21   S    
C78   C88   S    
C59   H22   S    
C56   C96   S    
C79   H32   S    
C15   O17   A    
C59   C62   A    
C82   C95   S    
C66   C93   S    
C50   C57   A    
Cr1   O24   S    
Cr4   O16   S    
C11   O10   A    
C34   C94   S    
C91   H1    S    
C44   C74   A    
C34   C67   S    
C83   H40   S    
C40   H7    S    
C21   C35   A    
C19   H9    S    
C22   C36   A    
C54   H25   S    
C67   C87   S    
C14   C42   S    
C65   N2    S    
C19   C75   A    
C1    O20   A    
C24   C53   A    
Cr2   O12   S    
H55   N3    S    
C91   C94   S    
C81   C94   S    
H53   N2    S    
C28   O4    A    
C83   C96   S    
H54   N2    S    
Cr6   O16   S    
C12   O25   A    
C31   C35   A    
C77   H28   S    
C32   H13   S    
C80   C90   S    
C28   O5    A    
C93   H23   S    
Cr3   O7    S    
C47   N6    S    
C17   O21   A    
C5    C87   S    
C46   C49   A    
C55   H26   S    
H52   N1    S    
C82   H36   S    
C73   H20   S    
H51   N1    S    
Cr1   O2    S    
C26   C69   A    
C5    C8    T    
C3    C95   S    
C64   C91   S    
C89   C90   S    
C28   C75   S    
C92   H12   S    
C31   H11   S    
C16   O23   A    
C44   C48   A    
C45   C95   S    
