data_mof_unit_22246.cif
_audit_creation_date              2012-12-10T18:36:55-0500
_audit_creation_method            fapswitch 2.2
_symmetry_space_group_name_H-M    P1
_symmetry_Int_Tables_number       1
_space_group_crystal_system       triclinic
_cell_length_a                    13.860083
_cell_length_b                    13.903496
_cell_length_c                    15.125999
_cell_angle_alpha                 89.941638
_cell_angle_beta                  89.856351
_cell_angle_gamma                 84.712513
_cell_volume                      2902.42149475

loop_
_atom_site_label
_atom_site_type_symbol
_atom_type_description
_atom_site_fract_x
_atom_site_fract_y
_atom_site_fract_z
_atom_type_partial_charge
C1    C     C_R   0.499880 0.504045 0.329935 0.823423
C2    C     C_R   0.499980 0.499271 0.669747 0.828964
C3    C     C_R   0.418407 0.553853 0.095006 -0.218498
C4    C     C_R   0.548017 0.433660 0.907530 -0.204753
C5    C     C_R   0.501938 0.518766 0.048008 0.006241
C6    C     C_R   0.500620 0.514252 0.950484 -0.000276
C7    C     C_R   0.099818 0.570890 0.545339 -0.086249
C8    C     C_R   0.888646 0.518983 0.417721 -0.087579
C9    C     C_R   0.202308 0.568113 0.546338 0.036681
C10   C     C_R   0.786887 0.521704 0.423440 0.042372
C11   C     C_R   0.216383 0.431735 0.452823 0.084344
C12   C     C_R   0.795223 0.476786 0.573716 0.078162
C13   C     C_R   0.115077 0.430560 0.450437 -0.312877
C14   C     C_R   0.896902 0.476184 0.572325 -0.275324
C15   C     C_R   0.054559 0.501202 0.495323 0.074986
C16   C     C_R   0.945840 0.497424 0.494083 0.074833
C17   C     C_R   0.515656 0.317134 0.498212 0.833885
C18   C     C_R   0.484259 0.683032 0.499826 0.823460
C19   C     C_1   0.474583 0.785964 0.499656 -0.175091
C20   C     C_1   0.524958 0.214712 0.491136 -0.167846
C21   C     C_2   0.460920 0.976600 0.499657 -0.034144
C22   C     C_2   0.538851 0.024642 0.478394 -0.032465
C23   C     C_1   0.531885 0.128411 0.484725 -0.050328
C24   C     C_1   0.467468 0.872672 0.499506 -0.047824
C25   C     C_R   0.586292 0.486220 0.095004 0.612458
C26   C     C_R   0.452406 0.588648 0.899639 0.615961
C27   C     C_R   0.584255 0.480954 0.186580 -0.278945
C28   C     C_R   0.449894 0.580617 0.808030 -0.280320
C29   C     C_R   0.500148 0.513057 0.233359 -0.169016
C30   C     C_R   0.499488 0.501376 0.765699 -0.147369
C31   C     C_R   0.418680 0.555691 0.187232 -0.035026
C32   C     C_R   0.550884 0.428154 0.815552 -0.036746
Cu1   Cu    Cu3+1 0.596430 0.500000 0.499990 0.952547
Cu2   Cu    Cu3+1 0.403570 0.500000 0.500010 0.947270
H1    H     H_    0.649022 0.451958 0.220972 0.181933
H2    H     H_    0.412254 0.638262 0.769643 0.164367
H3    H     H_    0.353166 0.580939 0.060424 0.200627
H4    H     H_    0.583076 0.374291 0.945507 0.199907
H5    H     H_    0.237104 0.621414 0.583831 0.129118
H6    H     H_    0.744502 0.541274 0.365285 0.142013
H7    H     H_    0.261286 0.377513 0.416550 0.129937
H8    H     H_    0.759983 0.458869 0.634453 0.138729
H9    H     H_    0.084329 0.373584 0.414532 0.138661
H10   H     H_    0.937359 0.459132 0.632367 0.143820
N1    N     N_R   0.258690 0.500000 0.500020 -0.171747
N2    N     N_R   0.741310 0.500000 0.499980 -0.178642
O1    O     O_R   0.581430 0.500010 0.371450 -0.604211
O2    O     O_R   0.418570 0.499990 0.628550 -0.586849
O3    O     O_R   0.418560 0.500010 0.371460 -0.571364
O4    O     O_R   0.581440 0.499990 0.628540 -0.582268
O5    O     O_R   0.592950 0.362150 0.500010 -0.564257
O6    O     O_R   0.407050 0.637850 0.499990 -0.578257
O7    O     O_R   0.430080 0.362150 0.500020 -0.586164
O8    O     O_R   0.569920 0.637850 0.499980 -0.569392
C33   C     C_R   0.633299 0.976085 0.447471 0.145732
C34   C     C_R   0.720283 0.003559 0.483173 -0.145235
C35   C     C_R   0.809649 0.963849 0.450691 -0.157301
C36   C     C_R   0.813291 0.896149 0.382424 -0.126076
C37   C     C_R   0.727492 0.868186 0.346295 -0.135770
C38   C     C_R   0.637832 0.908484 0.377987 -0.123917
H11   H     H_    0.718889 0.056341 0.535770 0.121703
H12   H     H_    0.876159 0.985676 0.478440 0.127134
H13   H     H_    0.882693 0.866158 0.357100 0.116092
H14   H     H_    0.730442 0.816307 0.292823 0.132497
H15   H     H_    0.572271 0.888485 0.346959 0.122640
C39   C     C_R   0.366948 0.027789 0.527446 0.148256
C40   C     C_R   0.284154 0.022332 0.475065 -0.144245
C41   C     C_R   0.195849 0.071762 0.500043 -0.146154
C42   C     C_R   0.189582 0.126711 0.577519 -0.108817
C43   C     C_R   0.271470 0.131805 0.630446 -0.127971
C44   C     C_R   0.359795 0.082215 0.605843 -0.132901
H16   H     H_    0.288369 0.981110 0.414336 0.114294
H17   H     H_    0.132376 0.067803 0.459132 0.124569
H18   H     H_    0.121276 0.165226 0.596580 0.122597
H19   H     H_    0.266518 0.174143 0.690567 0.127893
H20   H     H_    0.422515 0.086331 0.647663 0.117577
F1    F     F_    0.671256 0.460274 0.052736 -0.682997
F2    F     F_    0.410716 0.670593 0.937729 -0.682119
C45   C     C_R   0.339103 0.612336 0.234130 0.149405
C46   C     C_R   0.252131 0.572341 0.252704 -0.125743
C47   C     C_R   0.182843 0.622227 0.307035 -0.111160
C48   C     C_R   0.198455 0.712824 0.341023 -0.108493
C49   C     C_R   0.284300 0.753652 0.321346 -0.124718
C50   C     C_R   0.354781 0.703416 0.268527 -0.125692
H21   H     H_    0.239913 0.501224 0.228435 0.117236
H22   H     H_    0.118077 0.589628 0.324679 0.163000
H23   H     H_    0.144567 0.750714 0.383400 0.119645
H24   H     H_    0.297108 0.823279 0.348320 0.119671
H25   H     H_    0.422391 0.734427 0.255932 0.118923
C51   C     C_R   0.609515 0.346073 0.774186 0.128533
C52   C     C_R   0.564977 0.272316 0.731515 -0.156715
C53   C     C_R   0.621563 0.192224 0.697482 -0.132633
C54   C     C_R   0.722492 0.186356 0.704244 -0.097744
C55   C     C_R   0.767149 0.260052 0.745911 -0.151419
C56   C     C_R   0.710890 0.339257 0.781564 -0.133855
H26   H     H_    0.486805 0.275985 0.726131 0.117133
H27   H     H_    0.587332 0.134276 0.666397 0.125464
H28   H     H_    0.766128 0.124391 0.677880 0.113054
H29   H     H_    0.845293 0.255381 0.751323 0.127509
H30   H     H_    0.746206 0.395413 0.814743 0.149474
C57   C     C_R   0.042662 0.645915 0.598056 0.093400
C58   C     C_R   0.968476 0.707202 0.558833 -0.121801
C59   C     C_R   0.913180 0.775724 0.609825 -0.138653
C60   C     C_R   0.932572 0.784945 0.699837 -0.109877
C61   C     C_R   0.007251 0.725487 0.739098 -0.114693
C62   C     C_R   0.062162 0.656228 0.688541 -0.161986
H31   H     H_    0.953489 0.701996 0.488983 0.119295
H32   H     H_    0.855141 0.821574 0.579682 0.145701
H33   H     H_    0.889762 0.838183 0.739135 0.127587
H34   H     H_    0.022271 0.732697 0.808842 0.134341
H35   H     H_    0.119027 0.609848 0.720159 0.126268
C63   C     C_R   0.930426 0.542097 0.331369 0.087785
C64   C     C_R   0.919966 0.637486 0.299983 -0.192718
C65   C     C_R   0.952620 0.659114 0.215369 -0.124521
C66   C     C_R   0.994792 0.585357 0.161164 -0.082646
C67   C     C_R   0.003421 0.489833 0.191241 -0.134144
C68   C     C_R   0.970424 0.468005 0.275740 -0.143299
H36   H     H_    0.885783 0.694598 0.340828 0.119704
H37   H     H_    0.944951 0.732931 0.191778 0.130350
H38   H     H_    0.020188 0.602112 0.095712 0.128010
H39   H     H_    0.034871 0.432608 0.148785 0.130428
H40   H     H_    0.974415 0.393415 0.297027 0.122240

loop_
_geom_bond_atom_site_label_1
_geom_bond_atom_site_label_2
_ccdc_geom_bond_type
C61   H34   S    
C9    N1    A    
C57   C58   A    
C21   C39   S    
C27   C29   A    
C13   H9    S    
C33   C34   A    
C17   O5    A    
C47   C48   A    
C35   C36   A    
C18   O6    A    
C51   C56   A    
C6    C26   A    
C34   C35   A    
C37   H14   S    
C54   C55   A    
C25   F1    S    
C40   H16   S    
C8    C63   S    
C45   C50   A    
C48   H23   S    
C9    H5    S    
C17   C20   S    
C67   C68   A    
C10   H6    S    
C18   C19   S    
C63   C64   A    
C12   H8    S    
C2    O4    A    
C52   H26   S    
C32   C51   S    
C49   C50   A    
C41   C42   A    
C10   N2    A    
C11   H7    S    
C43   C44   A    
C47   H22   S    
C41   H17   S    
C7    C15   A    
C49   H24   S    
C37   C38   A    
C8    C16   A    
C21   C22   D    
Cu1   N2    S    
C58   C59   A    
C60   C61   A    
C53   H27   S    
C65   C66   A    
C62   H35   S    
C67   H39   S    
C40   C41   A    
C58   H31   S    
C12   N2    A    
C52   C53   A    
C56   H30   S    
C1    O1    A    
C27   H1    S    
C36   C37   A    
C45   C46   A    
C68   H40   S    
C46   H21   S    
C39   C44   A    
C20   C23   T    
C1    C29   S    
Cu1   Cu2   S    
C42   H18   S    
C34   H11   S    
Cu2   N1    S    
C26   F2    S    
C3    C31   A    
C3    H3    S    
C4    C32   A    
C5    C25   A    
C4    C6    A    
C4    H4    S    
C38   H15   S    
C66   H38   S    
C55   C56   A    
C13   C15   A    
C25   C27   A    
Cu1   O1    S    
C14   C16   A    
C11   N1    A    
Cu2   O2    S    
C50   H25   S    
C35   H12   S    
C17   O7    A    
C44   H20   S    
C57   C62   A    
C14   H10   S    
C64   C65   A    
Cu1   O8    S    
C7    C9    A    
Cu2   O3    S    
C22   C23   S    
Cu2   O6    S    
C36   H13   S    
C12   C14   A    
C46   C47   A    
C3    C5    A    
C31   C45   S    
C22   C33   S    
Cu1   O5    S    
C61   C62   A    
C26   C28   A    
C63   C68   A    
C2    C30   S    
C2    O2    A    
C28   C30   A    
C19   C24   T    
Cu1   O4    S    
C29   C31   A    
C30   C32   A    
C11   C13   A    
C51   C52   A    
C5    C6    S    
C65   H37   S    
C55   H29   S    
C53   C54   A    
C39   C40   A    
C42   C43   A    
C18   O8    A    
C64   H36   S    
C28   H2    S    
Cu2   O7    S    
C8    C10   A    
C48   C49   A    
C7    C57   S    
C21   C24   S    
C59   C60   A    
C43   H19   S    
C60   H33   S    
C59   H32   S    
C66   C67   A    
C33   C38   A    
C1    O3    A    
C54   H28   S    
C15   C16   S    
