data_mof_unit_47355.cif
_audit_creation_date              2012-12-10T17:22:55-0500
_audit_creation_method            fapswitch 2.2
_symmetry_space_group_name_H-M    P1
_symmetry_Int_Tables_number       1
_space_group_crystal_system       triclinic
_cell_length_a                    10.373509
_cell_length_b                    10.511109
_cell_length_c                    10.718009
_cell_angle_alpha                 93.491511
_cell_angle_beta                  96.558534
_cell_angle_gamma                 81.588256
_cell_volume                      1147.36086224

loop_
_atom_site_label
_atom_site_type_symbol
_atom_type_description
_atom_site_fract_x
_atom_site_fract_y
_atom_site_fract_z
_atom_type_partial_charge
C1    C     C_R   0.444182 0.513112 0.267774 0.915446
C2    C     C_3   0.496149 0.124341 0.493532 -0.124890
C3    C     C_3   0.618804 0.948104 0.529946 0.491521
C4    C     C_3   0.376019 0.054666 0.464979 0.488891
C5    C     C_2   0.413371 0.537598 0.135589 -0.372733
C6    C     C_2   0.583873 0.499580 0.867722 -0.383594
C7    C     C_2   0.512125 0.550961 0.070105 -0.160270
C8    C     C_2   0.491289 0.558391 0.936477 -0.157904
C9    C     C_2   0.066588 0.505147 0.474284 0.285166
C10   C     C_2   0.927140 0.516703 0.508512 0.294679
C11   C     C_3   0.406832 0.894356 0.256280 -0.393638
C12   C     C_R   0.555362 0.494070 0.732700 0.911086
C13   C     C_3   0.372803 0.995119 0.156012 -0.318000
C14   C     C_3   0.329698 0.933166 0.028539 -0.897008
C15   C     C_3   0.588782 0.106197 0.739129 -0.393114
C16   C     C_3   0.620668 0.004574 0.838755 -0.320067
C17   C     C_3   0.665949 0.064642 0.966471 -0.892400
C18   C     C_3   0.887661 0.610317 0.616204 -0.321584
C19   C     C_3   0.968044 0.579763 0.744838 -0.323992
C20   C     C_3   0.884291 0.554580 0.845216 -0.904798
C21   C     C_3   0.105176 0.454066 0.345150 -0.346476
C22   C     C_3   0.009558 0.399205 0.242421 -0.368578
C23   C     C_R   0.498090 0.258758 0.494424 0.894408
C24   C     C_3   0.069200 0.380596 0.117456 -0.935166
C25   C     C_R   0.500887 0.741814 0.503353 0.881228
C26   C     C_3   0.576967 0.025039 0.411226 -0.333010
C27   C     C_3   0.417918 0.976989 0.583634 -0.325833
C28   C     C_3   0.455006 0.954422 0.383396 -0.001765
C29   C     C_3   0.539809 0.047497 0.611520 0.005225
C30   C     C_3   0.499703 0.877286 0.501641 -0.122191
H1    H     H_    0.642127 0.047412 0.342683 0.163245
H2    H     H_    0.292299 0.069597 0.183566 0.245374
H3    H     H_    0.459781 0.042982 0.147355 0.221903
H4    H     H_    0.485391 0.818573 0.227010 0.209837
H5    H     H_    0.319092 0.848399 0.267152 0.204844
H6    H     H_    0.756978 0.107184 0.961234 0.265047
H7    H     H_    0.588697 0.140949 0.997161 0.263052
H8    H     H_    0.686255 0.989482 0.037332 0.252031
H9    H     H_    0.532226 0.959046 0.847439 0.220382
H10   H     H_    0.699323 0.928373 0.810520 0.250072
H11   H     H_    0.677673 0.150532 0.728820 0.206542
H12   H     H_    0.352894 0.954623 0.652302 0.166586
H13   H     H_    0.511409 0.183099 0.768720 0.208555
H14   H     H_    0.800221 0.962644 0.573302 0.339822
H15   H     H_    0.193210 0.047158 0.419046 0.338891
H16   H     H_    0.795543 0.627820 0.845391 0.268107
H17   H     H_    0.858694 0.455812 0.828323 0.278825
H18   H     H_    0.940437 0.561213 0.938919 0.248871
H19   H     H_    0.044821 0.494871 0.736957 0.235863
H20   H     H_    0.017557 0.663844 0.780216 0.242560
H21   H     H_    0.900530 0.707168 0.590649 0.255969
H22   H     H_    0.784197 0.619744 0.626979 0.262603
H23   H     H_    0.396487 0.603789 0.894583 0.184546
H24   H     H_    0.095146 0.472676 0.089475 0.257909
H25   H     H_    0.159327 0.308775 0.125756 0.272645
H26   H     H_    0.997816 0.345006 0.043097 0.262735
H27   H     H_    0.993566 0.301631 0.264285 0.289064
H28   H     H_    0.915463 0.465064 0.229329 0.228029
H29   H     H_    0.128661 0.540493 0.303123 0.217304
H30   H     H_    0.192215 0.379572 0.359292 0.265172
H31   H     H_    0.816866 0.279188 0.401762 0.368120
H32   H     H_    0.206001 0.698667 0.639322 0.372915
H33   H     H_    0.612988 0.544756 0.112990 0.192713
H34   H     H_    0.675228 0.450643 0.912198 0.157199
H35   H     H_    0.313088 0.543280 0.091742 0.153488
H36   H     H_    0.409096 0.858953 0.998356 0.263062
H37   H     H_    0.240543 0.887543 0.033871 0.264501
H38   H     H_    0.307020 0.007850 0.957259 0.253646
N1    N     N_2   0.157310 0.552180 0.551120 -0.009069
N2    N     N_2   0.842690 0.447820 0.448880 -0.008478
O1    O     O_R   0.568940 0.489500 0.307530 -0.618367
O2    O     O_3   0.249392 0.116454 0.430090 -0.762778
O3    O     O_3   0.890512 0.322306 0.441732 -0.711658
O4    O     O_3   0.125663 0.675174 0.590119 -0.746911
O5    O     O_R   0.431060 0.510500 0.692470 -0.615786
O6    O     O_R   0.348880 0.522990 0.340350 -0.645752
O7    O     O_R   0.651120 0.477010 0.659650 -0.618035
O8    O     O_R   0.610000 0.297210 0.483560 -0.631556
O9    O     O_R   0.390000 0.702790 0.516440 -0.624208
O10   O     O_R   0.389940 0.330700 0.516390 -0.589663
O11   O     O_R   0.610060 0.669300 0.483610 -0.619211
O12   O     O_3   0.746387 0.891493 0.565613 -0.806590
Zn1   Zn    Zn3+2 0.646930 0.477640 0.478080 0.941434
Zn2   Zn    Zn3+2 0.353070 0.522360 0.521920 0.943960

loop_
_geom_bond_atom_site_label_1
_geom_bond_atom_site_label_2
_ccdc_geom_bond_type
C27   C29   S    
C13   H2    S    
C19   C20   S    
C19   H20   S    
O10   Zn2   S    
O6    Zn2   S    
C22   H27   S    
C18   H22   S    
C7    C8    S    
C24   H25   S    
C1    O1    A    
C2    C29   S    
C1    C5    S    
C9    N1    D    
C21   H29   S    
H14   O12   S    
C6    C12   S    
O9    Zn2   S    
O5    Zn2   S    
O7    Zn1   S    
C24   H24   S    
C15   C16   S    
C18   C19   S    
C6    H34   S    
C3    C29   S    
O11   Zn1   S    
O8    Zn1   S    
C16   C17   S    
C14   H37   S    
C17   H6    S    
C23   O10   A    
C9    C10   S    
C26   H1    S    
C13   C14   S    
C27   C30   S    
C25   O11   A    
N2    O3    S    
C4    C28   S    
C18   H21   S    
C15   C29   S    
O1    Zn1   S    
C11   H4    S    
C15   H11   S    
C21   H30   S    
C5    H35   S    
C5    C7    D    
C6    C8    D    
H31   O3    S    
C3    C30   S    
C2    C4    S    
C13   H3    S    
C19   H19   S    
C12   O7    A    
C3    O12   S    
C14   H36   S    
N1    O4    S    
C2    C26   S    
C17   H7    S    
N2    Zn1   S    
C7    H33   S    
C20   H18   S    
C16   H10   S    
C10   N2    D    
C22   C24   S    
C4    O2    S    
C4    C27   S    
C25   C30   S    
C25   O9    A    
C1    O6    A    
C3    C26   S    
C8    H23   S    
C22   H28   S    
C24   H26   S    
C26   C28   S    
C11   H5    S    
C15   H13   S    
N1    Zn2   S    
C11   C13   S    
C27   H12   S    
C9    C21   S    
C11   C28   S    
C10   C18   S    
C28   C30   S    
C17   H8    S    
C23   O8    A    
C20   H17   S    
C16   H9    S    
C12   O5    A    
C2    C23   S    
C14   H38   S    
H32   O4    S    
C21   C22   S    
C20   H16   S    
H15   O2    S    
