data_mof_unit_18591.cif
_audit_creation_date              2012-12-11T14:56:43-0500
_audit_creation_method            fapswitch 2.2
_symmetry_space_group_name_H-M    P1
_symmetry_Int_Tables_number       1
_space_group_crystal_system       triclinic
_cell_length_a                    10.577766
_cell_length_b                    10.677218
_cell_length_c                    17.132202
_cell_angle_alpha                 80.051594
_cell_angle_beta                  90.211784
_cell_angle_gamma                 119.488177
_cell_volume                      1651.46520948

loop_
_atom_site_label
_atom_site_type_symbol
_atom_type_description
_atom_site_fract_x
_atom_site_fract_y
_atom_site_fract_z
_atom_type_partial_charge
C1    C     C_R   0.222941 0.854136 0.128855 0.553170
C2    C     C_1   0.650541 0.339744 0.706894 -0.016009
C3    C     C_R   0.626252 0.710177 0.807997 0.203019
C4    C     C_R   0.633383 0.268419 0.091362 0.577698
C5    C     C_R   0.606527 0.694221 0.728936 0.184534
C6    C     C_R   0.670639 0.820320 0.667391 0.054413
C7    C     C_R   0.758211 0.960973 0.684025 0.156195
C8    C     C_R   0.778316 0.975818 0.763706 -0.103662
C9    C     C_R   0.699194 0.851056 0.825103 -0.012539
C10   C     C_R   0.271869 0.997033 0.746420 -0.080801
C11   C     C_R   0.260052 0.983102 0.666950 -0.066849
C12   C     C_R   0.709580 0.251238 0.305342 0.216187
C13   C     C_R   0.204204 0.842810 0.647731 -0.028437
C14   C     C_R   0.207816 0.730388 0.702399 0.202738
C15   C     C_R   0.231998 0.746850 0.781174 -0.006706
C16   C     C_R   0.601886 0.881260 0.131003 0.561646
C17   C     C_R   0.257269 0.878644 0.805135 -0.077507
C18   C     C_R   0.683537 0.812718 0.358376 0.563531
C19   C     C_R   0.680691 0.383399 0.400226 0.584894
C20   C     C_R   0.103835 0.810543 0.359160 0.543643
C21   C     C_R   0.678366 0.798781 0.586518 0.625212
C22   C     C_R   0.678080 0.380397 0.624002 0.566547
C23   C     C_R   0.719029 0.246934 0.224578 0.217647
C24   C     C_R   0.110447 0.807606 0.581732 0.540270
C25   C     C_R   0.284051 0.900745 0.888005 0.539061
C26   C     C_R   0.636731 0.282524 0.860458 0.565229
C27   C     C_R   0.648993 0.866750 0.900015 0.580268
C28   C     C_R   0.552118 0.345095 0.201361 -0.091466
C29   C     C_R   0.550314 0.355444 0.280699 -0.194241
C30   C     C_R   0.634801 0.316295 0.331235 0.020558
C31   C     C_1   0.468612 0.393419 0.150557 0.248459
C32   C     C_1   0.296819 0.111884 0.605770 0.244681
C33   C     C_1   0.221062 0.621499 0.835997 0.338446
C34   C     C_R   0.640372 0.295503 0.172143 0.010863
C35   C     C_1   0.882022 0.117020 0.781778 0.244259
C36   C     C_1   0.283747 0.128493 0.767008 0.252016
C37   C     C_1   0.635462 0.869178 0.211040 -0.004853
C38   C     C_1   0.661908 0.853446 0.278695 -0.022007
C39   C     C_1   0.181207 0.825604 0.211460 -0.033773
C40   C     C_1   0.151777 0.820234 0.279865 -0.027324
C41   C     C_1   0.643110 0.317790 0.777471 -0.031625
Cr1   Cr    Cr6+3 0.402240 0.783890 0.019450 1.085492
Cr2   Cr    Cr6+3 0.382360 0.097900 0.991800 1.079171
Cr3   Cr    Cr6+3 0.715380 0.118170 0.988700 1.101972
Cr4   Cr    Cr6+3 0.936650 0.882420 0.465510 1.095969
Cr5   Cr    Cr6+3 0.605770 0.565620 0.493360 1.091661
Cr6   Cr    Cr6+3 0.921340 0.550490 0.496380 1.076230
H1    H     H_    0.491618 0.404805 0.301389 0.161618
H2    H     H_    0.221287 0.624551 0.624875 0.342880
H3    H     H_    0.883036 0.252376 0.340120 0.329900
H4    H     H_    0.842202 0.154683 0.238425 0.336593
H5    H     H_    0.468345 0.521524 0.861525 0.354767
H6    H     H_    0.521459 0.481767 0.754260 0.344618
H7    H     H_    0.866453 0.173135 0.639828 0.351544
N1    N     N_1   0.401482 0.431612 0.109879 -0.221808
N2    N     N_1   0.324709 0.213547 0.556880 -0.244181
N3    N     N_1   0.211311 0.520647 0.879513 -0.229372
N4    N     N_1   0.965400 0.229857 0.795827 -0.187131
N5    N     N_1   0.289861 0.231877 0.783382 -0.235095
O1    O     O_R   0.521780 0.757110 0.108900 -0.490038
O2    O     O_R   0.805020 0.410040 0.421340 -0.466640
O3    O     O_R   0.049240 0.685450 0.403290 -0.505958
O4    O     O_R   0.275160 0.783810 0.101120 -0.499873
O5    O     O_R   0.077520 0.903010 0.551800 -0.498255
O6    O     O_R   0.802980 0.872780 0.546830 -0.447265
O7    O     O_R   0.578090 0.681300 0.569920 -0.459641
O8    O     O_R   0.608530 0.436370 0.586530 -0.452873
O9    O     O_R   0.798770 0.401880 0.597100 -0.494948
O10   O     O_R   0.043450 0.677890 0.566230 -0.485127
O11   O     O_3   0.821250 0.666180 0.485090 -0.289123
O12   O     O_R   0.513330 0.228330 0.898660 -0.500200
O13   O     O_R   0.237900 0.972600 0.090980 -0.493333
O14   O     O_R   0.511190 0.220540 0.061620 -0.502059
O15   O     O_R   0.736920 0.257720 0.063840 -0.439091
O16   O     O_R   0.710450 0.984050 0.081720 -0.456371
O17   O     O_R   0.524090 0.765520 0.933110 -0.463439
O18   O     O_R   0.277300 0.791600 0.938160 -0.493589
O19   O     O_R   0.240210 0.981010 0.915190 -0.478444
O20   O     O_3   0.183193 0.601451 0.681372 -0.643069
O21   O     O_3   0.777894 0.198833 0.359323 -0.674994
O22   O     O_3   0.802516 0.194983 0.195296 -0.673693
O23   O     O_R   0.739230 0.266130 0.888050 -0.485614
O24   O     O_3   0.570170 0.590395 0.870298 -0.664689
O25   O     O_3   0.527935 0.557093 0.709815 -0.646468
O26   O     O_3   0.821949 0.079539 0.620709 -0.661113
O27   O     O_R   0.712580 0.991850 0.918770 -0.510533
O28   O     O_3   0.499990 0.999980 0.999980 -0.334087
O29   O     O_R   0.083770 0.911170 0.376030 -0.504557
O30   O     O_R   0.808770 0.880340 0.383890 -0.483652
O31   O     O_R   0.584340 0.689460 0.394160 -0.519640
O32   O     O_R   0.614320 0.443940 0.423590 -0.513837

loop_
_geom_bond_atom_site_label_1
_geom_bond_atom_site_label_2
_ccdc_geom_bond_type
Cr2   O14   S    
Cr2   O13   S    
C21   O7    A    
Cr3   O16   S    
C16   O16   A    
C36   N5    T    
Cr6   O3    S    
C7    C8    A    
Cr2   O19   S    
C12   C23   A    
C29   C30   A    
C35   N4    T    
C25   O18   A    
C28   C29   A    
Cr5   O7    S    
Cr3   O23   S    
C5    C6    A    
C20   C40   S    
C10   C17   A    
C12   O21   S    
C16   O1    A    
Cr6   O10   S    
C8    C9    A    
C2    C22   S    
Cr2   O12   S    
Cr3   O28   S    
Cr4   O30   S    
H4    O22   S    
C4    O15   A    
C16   C37   S    
C12   C30   A    
C28   C34   A    
C24   O5    A    
C13   C14   A    
C26   O12   A    
Cr3   O27   S    
C1    O4    A    
C24   O10   A    
C4    C34   S    
C1    O13   A    
C29   H1    S    
C25   O19   A    
C18   O31   A    
Cr4   O29   S    
Cr1   O1    S    
C39   C40   T    
C5    O25   S    
Cr5   O32   S    
C6    C21   S    
H2    O20   S    
C13   C24   S    
C8    C35   S    
C27   O27   A    
Cr6   O11   S    
C37   C38   T    
C3    C9    A    
C23   C34   A    
C14   O20   S    
Cr3   O15   S    
C22   O9    A    
C4    O14   A    
H5    O24   S    
C11   C32   S    
H6    O25   S    
C3    O24   S    
C27   O17   A    
Cr6   O9    S    
C9    C27   S    
C15   C17   A    
C33   N3    T    
C23   O22   S    
C21   O6    A    
Cr4   O11   S    
C18   O30   A    
C28   C31   S    
C3    C5    A    
H3    O21   S    
Cr6   O2    S    
H7    O26   S    
C6    C7    A    
Cr5   O31   S    
Cr4   O5    S    
Cr1   O17   S    
Cr2   O28   S    
C18   C38   S    
C17   C25   S    
Cr5   O8    S    
Cr4   O6    S    
C11   C13   A    
C7    O26   S    
C19   O2    A    
C20   O29   A    
C32   N2    T    
C20   O3    A    
C22   O8    A    
Cr5   O11   S    
C19   O32   A    
C10   C11   A    
C1    C39   S    
Cr1   O18   S    
C26   O23   A    
C14   C15   A    
C10   C36   S    
Cr1   O28   S    
C2    C41   T    
C31   N1    T    
C19   C30   S    
Cr1   O4    S    
C15   C33   S    
C26   C41   S    
