data_mof_unit_60423.cif
_audit_creation_date              2012-12-10T16:49:16-0500
_audit_creation_method            fapswitch 2.2
_symmetry_space_group_name_H-M    P1
_symmetry_Int_Tables_number       1
_space_group_crystal_system       triclinic
_cell_length_a                    18.968313
_cell_length_b                    18.936861
_cell_length_c                    18.912601
_cell_angle_alpha                 109.180917
_cell_angle_beta                  110.173666
_cell_angle_gamma                 109.317519
_cell_volume                      5212.47937824

loop_
_atom_site_label
_atom_site_type_symbol
_atom_type_description
_atom_site_fract_x
_atom_site_fract_y
_atom_site_fract_z
_atom_type_partial_charge
C1    C     C_R   0.615466 0.617309 0.497776 0.827447
C2    C     C_3   0.231173 0.440483 0.174929 0.390812
C3    C     C_3   0.223118 0.422089 0.245648 0.506509
C4    C     C_3   0.314432 0.499334 0.312954 -0.166631
C5    C     C_2   0.742040 0.817080 0.492192 -0.152157
C6    C     C_2   0.819026 0.822785 0.509101 -0.306873
C7    C     C_2   0.681227 0.756494 0.504318 -0.161732
C8    C     C_2   0.677532 0.681075 0.491258 -0.302471
C9    C     C_2   0.827630 0.507880 0.754497 -0.159493
C10   C     C_2   0.818017 0.492043 0.815602 -0.301846
C11   C     C_2   0.753969 0.495722 0.680857 -0.152228
C12   C     C_R   0.381341 0.499572 0.380895 0.866421
C13   C     C_2   0.692336 0.510261 0.690235 -0.298510
C14   C     C_2   0.260633 0.185582 0.513770 -0.276499
C15   C     C_2   0.181034 0.175315 0.489053 -0.377071
C16   C     C_2   0.321571 0.242898 0.498003 0.527593
C17   C     C_2   0.324416 0.318241 0.510385 -0.383855
C18   C     C_R   0.007533 0.617839 0.124725 0.840873
C19   C     C_R   0.125750 0.500368 0.126049 0.908014
C20   C     C_R   0.005933 0.382128 0.888756 0.892689
C21   C     C_R   0.887592 0.498012 0.886180 0.829603
C22   C     C_R   0.000845 0.119118 0.616680 0.842194
C23   C     C_R   0.385026 0.382593 0.502695 0.899370
C24   C     C_R   0.882767 0.884537 0.502234 0.844340
C25   C     C_R   0.998997 0.880596 0.383437 0.842715
C26   C     C_R   0.117282 0.115503 0.497761 0.880815
C27   C     C_2   0.007890 0.749463 0.326445 -0.154440
C28   C     C_2   0.992124 0.809947 0.314810 -0.311236
C29   C     C_2   0.996783 0.676629 0.254524 -0.153696
C30   C     C_2   0.012999 0.686676 0.193879 -0.301197
C31   C     C_2   0.991258 0.249660 0.677572 -0.160075
C32   C     C_2   0.007901 0.188708 0.686473 -0.296450
C33   C     C_2   0.006212 0.322589 0.752736 -0.169094
C34   C     C_R   0.621048 0.502624 0.619849 0.848002
C35   C     C_2   0.997969 0.313473 0.817336 -0.239509
C36   C     C_3   0.276644 0.559590 0.332374 -0.264134
C37   C     C_3   0.183956 0.481094 0.263979 -0.390108
C38   C     C_3   0.193021 0.499838 0.192903 -0.217212
C39   C     C_3   0.284552 0.576729 0.260553 0.533891
C40   C     C_3   0.323826 0.518076 0.242131 -0.353731
Cu1   Cu    Cu3+1 0.500860 0.438990 0.439830 1.021944
Cu2   Cu    Cu3+1 0.499140 0.561010 0.560170 0.953968
Cu3   Cu    Cu3+1 0.946020 0.438950 0.007030 0.970904
Cu4   Cu    Cu3+1 0.068040 0.560950 0.006980 1.008341
Cu5   Cu    Cu3+1 0.938110 0.000000 0.438130 0.954255
Cu6   Cu    Cu3+1 0.061890 0.000000 0.561870 0.963328
H1    H     H_    0.126065 0.466457 0.271365 0.175285
H2    H     H_    0.715799 0.661309 0.466742 0.154058
H3    H     H_    0.888640 0.524806 0.755379 0.160297
H4    H     H_    0.754559 0.466007 0.809531 0.158694
H5    H     H_    0.753057 0.479084 0.619711 0.161218
H6    H     H_    0.698195 0.536012 0.753739 0.154376
H7    H     H_    0.280005 0.149032 0.542172 0.178750
H8    H     H_    0.158990 0.206339 0.454208 0.156229
H9    H     H_    0.285206 0.337131 0.534032 0.118572
H10   H     H_    0.024807 0.750743 0.388066 0.162704
H11   H     H_    0.297018 0.609146 0.397933 0.172711
H12   H     H_    0.966009 0.803585 0.250707 0.155102
H13   H     H_    0.980185 0.615944 0.254507 0.161215
H14   H     H_    0.038817 0.749893 0.199308 0.153823
H15   H     H_    0.971565 0.249104 0.616133 0.163340
H16   H     H_    0.036692 0.194520 0.750130 0.174358
H17   H     H_    0.019397 0.382821 0.752427 0.157236
H18   H     H_    0.974909 0.250727 0.813091 0.162806
H19   H     H_    0.381510 0.532903 0.234369 0.180479
H20   H     H_    0.725221 0.860371 0.473736 0.162076
H21   H     H_    0.839826 0.786320 0.536692 0.153674
H22   H     H_    0.636001 0.771934 0.519261 0.157491
O1    O     O_R   0.589740 0.537510 0.449170 -0.593965
O2    O     O_R   0.057320 0.640510 0.094780 -0.584363
O3    O     O_R   0.045810 0.448440 0.097300 -0.597309
O4    O     O_R   0.148850 0.551460 0.097260 -0.537117
O5    O     O_R   0.956740 0.359390 0.919230 -0.580988
O6    O     O_R   0.059790 0.462410 0.919190 -0.575974
O7    O     O_R   0.865220 0.448430 0.916750 -0.589947
O8    O     O_R   0.968260 0.551460 0.916710 -0.589992
O9    O     O_R   0.946480 0.089020 0.535540 -0.585575
O10   O     O_R   0.051000 0.089020 0.640050 -0.580323
O11   O     O_R   0.858720 0.910970 0.447760 -0.579866
O12   O     O_R   0.588290 0.640550 0.550800 -0.585149
O13   O     O_R   0.963250 0.910970 0.552260 -0.589013
O14   O     O_R   0.949000 0.910980 0.359950 -0.586005
O15   O     O_R   0.053520 0.910980 0.464460 -0.584821
O16   O     O_R   0.036750 0.089030 0.447740 -0.592648
O17   O     O_R   0.141280 0.089030 0.552240 -0.578791
O18   O     O_R   0.410430 0.448470 0.358910 -0.553478
O19   O     O_R   0.408980 0.551520 0.460540 -0.607783
O20   O     O_R   0.411710 0.359450 0.449200 -0.525102
O21   O     O_R   0.410260 0.462490 0.550830 -0.601351
O22   O     O_R   0.591020 0.448480 0.539460 -0.576097
O23   O     O_R   0.589570 0.551530 0.641090 -0.590290
O24   O     O_R   0.954280 0.537480 0.094820 -0.588659
O25   O     O_3   0.382710 0.226732 0.481997 -0.558538
C41   C     C_3   0.350880 0.137403 0.433454 -0.276150
H23   H     H_    0.283872 0.103230 0.376922 0.159798
H24   H     H_    0.353866 0.108004 0.475704 0.154172
H25   H     H_    0.393276 0.128579 0.407219 0.189618
O26   O     O_3   0.311728 0.657448 0.264277 -0.548827
C42   C     C_3   0.399018 0.714869 0.331148 -0.292265
H26   H     H_    0.442456 0.692067 0.317781 0.157750
H27   H     H_    0.407568 0.725211 0.395619 0.149198
H28   H     H_    0.419071 0.778374 0.334233 0.189311
S1    S     S_3+6 0.199956 0.362258 0.069656 0.008297
O27   O     O_2   0.103158 0.303912 0.017542 -0.333125
O28   O     O_2   0.227643 0.407791 0.024184 -0.290552
O29   O     O_3   0.248680 0.303632 0.080302 -0.495972
H29   H     H_    0.228557 0.261685 0.020002 0.371138
O30   O     O_3   0.198767 0.340958 0.240891 -0.550124
C43   C     C_3   0.108128 0.293550 0.202905 -0.239209
H30   H     H_    0.072869 0.291585 0.140902 0.195975
H31   H     H_    0.088158 0.320385 0.249293 0.136789
H32   H     H_    0.089010 0.226035 0.187864 0.189051

loop_
_geom_bond_atom_site_label_1
_geom_bond_atom_site_label_2
_ccdc_geom_bond_type
C18   O2    A    
C4    C36   S    
Cu3   O5    S    
O25   C41   S    
C27   C29   S    
C1    C8    S    
Cu1   Cu2   S    
C31   H15   S    
C19   O3    A    
Cu5   O14   S    
Cu3   Cu4   S    
C34   O22   A    
C7    C8    D    
Cu5   Cu6   S    
C25   C28   S    
Cu2   O12   S    
Cu1   O18   S    
C21   O8    A    
C16   O25   S    
C17   C23   S    
C22   C32   S    
Cu1   O1    S    
C36   C37   S    
C43   H31   S    
C5    C6    D    
O29   H29   S    
Cu6   O13   S    
O30   C43   S    
Cu2   O23   S    
Cu4   O8    S    
C34   O23   A    
C7    H22   S    
C20   C35   S    
C4    C40   S    
C16   C17   D    
C30   H14   S    
Cu3   O3    S    
C31   C33   S    
Cu4   O2    S    
C35   H18   S    
C18   C30   S    
C37   H1    S    
C29   C30   D    
C9    C10   D    
C17   H9    S    
Cu6   O17   S    
Cu1   O22   S    
C19   O4    A    
C10   C21   S    
Cu3   O7    S    
C15   H8    S    
C29   H13   S    
C9    H3    S    
C22   O10   A    
Cu5   O11   S    
C36   H11   S    
C43   H32   S    
C39   C40   S    
Cu6   O10   S    
C27   H10   S    
C15   C26   S    
C41   H25   S    
C1    O1    A    
Cu4   O6    S    
C24   O13   A    
C8    H2    S    
C37   C38   S    
C19   C38   S    
C13   H6    S    
C2    C38   S    
C24   O11   A    
C31   C32   D    
C33   H17   S    
C6    C24   S    
C42   H28   S    
C23   O21   A    
C20   O6    A    
S1    O28   D    
C41   H24   S    
C9    C11   S    
C6    H21   S    
C42   H27   S    
C40   H19   S    
C25   O14   A    
C14   C16   S    
Cu5   O16   S    
C4    C12   S    
C3    C4    S    
C10   H4    S    
C27   C28   D    
C5    C7    S    
Cu1   O20   S    
C26   O16   A    
C12   O19   A    
C36   C39   S    
C22   O9    A    
C5    H20   S    
C39   O26   S    
C28   H12   S    
C3    O30   S    
C21   O7    A    
Cu3   O24   S    
C42   H26   S    
C12   O18   A    
C23   O20   A    
Cu2   O21   S    
C18   O24   A    
C2    C3    S    
C32   H16   S    
C13   C34   S    
C43   H30   S    
C11   C13   D    
C38   C39   S    
C2    S1    S    
C26   O17   A    
C33   C35   D    
C20   O5    A    
Cu4   O4    S    
S1    O29   S    
C41   H23   S    
C11   H5    S    
Cu6   O15   S    
C2    C40   S    
C14   H7    S    
C3    C37   S    
O26   C42   S    
S1    O27   D    
C25   O15   A    
C1    O12   A    
C14   C15   D    
Cu5   O9    S    
Cu2   O19   S    
