data_mof_unit_40615.cif
_audit_creation_date              2012-12-11T18:04:51-0500
_audit_creation_method            fapswitch 2.2
_symmetry_space_group_name_H-M    P1
_symmetry_Int_Tables_number       1
_space_group_crystal_system       triclinic
_cell_length_a                    8.231669
_cell_length_b                    12.647067
_cell_length_c                    22.848356
_cell_angle_alpha                 96.555066
_cell_angle_beta                  89.427287
_cell_angle_gamma                 98.556282
_cell_volume                      2336.75129814

loop_
_atom_site_label
_atom_site_type_symbol
_atom_type_description
_atom_site_fract_x
_atom_site_fract_y
_atom_site_fract_z
_atom_type_partial_charge
Ba1   Ba    Ba6+2 0.856210 0.551220 0.472190 1.643169
Ba2   Ba    Ba6+2 0.333620 0.448870 0.527810 1.657007
C1    C     C_3   0.602309 0.919179 0.299980 -0.388278
C2    C     C_3   0.637754 0.828874 0.334272 0.337371
C3    C     C_3   0.475657 0.289450 0.349350 0.292471
C4    C     C_3   0.456912 0.257964 0.283250 -0.365158
C5    C     C_3   0.961886 0.133400 0.682831 0.279084
C6    C     C_3   0.007679 0.111404 0.744100 -0.296583
C7    C     C_3   0.482549 0.173248 0.689677 0.323060
C8    C     C_3   0.563216 0.133965 0.741497 -0.289781
C9    C     C_R   0.343722 0.526145 0.332016 -0.303417
C10   C     C_R   0.104173 0.584886 0.939851 -0.024544
C11   C     C_R   0.058704 0.579078 0.879632 0.587417
C12   C     C_3   0.125255 0.779583 0.310959 0.318056
C13   C     C_R   0.978967 0.387934 0.876029 0.578035
C14   C     C_R   0.017372 0.391832 0.936548 -0.023279
C15   C     C_R   0.081533 0.490740 0.968501 -0.052204
C16   C     C_R   0.170570 0.682907 0.972343 -0.078256
C17   C     C_R   0.213964 0.687232 0.031775 -0.075267
C18   C     C_R   0.191160 0.593865 0.061012 -0.020222
C19   C     C_R   0.123799 0.495375 0.029298 -0.052632
C20   C     C_R   0.993469 0.298588 0.965829 -0.096575
C21   C     C_R   0.033852 0.303258 0.025483 -0.080959
C22   C     C_R   0.099649 0.401345 0.058013 -0.024733
C23   C     C_3   0.095188 0.809090 0.249732 -0.302248
C24   C     C_R   0.142715 0.407206 0.118393 0.589280
C25   C     C_R   0.234554 0.597013 0.121134 0.575352
C26   C     C_2   0.798069 0.420271 0.767461 -0.090119
C27   C     C_3   0.763805 0.389231 0.702348 -0.081650
C28   C     C_1   0.008577 0.518628 0.684748 0.039160
C29   C     C_2   0.056939 0.525938 0.740907 -0.083894
C30   C     C_2   0.945463 0.475736 0.786223 0.221006
C31   C     C_R   0.413926 0.556326 0.231444 -0.098388
C32   C     C_R   0.457309 0.564309 0.291163 -0.015662
C33   C     C_R   0.188380 0.474702 0.314153 0.030760
C34   C     C_3   0.229384 0.779138 0.597638 0.296523
C35   C     C_R   0.142309 0.466826 0.254116 -0.096769
C36   C     C_R   0.254294 0.509501 0.211957 0.205793
C37   C     C_2   0.870719 0.459448 0.663998 -0.252597
C38   C     C_R   0.758094 0.180857 0.524859 -0.265645
C39   C     C_R   0.432197 0.809847 0.475193 -0.291496
C40   C     C_R   0.406725 0.989417 0.455603 -0.104003
C41   C     C_R   0.343519 0.881090 0.452323 -0.003823
C42   C     C_R   0.577388 0.847454 0.506862 0.064745
C43   C     C_R   0.640423 0.958999 0.513472 -0.054013
C44   C     C_R   0.554512 0.030190 0.486310 -0.063518
C45   C     C_3   0.268481 0.899883 0.614585 -0.384904
C46   C     C_R   0.616502 0.140823 0.491869 0.055388
C47   C     C_R   0.847854 0.111744 0.548980 -0.044498
C48   C     C_R   0.787356 0.001784 0.545120 -0.094465
C49   C     C_3   0.969552 0.221594 0.405193 0.279301
C50   C     C_3   0.956589 0.100288 0.391674 -0.341328
C51   C     C_3   0.714512 0.688856 0.646427 0.299581
C52   C     C_3   0.735193 0.718003 0.712655 -0.364319
H1    H     H_    0.721379 0.863148 0.371812 0.065002
H2    H     H_    0.367235 0.917406 0.648568 0.099229
H3    H     H_    0.310332 0.941011 0.575705 0.088016
H4    H     H_    0.156989 0.931547 0.632381 0.141468
H5    H     H_    0.847886 0.243134 0.417153 -0.000922
H6    H     H_    0.056457 0.248051 0.442582 0.077292
H7    H     H_    0.871413 0.071763 0.354075 0.115999
H8    H     H_    0.909537 0.060204 0.430268 0.085695
H9    H     H_    0.079551 0.078291 0.380225 0.145906
H10   H     H_    0.830230 0.665381 0.628057 0.007550
H11   H     H_    0.613970 0.620100 0.638031 0.088144
H12   H     H_    0.552661 0.981864 0.330024 0.096659
H13   H     H_    0.840095 0.783790 0.722229 0.123626
H14   H     H_    0.759092 0.646982 0.733691 0.075988
H15   H     H_    0.621456 0.744893 0.731683 0.129039
H16   H     H_    0.518690 0.792454 0.351988 -0.054298
H17   H     H_    0.510298 0.886791 0.264781 0.134240
H18   H     H_    0.357048 0.310403 0.366885 0.021552
H19   H     H_    0.572949 0.360577 0.357251 0.057087
H20   H     H_    0.358146 0.188047 0.274093 0.138993
H21   H     H_    0.424417 0.326177 0.261591 0.072650
H22   H     H_    0.574147 0.236174 0.264553 0.129172
H23   H     H_    0.716387 0.955912 0.279317 0.130719
H24   H     H_    0.075798 0.735135 0.218034 0.122943
H25   H     H_    0.910460 0.210136 0.686340 0.000531
H26   H     H_    0.868357 0.065674 0.664269 -0.023328
H27   H     H_    0.099860 0.178349 0.764290 0.170985
H28   H     H_    0.897840 0.103682 0.772622 0.104612
H29   H     H_    0.060210 0.035069 0.741149 0.100736
H30   H     H_    0.571127 0.178787 0.652504 -0.068998
H31   H     H_    0.380287 0.110413 0.673225 0.096416
H32   H     H_    0.667455 0.194879 0.758886 0.100255
H33   H     H_    0.614792 0.059841 0.725018 0.047123
H34   H     H_    0.035159 0.708153 0.318256 0.105834
H35   H     H_    0.013718 0.229385 0.046030 0.122064
H36   H     H_    0.943731 0.221222 0.942577 0.117004
H37   H     H_    0.265158 0.764411 0.054875 0.121332
H38   H     H_    0.504176 0.586515 0.200277 0.111156
H39   H     H_    0.189781 0.756855 0.951837 0.113331
H40   H     H_    0.179098 0.566092 0.754012 0.119400
H41   H     H_    0.712012 0.385676 0.798798 0.086155
H42   H     H_    0.020563 0.427713 0.240371 0.121393
H43   H     H_    0.379269 0.532279 0.377890 0.080765
H44   H     H_    0.251557 0.759173 0.313095 -0.042090
H45   H     H_    0.845359 0.445359 0.617013 0.074257
H46   H     H_    0.335385 0.040708 0.435537 0.106327
H47   H     H_    0.858848 0.951507 0.565872 0.104038
H48   H     H_    0.805673 0.265840 0.527952 0.056523
H49   H     H_    0.382119 0.725244 0.471647 0.071579
H50   H     H_    0.983694 0.848737 0.249304 0.148982
H51   H     H_    0.201965 0.864977 0.235892 0.119040
H52   H     H_    0.343453 0.747855 0.583461 0.008443
H53   H     H_    0.138527 0.763271 0.560973 0.068774
N1    N     N_R   0.995935 0.481280 0.848143 -0.421711
N2    N     N_R   0.208226 0.504582 0.149774 -0.423719
O1    O     O_2   0.890290 0.440320 0.360790 -0.459084
O2    O     O_3   0.677046 0.778445 0.621478 -0.645017
O3    O     O_3   0.104413 0.866884 0.352606 -0.611558
O4    O     O_2   0.299410 0.559720 0.639240 -0.451377
O5    O     O_3   0.058870 0.558650 0.568170 -0.501105
O6    O     O_3   0.517310 0.362160 0.604450 -0.455618
O7    O     O_3   0.166149 0.731778 0.646965 -0.633068
O8    O     O_3   0.614910 0.369290 0.471050 -0.479635
O9    O     O_3   0.099190 0.306290 0.575790 -0.460387
O10   O     O_2   0.183927 0.116072 0.538668 -0.476496
O11   O     O_3   0.103822 0.140272 0.648323 -0.580559
O12   O     O_3   0.130840 0.441440 0.431840 -0.496656
O13   O     O_3   0.574800 0.630800 0.528960 -0.490657
O14   O     O_2   0.344900 0.234690 0.472540 -0.465329
O15   O     O_3   0.518621 0.202260 0.375370 -0.650504
O16   O     O_2   0.469782 0.478645 0.706851 -0.488826
O17   O     O_3   0.417934 0.269301 0.707621 -0.564826
O18   O     O_2   0.072972 0.661432 0.855609 -0.613067
O19   O     O_2   0.931707 0.300794 0.847994 -0.627524
O20   O     O_2   0.124449 0.325054 0.142668 -0.596898
O21   O     O_2   0.295707 0.682531 0.147963 -0.617035
O22   O     O_3   0.672400 0.637930 0.395560 -0.479266
O23   O     O_2   0.796178 0.562452 0.292573 -0.502208
O24   O     O_3   0.023097 0.268042 0.354529 -0.626730
O25   O     O_3   0.714733 0.755282 0.296803 -0.596352
O26   O     O_2   0.844800 0.765340 0.527490 -0.468678
O27   O     O_3   0.090520 0.693800 0.424220 -0.494033
O28   O     O_2   0.009496 0.885167 0.461845 -0.482016
P1    P     P_3+3 0.057140 0.408270 0.369700 0.992147
P2    P     P_3+3 0.667360 0.749400 0.544670 0.969625
P3    P     P_3+3 0.136818 0.832385 0.423091 0.942073
P4    P     P_3+3 0.132580 0.591820 0.630310 0.988477
P5    P     P_3+3 0.055407 0.166870 0.577804 0.969152
P6    P     P_3+3 0.661256 0.626659 0.318565 0.956377
P7    P     P_3+3 0.526989 0.235321 0.451847 0.936441
P8    P     P_3+3 0.542976 0.377677 0.681138 0.973130
C53   C     C_R   0.443273 0.110325 0.790182 0.094104
C54   C     C_R   0.367460 0.004409 0.794706 -0.080554
C55   C     C_R   0.257961 0.982679 0.840518 -0.080126
C56   C     C_R   0.224310 0.066229 0.882249 -0.053975
C57   C     C_R   0.300360 0.171557 0.878285 -0.064439
C58   C     C_R   0.409043 0.193727 0.832409 -0.003806
H54   H     H_    0.392477 0.938862 0.762732 0.078379
H55   H     H_    0.199268 0.901071 0.843669 0.118550
H56   H     H_    0.139780 0.049338 0.917742 0.072178
H57   H     H_    0.275858 0.236133 0.910843 0.075653
H58   H     H_    0.466686 0.275744 0.829936 0.074833

loop_
_geom_bond_atom_site_label_1
_geom_bond_atom_site_label_2
_ccdc_geom_bond_type
O12   P1    S    
O7    P4    S    
C6    H29   S    
Ba2   O5    S    
O3    P3    S    
C17   C18   A    
O27   P3    S    
C2    H16   S    
Ba2   O9    S    
O2    P2    S    
C5    C6    S    
C51   C52   S    
O26   P2    D    
C3    O15   S    
C28   P4    S    
C26   H41   S    
C6    H28   S    
C5    H25   S    
C26   C27   S    
C33   C35   A    
C22   C24   A    
O13   P2    S    
C16   C17   A    
C3    H18   S    
C50   H7    S    
C33   P1    S    
C27   P8    S    
C28   C29   D    
C51   H10   S    
C52   H14   S    
C38   C47   A    
C46   P7    S    
C34   C45   S    
Ba1   Ba2   S    
C40   C44   A    
Ba1   O13   S    
O10   P5    D    
C7    H31   S    
O25   P6    S    
Ba2   O8    S    
C54   C55   A    
C40   C41   A    
C14   C15   A    
O14   P7    D    
C21   C22   A    
C21   H35   S    
C12   H44   S    
Ba1   O27   S    
C51   H11   S    
C7    C8    S    
Ba1   P2    S    
C51   O2    S    
O23   P6    D    
C12   O3    S    
O24   P1    S    
C34   H53   S    
C39   C41   A    
C11   N1    Am   
O17   P8    S    
C4    H20   S    
Ba2   O13   S    
C8    H33   S    
O28   P3    D    
C44   C46   A    
C32   P6    S    
C23   H51   S    
C49   C50   S    
O5    P4    S    
C26   C30   D    
O8    P7    S    
O11   P5    S    
C55   C56   A    
C31   H38   S    
C52   H13   S    
Ba1   O22   S    
Ba2   O14   S    
C34   H52   S    
C23   H24   S    
C15   C19   A    
C6    H27   S    
C35   H42   S    
C13   N1    Am   
C10   C15   A    
C1    H17   S    
C56   H56   S    
C35   C36   A    
C40   H46   S    
Ba1   O1    S    
C45   H3    S    
Ba2   O6    S    
C37   H45   S    
C29   C30   S    
O1    P1    D    
C16   H39   S    
C47   P5    S    
C27   C37   S    
C31   C32   A    
C20   H36   S    
C41   P3    S    
Ba1   O8    S    
C58   H58   S    
C10   C11   A    
C36   N2    S    
C45   H2    S    
C24   N2    Am   
C24   O20   D    
C8    C53   S    
C42   P2    S    
C57   H57   S    
C2    H1    S    
C39   C42   A    
C1    H12   S    
C49   H5    S    
Ba1   O5    S    
C1    C2    S    
C1    H23   S    
O22   P6    S    
C42   C43   A    
C34   O7    S    
C2    O25   S    
C53   C54   A    
Ba2   O12   S    
C38   C46   A    
C8    H32   S    
C14   C20   A    
C57   C58   A    
C5    O11   S    
C9    C32   A    
C31   C36   A    
O9    P5    S    
C50   H9    S    
C23   H50   S    
C4    H22   S    
C18   C25   A    
C29   H40   S    
O6    P8    S    
C7    O17   S    
C9    H43   S    
C13   O19   D    
C9    C33   A    
C54   H54   S    
C12   H34   S    
C50   H8    S    
C56   C57   A    
C45   H4    S    
C39   H49   S    
C49   O24   S    
C3    C4    S    
C52   H15   S    
C43   C48   A    
Ba2   P4    S    
Ba2   O4    S    
O4    P4    D    
C28   C37   D    
C12   C23   S    
C3    H19   S    
Ba1   O12   S    
C17   H37   S    
C7    H30   S    
C38   H48   S    
C53   C58   A    
C11   O18   D    
C43   C44   A    
C18   C19   A    
C25   N2    Am   
C48   H47   S    
C47   C48   A    
C30   N1    S    
C19   C22   A    
C10   C16   A    
C25   O21   D    
C20   C21   A    
O15   P7    S    
O16   P8    D    
C49   H6    S    
C55   H55   S    
Ba1   O26   S    
Ba1   P1    S    
C13   C14   A    
C5    H26   S    
C4    H21   S    
