data_mof_unit_9870.cif
_audit_creation_date              2012-12-10T18:23:03-0500
_audit_creation_method            fapswitch 2.2
_symmetry_space_group_name_H-M    P1
_symmetry_Int_Tables_number       1
_space_group_crystal_system       triclinic
_cell_length_a                    15.025852
_cell_length_b                    14.010834
_cell_length_c                    10.505112
_cell_angle_alpha                 89.598634
_cell_angle_beta                  90.008844
_cell_angle_gamma                 90.019258
_cell_volume                      2211.53132822

loop_
_atom_site_label
_atom_site_type_symbol
_atom_type_description
_atom_site_fract_x
_atom_site_fract_y
_atom_site_fract_z
_atom_type_partial_charge
C1    C     C_R   0.326519 0.499992 0.500193 0.886801
C2    C     C_R   0.673496 0.500023 0.499498 0.884611
C3    C     C_R   0.953678 0.500114 0.499180 -0.001931
C4    C     C_R   0.046311 0.500151 0.500813 -0.016786
C5    C     C_R   0.907208 0.587950 0.508111 0.033545
C6    C     C_R   0.092758 0.412536 0.491212 0.070375
C7    C     C_R   0.953456 0.324856 0.479210 0.076990
C8    C     C_R   0.046769 0.675150 0.519311 0.126568
C9    C     C_R   0.046797 0.325113 0.481270 0.155641
C10   C     C_R   0.953804 0.675342 0.518271 0.155620
C11   C     C_R   0.566396 0.798506 0.438552 -0.064327
C12   C     C_R   0.433753 0.201495 0.561796 -0.058766
C13   C     C_R   0.433692 0.797813 0.561659 -0.041812
C14   C     C_R   0.566348 0.202184 0.438440 -0.041270
C15   C     C_R   0.432058 0.898457 0.563086 0.012597
C16   C     C_R   0.568093 0.101540 0.437275 0.010355
C17   C     C_R   0.568128 0.899164 0.437358 0.011657
C18   C     C_R   0.432115 0.100834 0.563204 0.016440
C19   C     C_R   0.500087 0.949392 0.500207 0.085510
C20   C     C_R   0.500090 0.050606 0.500210 0.084043
C21   C     C_R   0.364439 0.949142 0.625707 -0.174368
C22   C     C_R   0.635868 0.050855 0.375006 -0.171209
C23   C     C_R   0.635918 0.950548 0.375112 -0.197671
C24   C     C_R   0.364525 0.049446 0.625876 -0.199693
C25   C     C_R   0.499994 0.500380 0.257083 0.871792
C26   C     C_R   0.500020 0.499621 0.742915 0.871438
C27   C     C_3   0.500395 0.591201 0.039134 -0.133480
C28   C     C_3   0.499637 0.408805 0.960859 -0.133403
C29   C     C_3   0.573468 0.544652 0.957156 -0.176170
C30   C     C_3   0.426565 0.455354 0.042835 -0.175382
C31   C     C_3   0.426946 0.545303 0.957095 -0.176756
C32   C     C_3   0.573087 0.454703 0.042899 -0.176249
C33   C     C_3   0.500019 0.498868 0.877828 0.020994
C34   C     C_3   0.500012 0.501137 0.122166 0.020876
C35   C     C_R   0.814806 0.586196 0.508104 -0.247757
C36   C     C_R   0.185134 0.414082 0.489841 -0.226934
C37   C     C_R   0.769361 0.500109 0.498412 -0.087216
C38   C     C_R   0.230699 0.500018 0.500704 -0.102760
C39   C     C_R   0.814862 0.414108 0.487894 -0.199093
C40   C     C_R   0.185238 0.586044 0.511858 -0.199425
C41   C     C_R   0.907191 0.412290 0.488507 0.056029
C42   C     C_R   0.092932 0.587829 0.511053 0.029892
H1    H     H_    0.367561 0.581978 0.917218 0.139992
H2    H     H_    0.632472 0.418027 0.082775 0.140291
H3    H     H_    0.500723 0.665527 0.075118 0.150190
H4    H     H_    0.499309 0.334479 0.924873 0.150224
H5    H     H_    0.633173 0.580790 0.917352 0.139313
H6    H     H_    0.366858 0.419217 0.082630 0.141778
H7    H     H_    0.777133 0.651474 0.516932 0.165458
H8    H     H_    0.222287 0.348370 0.479657 0.192420
H9    H     H_    0.777095 0.348984 0.479430 0.190807
H10   H     H_    0.222878 0.651242 0.521007 0.189042
H11   H     H_    0.617950 0.758605 0.390470 0.131316
H12   H     H_    0.382231 0.241391 0.609968 0.133453
H13   H     H_    0.382147 0.757374 0.609773 0.139029
H14   H     H_    0.617869 0.242619 0.390269 0.140453
H15   H     H_    0.311554 0.911242 0.674640 0.164937
H16   H     H_    0.688815 0.088762 0.326226 0.168275
H17   H     H_    0.688933 0.913188 0.326478 0.147678
H18   H     H_    0.311817 0.086801 0.675144 0.144073
N1    N     N_R   0.500000 0.750030 0.500000 -0.104581
N2    N     N_R   0.500000 0.249970 0.500000 -0.105505
O1    O     O_R   0.367850 0.580280 0.500030 -0.626960
O2    O     O_R   0.632150 0.419720 0.499970 -0.627809
O3    O     O_R   0.632150 0.580280 0.499970 -0.633570
O4    O     O_R   0.367850 0.419720 0.500030 -0.633017
O5    O     O_R   0.499970 0.580260 0.313950 -0.623566
O6    O     O_R   0.500030 0.419740 0.686050 -0.623943
O7    O     O_R   0.500030 0.580260 0.686050 -0.621106
O8    O     O_R   0.499970 0.419740 0.313950 -0.620154
Zn1   Zn    Zn3+2 0.500000 0.607200 0.500000 0.947503
Zn2   Zn    Zn3+2 0.500000 0.392800 0.500000 0.949489
I1    I     I_    0.884719 0.190482 0.465710 -0.449234
I2    I     I_    0.114003 0.810343 0.528112 -0.409910
N3    N     N_2   0.095245 0.237928 0.471263 -0.310370
H19   H     H_    0.070815 0.190380 0.405539 0.269164
C43   C     C_3   0.118154 0.193806 0.591831 -0.739055
H20   H     H_    0.159788 0.129735 0.574651 0.246287
H21   H     H_    0.057035 0.171559 0.643591 0.270996
H22   H     H_    0.156729 0.244081 0.651750 0.230198
N4    N     N_2   0.908480 0.764600 0.523927 -0.276188
H23   H     H_    0.859182 0.774242 0.456803 0.221359
C44   C     C_3   0.883362 0.794108 0.650669 -0.708870
H24   H     H_    0.854225 0.866874 0.646288 0.250386
H25   H     H_    0.942624 0.796018 0.713841 0.263933
H26   H     H_    0.833245 0.744413 0.691728 0.216479

loop_
_geom_bond_atom_site_label_1
_geom_bond_atom_site_label_2
_ccdc_geom_bond_type
C39   H9    S    
C27   C29   S    
C14   H14   S    
C19   C20   A    
C25   O5    A    
C2    O3    A    
C6    C9    A    
N4    H23   S    
C39   C41   A    
C43   H20   S    
C23   H17   S    
C28   H4    S    
C17   C23   A    
C31   H1    S    
C29   H5    S    
C18   C24   A    
C30   H6    S    
C35   C37   A    
C8    C42   A    
C29   C32   S    
C30   C31   S    
C14   N2    A    
C29   C33   S    
O7    Zn1   S    
C11   C17   A    
C35   H7    S    
C31   C33   S    
C18   C20   A    
C11   H11   S    
C16   C20   A    
C25   C34   S    
N1    Zn1   S    
C40   C42   A    
C1    O1    A    
N4    C44   S    
C2    O2    A    
C43   H21   S    
C27   C34   S    
O4    Zn2   S    
C30   C34   S    
C27   C31   S    
C28   C32   S    
C4    C6    A    
C11   N1    A    
O3    Zn1   S    
O6    Zn2   S    
C32   C34   S    
C15   C19   A    
N3    H19   S    
C21   H15   S    
C12   N2    A    
C26   C33   S    
C44   H24   S    
C24   H18   S    
C7    I1    S    
C8    I2    S    
C1    O4    A    
C32   H2    S    
N2    Zn2   S    
N3    C43   S    
C1    C38   S    
C44   H25   S    
O1    Zn1   S    
C28   C33   S    
C13   C15   A    
C14   C16   A    
C3    C4    A    
C36   H8    S    
C43   H22   S    
C7    C9    A    
C3    C41   A    
C16   C22   A    
C3    C5    A    
C22   H16   S    
C10   N4    S    
C26   O6    A    
C28   C30   S    
C5    C10   A    
C37   C39   A    
C40   H10   S    
C38   C40   A    
C2    C37   S    
C27   H3    S    
C4    C42   A    
C5    C35   A    
C36   C38   A    
C17   C19   A    
C6    C36   A    
O5    Zn1   S    
C7    C41   A    
C15   C21   A    
C44   H26   S    
C13   N1    A    
C8    C10   A    
C21   C24   A    
C12   C18   A    
C26   O7    A    
C22   C23   A    
O8    Zn2   S    
C25   O8    A    
C9    N3    S    
C12   H12   S    
O2    Zn2   S    
C13   H13   S    
