data_mof_unit_63262.cif
_audit_creation_date              2012-12-10T21:02:08-0500
_audit_creation_method            fapswitch 2.2
_symmetry_space_group_name_H-M    P1
_symmetry_Int_Tables_number       1
_space_group_crystal_system       triclinic
_cell_length_a                    22.210827
_cell_length_b                    22.235742
_cell_length_c                    22.196142
_cell_angle_alpha                 108.355841
_cell_angle_beta                  109.991729
_cell_angle_gamma                 110.076599
_cell_volume                      8435.73078861

loop_
_atom_site_label
_atom_site_type_symbol
_atom_type_description
_atom_site_fract_x
_atom_site_fract_y
_atom_site_fract_z
_atom_type_partial_charge
C1    C     C_R   0.699613 0.849929 0.349946 0.823454
C2    C     C_3   0.024702 0.557941 0.989476 -0.154194
C3    C     C_3   0.024813 0.455699 0.975599 -0.169478
C4    C     C_3   0.975188 0.544291 0.024397 -0.169540
C5    C     C_1   0.220924 0.610482 0.110432 -0.147991
C6    C     C_1   0.779076 0.389516 0.889568 -0.148180
C7    C     C_3   0.024742 0.523532 0.072054 -0.155408
C8    C     C_3   0.975258 0.476457 0.927942 -0.155406
C9    C     C_3   0.072950 0.536532 0.036489 0.195172
C10   C     C_3   0.927050 0.463458 0.963507 0.195188
C11   C     C_1   0.154125 0.577123 0.077052 -0.095477
C12   C     C_R   0.300387 0.150071 0.650053 0.823453
C13   C     C_1   0.845875 0.422871 0.922945 -0.095514
C14   C     C_R   0.258807 0.475330 0.993027 -0.121100
C15   C     C_R   0.741298 0.524653 0.007393 -0.121248
C16   C     C_R   0.300385 0.650161 0.150162 0.822253
C17   C     C_R   0.699615 0.349840 0.849839 0.822195
C18   C     C_R   0.326445 0.478026 0.007967 -0.132177
C19   C     C_R   0.673727 0.522123 0.992419 -0.132722
C20   C     C_R   0.359991 0.494851 0.967550 0.137242
C21   C     C_R   0.639895 0.504990 0.032530 0.137261
C22   C     C_R   0.324447 0.507952 0.911462 -0.131940
C23   C     C_3   0.549116 0.502185 0.477240 -0.152936
C24   C     C_R   0.675051 0.491345 0.088302 -0.131427
C25   C     C_R   0.256966 0.505517 0.896944 -0.122191
C26   C     C_R   0.742458 0.493606 0.102856 -0.122295
C27   C     C_R   0.224228 0.489346 0.937762 -0.087007
C28   C     C_R   0.775501 0.510117 0.062360 -0.086645
C29   C     C_R   0.435864 0.449175 0.931339 -0.242213
C30   C     C_R   0.564075 0.550793 0.068647 -0.242254
C31   C     C_R   0.502097 0.448351 0.946382 -0.052741
C32   C     C_R   0.497850 0.551613 0.053606 -0.052771
C33   C     C_R   0.567265 0.500216 0.015441 -0.003711
C34   C     C_3   0.450881 0.497815 0.522761 -0.152871
C35   C     C_R   0.432665 0.499732 0.984561 -0.003499
C36   C     C_3   0.024550 0.992643 0.559249 0.474427
C37   C     C_3   0.975449 0.007356 0.440749 0.474443
C38   C     C_3   0.975294 0.027020 0.543561 -0.255668
C39   C     C_3   0.024706 0.972978 0.456437 -0.255726
C40   C     C_R   0.499036 0.890214 0.389420 0.796861
C41   C     C_R   0.500969 0.109779 0.610588 0.796648
C42   C     C_1   0.778974 0.889633 0.389714 -0.115747
C43   C     C_1   0.221026 0.110367 0.610285 -0.115776
C44   C     C_3   0.975082 0.928296 0.479482 -0.250632
C45   C     C_3   0.499919 0.536484 0.463559 0.188547
C46   C     C_3   0.024918 0.071702 0.520516 -0.250580
C47   C     C_3   0.926785 0.963406 0.463662 0.042477
C48   C     C_3   0.073215 0.036592 0.536336 0.042474
C49   C     C_1   0.845713 0.922968 0.423132 0.036366
C50   C     C_1   0.154287 0.077031 0.576866 0.036344
C51   C     C_3   0.482272 0.050586 0.025993 -0.159841
C52   C     C_3   0.517728 0.949415 0.974008 -0.159818
C53   C     C_3   0.432159 0.966628 0.991399 -0.158970
C54   C     C_3   0.567841 0.033373 0.008602 -0.158978
C55   C     C_1   0.499972 0.889529 0.110420 -0.132677
C56   C     C_3   0.500077 0.463517 0.536442 0.188546
C57   C     C_1   0.500027 0.110472 0.889581 -0.132710
C58   C     C_3   0.550099 0.046837 0.071683 -0.152354
C59   C     C_3   0.449902 0.953165 0.928318 -0.152351
C60   C     C_3   0.499982 0.963520 0.036445 0.190224
C61   C     C_3   0.500018 0.036481 0.963556 0.190226
C62   C     C_1   0.499966 0.922923 0.077007 -0.070423
C63   C     C_1   0.500034 0.077078 0.922994 -0.070452
C64   C     C_R   0.499201 0.608946 0.109796 0.796099
C65   C     C_R   0.500780 0.391037 0.890205 0.796227
C66   C     C_R   0.259268 0.783647 0.265428 -0.194782
C67   C     C_1   0.499880 0.577085 0.423007 -0.068109
C68   C     C_R   0.740681 0.216611 0.734568 -0.194384
C69   C     C_R   0.326175 0.849214 0.318473 -0.140445
C70   C     C_R   0.673733 0.151041 0.681626 -0.139683
C71   C     C_R   0.360023 0.865291 0.392179 0.073712
C72   C     C_R   0.640004 0.134677 0.607822 0.073741
C73   C     C_R   0.325583 0.815473 0.412227 -0.183402
C74   C     C_R   0.674634 0.184210 0.587598 -0.184106
C75   C     C_R   0.258812 0.749696 0.358903 0.447234
C76   C     C_R   0.741444 0.249976 0.640810 0.447191
C77   C     C_R   0.225760 0.733799 0.285520 -0.139660
C78   C     C_1   0.500119 0.422916 0.576994 -0.068155
C79   C     C_R   0.774364 0.266176 0.714289 -0.139788
C80   C     C_R   0.435750 0.986920 0.504222 -0.243384
C81   C     C_R   0.564259 0.013031 0.495817 -0.243563
C82   C     C_R   0.502144 0.053765 0.555661 -0.054420
C83   C     C_R   0.497870 0.946201 0.444371 -0.054365
C84   C     C_R   0.567433 0.066817 0.552137 0.021785
C85   C     C_R   0.432587 0.933136 0.447916 0.021685
C86   C     C_R   0.500028 0.849860 0.150216 0.823993
C87   C     C_R   0.499971 0.150140 0.849784 0.823968
C88   C     C_R   0.499988 0.650231 0.349888 0.821558
C89   C     C_3   0.975299 0.442049 0.010520 -0.154162
C90   C     C_R   0.500012 0.349769 0.650112 0.821589
C91   C     C_3   0.480986 0.431293 0.455845 -0.159333
C92   C     C_3   0.519011 0.568707 0.544156 -0.159286
C93   C     C_3   0.431790 0.466232 0.441520 -0.156125
C94   C     C_3   0.568207 0.533769 0.558481 -0.156192
C95   C     C_1   0.499901 0.610496 0.389616 -0.130086
C96   C     C_1   0.500098 0.389504 0.610384 -0.130174
Cl1   Cl    Cl    0.058029 0.983088 0.638911 -0.595701
Cl2   Cl    Cl    0.941970 0.016911 0.361087 -0.595655
Cl3   Cl    Cl    0.217110 0.686689 0.383886 -0.611660
Cl4   Cl    Cl    0.783388 0.312589 0.615571 -0.611546
H1    H     H_    0.375720 0.438970 0.392945 0.145299
H2    H     H_    0.045577 0.951576 0.420785 0.181513
H3    H     H_    0.045977 0.130708 0.537054 0.183737
H4    H     H_    0.954023 0.869290 0.462944 0.183711
H5    H     H_    0.376404 0.938677 0.984843 0.142611
H6    H     H_    0.623596 0.061324 0.015159 0.142613
H7    H     H_    0.467714 0.092678 0.046856 0.142103
H8    H     H_    0.532286 0.907324 0.953145 0.142115
H9    H     H_    0.408722 0.915165 0.868895 0.147790
H10   H     H_    0.591279 0.084836 0.131106 0.147806
H11   H     H_    0.174302 0.682826 0.244048 0.153631
H12   H     H_    0.624277 0.561031 0.607056 0.145255
H13   H     H_    0.825877 0.317168 0.755684 0.153642
H14   H     H_    0.465358 0.374314 0.420067 0.143366
H15   H     H_    0.534638 0.625687 0.579934 0.143373
H16   H     H_    0.233619 0.771238 0.208646 0.144224
H17   H     H_    0.766225 0.229245 0.791404 0.144144
H18   H     H_    0.351990 0.887150 0.302168 0.121607
H19   H     H_    0.647772 0.113328 0.698065 0.121191
H20   H     H_    0.351400 0.827102 0.468802 0.165500
H21   H     H_    0.648917 0.172356 0.530950 0.165631
H22   H     H_    0.385457 0.977485 0.506404 0.169963
H23   H     H_    0.349579 0.521155 0.879882 0.131737
H24   H     H_    0.614558 0.022497 0.493641 0.169941
H25   H     H_    0.410513 0.495500 0.541976 0.146658
H26   H     H_    0.589483 0.504501 0.458025 0.146633
H27   H     H_    0.046281 0.419869 0.956083 0.134437
H28   H     H_    0.953720 0.580121 0.043914 0.134464
H29   H     H_    0.953978 0.393925 0.018654 0.139208
H30   H     H_    0.046023 0.606065 0.981342 0.139197
H31   H     H_    0.953907 0.456565 0.868211 0.148753
H32   H     H_    0.046094 0.543425 0.131785 0.148860
H33   H     H_    0.172089 0.487658 0.926594 0.127308
H34   H     H_    0.649678 0.477851 0.119603 0.131657
H35   H     H_    0.827587 0.511670 0.073549 0.127309
H36   H     H_    0.233324 0.462702 0.024510 0.122661
H37   H     H_    0.766997 0.537552 0.976164 0.122732
H38   H     H_    0.352887 0.467414 0.051184 0.107624
H39   H     H_    0.647563 0.533103 0.949418 0.107941
H40   H     H_    0.230215 0.516493 0.854228 0.137600
H41   H     H_    0.768900 0.482233 0.145344 0.137476
H42   H     H_    0.385622 0.408546 0.878704 0.166515
H43   H     H_    0.614300 0.591423 0.121288 0.166621
H44   H     H_    0.954423 0.048423 0.579213 0.181545
O1    O     O_3   0.500050 0.750060 0.250070 -0.488414
O2    O     O_R   0.664320 0.341000 0.884100 -0.632828
O3    O     O_R   0.664480 0.780430 0.323540 -0.637008
O4    O     O_R   0.335520 0.219570 0.676460 -0.637010
O5    O     O_R   0.335610 0.676590 0.219700 -0.625490
O6    O     O_R   0.664390 0.323410 0.780300 -0.625550
O7    O     O_R   0.543050 0.908950 0.365840 -0.645331
O8    O     O_R   0.456950 0.091050 0.634160 -0.645351
O9    O     O_R   0.457060 0.634290 0.091200 -0.629657
O10   O     O_R   0.542940 0.365710 0.908800 -0.629683
O11   O     O_R   0.543140 0.884190 0.219790 -0.629881
O12   O     O_3   0.499950 0.249940 0.749930 -0.488378
O13   O     O_R   0.456860 0.115810 0.780210 -0.629894
O14   O     O_R   0.543170 0.659080 0.323490 -0.637748
O15   O     O_R   0.456830 0.340920 0.676510 -0.637706
O16   O     O_R   0.456990 0.780350 0.115960 -0.637479
O17   O     O_R   0.543010 0.219650 0.884040 -0.637521
O18   O     O_R   0.456900 0.676640 0.341050 -0.628054
O19   O     O_R   0.543100 0.323360 0.658950 -0.628137
O20   O     O_R   0.456830 0.822700 0.365800 -0.628122
O21   O     O_R   0.543170 0.177300 0.634200 -0.628041
O22   O     O_R   0.543260 0.634320 0.177440 -0.645138
O23   O     O_R   0.456740 0.365680 0.822560 -0.645107
O24   O     O_R   0.664430 0.884240 0.341140 -0.626865
O25   O     O_R   0.335570 0.115760 0.658860 -0.626885
O26   O     O_R   0.335680 0.659000 0.115900 -0.632842
Zn1   Zn    Zn3+2 0.438420 0.731820 0.293400 0.991807
Zn2   Zn    Zn3+2 0.561580 0.268180 0.706600 0.991697
Zn3   Zn    Zn3+2 0.561600 0.855040 0.293450 0.987912
Zn4   Zn    Zn3+2 0.438400 0.144960 0.706550 0.987833
Zn5   Zn    Zn3+2 0.438510 0.706680 0.145100 0.981952
Zn6   Zn    Zn3+2 0.561490 0.293320 0.854900 0.981872
Zn7   Zn    Zn3+2 0.561670 0.706730 0.268320 0.977259
Zn8   Zn    Zn3+2 0.438330 0.293270 0.731680 0.977307

loop_
_geom_bond_atom_site_label_1
_geom_bond_atom_site_label_2
_ccdc_geom_bond_type
O1    Zn1   S    
C34   C56   S    
C23   C45   S    
C28   H35   S    
C14   C18   A    
C17   O6    A    
C51   C61   S    
C34   C93   S    
C12   O25   A    
C45   C93   S    
C53   C59   S    
C56   C78   S    
C22   H23   S    
C47   C49   S    
C41   O8    A    
C80   H22   S    
C15   C19   A    
O12   Zn4   S    
C80   C85   A    
C74   C76   A    
O7    Zn3   S    
C19   C21   A    
O14   Zn7   S    
C24   C26   A    
C5    C11   T    
C12   C43   S    
C3    H27   S    
C31   C65   S    
C66   C69   A    
C21   C33   S    
C41   C82   S    
C58   C60   S    
C7    C89   S    
C55   C62   T    
C69   H18   S    
C89   H29   S    
C60   C62   S    
C90   O15   A    
C61   C63   S    
C45   C92   S    
C5    C16   S    
C64   O22   A    
C52   C60   S    
C2    H30   S    
C71   C85   S    
C20   C35   S    
O12   Zn8   S    
C56   C91   S    
O6    Zn2   S    
O18   Zn1   S    
O1    Zn5   S    
C10   C89   S    
C78   C96   T    
C22   C25   A    
O2    Zn6   S    
C45   C67   S    
O25   Zn4   S    
C31   C33   A    
C36   Cl1   S    
C88   O14   A    
C14   C27   A    
C37   C47   S    
C26   H41   S    
C44   C47   S    
O13   Zn4   S    
O8    Zn4   S    
O11   Zn3   S    
C68   C79   A    
C48   C50   S    
C88   C95   S    
C73   H20   S    
O5    Zn1   S    
C67   C95   T    
C73   C75   A    
C40   C83   S    
C56   C94   S    
C4    C7    S    
C75   Cl3   S    
C37   Cl2   S    
C81   C83   A    
C53   C60   S    
C52   C54   S    
C57   C63   T    
O26   Zn5   S    
C44   H4    S    
O24   Zn3   S    
C37   C39   S    
C46   C48   S    
C59   C61   S    
C69   C71   A    
C4    H28   S    
C81   H24   S    
C27   H33   S    
C32   C35   A    
C25   H40   S    
C32   C64   S    
C72   C74   A    
C3    C8    S    
C93   H1    S    
O22   Zn7   S    
O17   Zn6   S    
C54   H6    S    
C1    O24   A    
C64   O9    A    
O12   Zn2   S    
C30   H43   S    
C87   O13   A    
C40   O7    A    
C41   O21   A    
C51   C53   S    
C2    C4    S    
C86   O11   A    
C65   O10   A    
C3    C9    S    
C52   C59   S    
C16   O26   A    
C68   H17   S    
C91   C93   S    
C9    C11   S    
O3    Zn7   S    
C70   H19   S    
O23   Zn8   S    
C8    H31   S    
C92   C94   S    
C7    H32   S    
C51   C58   S    
C72   C84   S    
C90   C96   S    
O19   Zn2   S    
C75   C77   A    
C38   C47   S    
C16   O5    A    
C66   H16   S    
C23   H26   S    
C80   C82   A    
C83   C85   A    
O1    Zn3   S    
C82   C84   A    
C79   H13   S    
O16   Zn5   S    
C23   C91   S    
C36   C44   S    
C76   Cl4   S    
O9    Zn5   S    
O15   Zn8   S    
C4    C10   S    
C81   C84   A    
C76   C79   A    
C39   H2    S    
C71   C73   A    
C54   C58   S    
C24   H34   S    
C7    C9    S    
C6    C17   S    
C65   O23   A    
O12   Zn6   S    
O4    Zn8   S    
C30   C33   A    
C87   O17   A    
C58   H10   S    
C38   H44   S    
C8    C10   S    
C2    C8    S    
C53   H5    S    
C20   C22   A    
C10   C13   S    
C91   H14   S    
C43   C50   T    
C40   O20   A    
C39   C44   S    
C54   C61   S    
C25   C27   A    
C46   H3    S    
C29   C35   A    
C26   C28   A    
C23   C94   S    
O10   Zn6   S    
C90   O19   A    
C3    C89   S    
C12   O4    A    
C55   C86   S    
C36   C38   S    
C17   O2    A    
C29   C31   A    
C6    C13   T    
C30   C32   A    
C15   C28   A    
C14   H36   S    
O21   Zn2   S    
C34   H25   S    
C88   O18   A    
C29   H42   S    
C94   H12   S    
C59   H9    S    
C36   C48   S    
C18   C20   A    
C66   C77   A    
C18   H38   S    
C92   H15   S    
C34   C92   S    
C38   C46   S    
C1    O3    A    
C77   H11   S    
C42   C49   T    
C57   C87   S    
C1    C42   S    
C74   H21   S    
C52   H8    S    
C51   H7    S    
C21   C24   A    
O1    Zn7   S    
C68   C70   A    
O20   Zn1   S    
C70   C72   A    
C37   C46   S    
C2    C9    S    
C86   O16   A    
C19   H39   S    
C39   C48   S    
C15   H37   S    
