data_mof_unit_37343.cif
_audit_creation_date              2012-12-11T17:02:15-0500
_audit_creation_method            fapswitch 2.2
_symmetry_space_group_name_H-M    P1
_symmetry_Int_Tables_number       1
_space_group_crystal_system       triclinic
_cell_length_a                    21.645842
_cell_length_b                    7.063775
_cell_length_c                    14.851354
_cell_angle_alpha                 90.000817
_cell_angle_beta                  106.097103
_cell_angle_gamma                 90.000601
_cell_volume                      2181.76163501

loop_
_atom_site_label
_atom_site_type_symbol
_atom_type_description
_atom_site_fract_x
_atom_site_fract_y
_atom_site_fract_z
_atom_type_partial_charge
O1    O     O_R   0.585850 0.505770 0.002130 -0.535055
O2    O     O_R   0.414150 0.005770 0.997870 -0.535061
O3    O     O_R   0.467530 0.173560 0.861970 -0.540802
O4    O     O_R   0.532470 0.673560 0.138030 -0.540803
C1    C     C_R   0.455727 0.344326 0.825263 0.683263
C2    C     C_R   0.544273 0.844331 0.174737 0.683264
O5    O     O_R   0.588690 0.175900 0.993250 -0.546224
O6    O     O_R   0.411310 0.675900 0.006750 -0.546224
O7    O     O_R   0.536170 0.007950 0.130090 -0.535547
O8    O     O_R   0.463830 0.507950 0.869910 -0.535540
C3    C     C_R   0.615097 0.344719 0.997831 0.697257
C4    C     C_R   0.384902 0.844717 0.002167 0.697248
O9    O     O_3   0.482630 0.339970 0.044740 -0.373482
O10   O     O_3   0.517370 0.839970 0.955260 -0.373466
V1    V     V_3+5 0.503220 0.064200 0.991700 1.413563
V2    V     V_3+5 0.496780 0.564200 0.008300 1.413563
C5    C     C_R   0.276802 0.005995 0.957195 0.024690
C6    C     C_R   0.723195 0.506020 0.042780 0.024643
C7    C     C_R   0.315712 0.852865 0.998393 -0.088816
C8    C     C_R   0.684287 0.352871 0.001598 -0.088810
C9    C     C_R   0.285642 0.702568 0.032372 -0.170479
C10   C     C_R   0.714355 0.202567 0.967620 -0.170529
H1    H     H_    0.313251 0.580101 0.063792 0.117909
H2    H     H_    0.686745 0.080093 0.936208 0.117913
C11   C     C_R   0.220518 0.714258 0.031912 -0.084910
C12   C     C_R   0.779478 0.214255 0.968075 -0.084926
H3    H     H_    0.200089 0.599947 0.062798 0.127100
H4    H     H_    0.799906 0.099933 0.937193 0.127160
C13   C     C_R   0.183343 0.876178 0.997066 -0.144265
C14   C     C_R   0.816653 0.376182 0.002912 -0.144305
C15   C     C_R   0.212327 0.016810 0.956411 0.002341
C16   C     C_R   0.787669 0.516837 0.043550 0.002463
C17   C     C_3   0.217280 0.226553 0.974343 0.350078
C18   C     C_3   0.782705 0.726555 0.025575 0.350095
C19   C     C_3   0.287347 0.213691 0.973171 -0.436192
C20   C     C_3   0.712643 0.713710 0.026778 -0.436328
H5    H     H_    0.212269 0.262241 0.044900 0.055663
H6    H     H_    0.787700 0.762166 0.955001 0.055630
H7    H     H_    0.321943 0.245136 0.042221 0.140883
H8    H     H_    0.678038 0.745113 0.957734 0.140925
H9    H     H_    0.297806 0.285626 0.912439 0.176812
H10   H     H_    0.702195 0.785691 0.087506 0.176771
C21   C     C_R   0.927037 0.887877 0.723604 -0.031954
C22   C     C_R   0.072959 0.387907 0.276400 -0.031983
C23   C     C_R   0.571758 0.850652 0.276294 -0.025483
C24   C     C_R   0.428243 0.350622 0.723706 -0.025484
C25   C     C_R   0.936475 0.947211 0.568141 -0.172534
C26   C     C_R   0.063537 0.447493 0.431852 -0.172537
C27   C     C_R   0.964777 0.931144 0.664034 -0.174026
C28   C     C_R   0.035230 0.431347 0.335963 -0.173983
C29   C     C_R   0.860752 0.860761 0.687382 -0.217906
C30   C     C_R   0.139241 0.360708 0.312627 -0.217912
C31   C     C_R   0.830259 0.881309 0.590259 0.113334
C32   C     C_R   0.169740 0.381349 0.409745 0.113338
C33   C     C_R   0.869783 0.924883 0.531043 0.144491
C34   C     C_R   0.130224 0.425085 0.468954 0.144472
C35   C     C_R   0.762120 0.864702 0.550374 -0.006048
C36   C     C_R   0.237876 0.364677 0.449631 -0.006065
C37   C     C_R   0.735083 0.888596 0.451617 0.058089
C38   C     C_R   0.264921 0.388660 0.548381 0.058075
C39   C     C_R   0.776798 0.933347 0.396317 -0.173947
C40   C     C_R   0.223215 0.433557 0.603674 -0.173939
C41   C     C_R   0.842566 0.950525 0.435438 -0.213199
C42   C     C_R   0.157449 0.450805 0.564553 -0.213207
C43   C     C_R   0.720188 0.827139 0.606099 -0.275080
C44   C     C_R   0.279800 0.326962 0.393910 -0.275037
C45   C     C_R   0.653743 0.816188 0.567830 0.437650
C46   C     C_R   0.346240 0.315901 0.432177 0.437659
C47   C     C_R   0.627017 0.830998 0.470664 0.034136
C48   C     C_R   0.372974 0.330790 0.529340 0.034110
C49   C     C_R   0.667238 0.867491 0.411369 0.021712
C50   C     C_R   0.332763 0.367481 0.588630 0.021739
C51   C     C_R   0.560257 0.807842 0.431839 -0.123790
C52   C     C_R   0.439727 0.307502 0.568168 -0.123836
C53   C     C_R   0.533037 0.816394 0.335405 -0.182663
C54   C     C_R   0.466951 0.316140 0.664600 -0.182513
C55   C     C_R   0.637893 0.876949 0.313484 -0.180199
C56   C     C_R   0.362113 0.377042 0.686512 -0.180229
H11   H     H_    0.872504 0.986908 0.390390 0.115101
H12   H     H_    0.127518 0.487298 0.609597 0.115145
H13   H     H_    0.664984 0.897302 0.263408 0.090486
H14   H     H_    0.335029 0.397557 0.736585 0.090521
H15   H     H_    0.481793 0.794559 0.306688 0.105242
H16   H     H_    0.518188 0.294197 0.693322 0.105127
H17   H     H_    0.966609 0.981512 0.523030 0.118188
H18   H     H_    0.033411 0.481924 0.476957 0.118188
H19   H     H_    0.015984 0.955053 0.692030 0.100305
H20   H     H_    0.984028 0.455333 0.307964 0.100324
H21   H     H_    0.834580 0.830354 0.737660 0.090218
H22   H     H_    0.165407 0.330175 0.262355 0.090242
H23   H     H_    0.760303 0.959571 0.322149 0.124494
H24   H     H_    0.239713 0.459838 0.677839 0.124574
H25   H     H_    0.737055 0.805698 0.680601 0.137110
H26   H     H_    0.262929 0.305488 0.319411 0.137159
H27   H     H_    0.528833 0.780156 0.475803 0.160535
H28   H     H_    0.471142 0.279639 0.524211 0.160499
O11   O     O_R   0.036080 0.231270 0.130120 -0.540156
O12   O     O_R   0.963920 0.731270 0.869880 -0.540159
O13   O     O_R   0.911300 0.558970 0.006750 -0.540585
O14   O     O_R   0.088700 0.058970 0.993250 -0.540628
C57   C     C_R   0.884708 0.389900 0.001125 0.685245
C58   C     C_R   0.115290 0.889901 0.998865 0.685184
O15   O     O_R   0.032450 0.561140 0.138040 -0.542928
O16   O     O_R   0.967550 0.061140 0.861960 -0.542942
O17   O     O_R   0.085870 0.728910 0.002130 -0.531275
O18   O     O_R   0.914130 0.228910 0.997870 -0.531265
C59   C     C_R   0.044757 0.392775 0.175034 0.683852
C60   C     C_R   0.955242 0.892770 0.824967 0.683839
O19   O     O_3   0.017320 0.394650 0.955270 -0.365088
O20   O     O_3   0.982680 0.894650 0.044730 -0.365049
V3    V     V_3+5 0.996780 0.670490 0.008300 1.454737
V4    V     V_3+5 0.003220 0.170490 0.991700 1.454675
O21   O     O_3   0.615187 0.774959 0.625667 -0.555470
C61   C     C_3   0.605196 0.942845 0.671098 -0.273599
H29   H     H_    0.571035 0.912405 0.712820 0.170650
H30   H     H_    0.583394 0.055624 0.619660 0.138189
H31   H     H_    0.650707 0.994123 0.720424 0.131914
O22   O     O_3   0.384773 0.274471 0.374333 -0.555473
C62   C     C_3   0.394930 0.442357 0.329040 -0.273648
H32   H     H_    0.428912 0.411599 0.287071 0.170664
H33   H     H_    0.417015 0.554663 0.380589 0.138295
H34   H     H_    0.349440 0.494419 0.279958 0.131898
O23   O     O_3   0.179908 0.350737 0.904340 -0.538174
C63   C     C_3   0.156255 0.266961 0.815014 -0.177063
H35   H     H_    0.120143 0.155655 0.816010 0.126754
H36   H     H_    0.195869 0.209389 0.788877 0.124245
H37   H     H_    0.131403 0.377660 0.765214 0.140730
O24   O     O_3   0.820105 0.850768 0.095534 -0.538162
C64   C     C_3   0.843656 0.767188 0.184923 -0.177011
H38   H     H_    0.879757 0.655776 0.184066 0.126740
H39   H     H_    0.803989 0.709805 0.211000 0.124167
H40   H     H_    0.868493 0.877960 0.234691 0.140716

loop_
_geom_bond_atom_site_label_1
_geom_bond_atom_site_label_2
_ccdc_geom_bond_type
C44   C46   A    
C2    C23   S    
C51   C53   A    
C27   H19   S    
C31   C33   A    
C20   H10   S    
O1    C3    A    
O16   C60   A    
O2    C4    A    
O24   C64   S    
C54   H16   S    
C2    O7    A    
C24   C54   A    
C61   H29   S    
O23   C63   S    
C25   C27   A    
C41   H11   S    
O5    C3    A    
C52   C54   A    
C25   H17   S    
C10   H2    S    
O15   V3    S    
C7    C9    A    
O21   C61   S    
C63   H36   S    
O19   V3    S    
C17   C19   S    
C35   C37   A    
C38   C50   A    
C36   C38   A    
O12   C60   A    
C14   C57   S    
C58   O17   A    
C38   C40   A    
C47   C49   A    
O22   C62   S    
C40   C42   A    
C46   O22   S    
O20   V3    S    
C30   H22   S    
C36   C44   A    
C43   C45   A    
C33   C41   A    
C48   C52   A    
C50   C56   A    
C34   C42   A    
C47   C51   A    
C18   C20   S    
C28   H20   S    
C44   H26   S    
C64   H40   S    
C22   C30   A    
C26   C28   A    
O17   V3    S    
O6    V2    S    
C42   H12   S    
C30   C32   A    
C62   H33   S    
C11   C13   A    
C32   C34   A    
C3    C8    S    
C37   C39   A    
C48   C50   A    
C15   C17   S    
C53   H15   S    
C52   H28   S    
C20   H8    S    
O4    C2    A    
O19   V4    S    
C24   C56   A    
O11   V4    S    
C31   C35   A    
C21   C27   A    
O18   V4    S    
C17   H5    S    
C40   H24   S    
O16   V4    S    
C29   C31   A    
C16   C18   S    
O4    V2    S    
C19   H7    S    
C56   H14   S    
C55   H13   S    
O6    C4    A    
O13   V3    S    
O14   C58   A    
O1    V2    S    
O2    V1    S    
C63   H37   S    
C46   C48   A    
O13   C57   A    
C8    C10   A    
O14   V4    S    
C9    H1    S    
C5    C15   A    
C26   H18   S    
C6    C16   A    
C51   H27   S    
C49   C55   A    
O3    V1    S    
C25   C33   A    
C64   H38   S    
C32   C36   A    
C22   C59   S    
C22   C28   A    
C57   O18   A    
C26   C34   A    
C9    C11   A    
O12   V3    S    
C18   H6    S    
C62   H34   S    
C39   C41   A    
C35   C43   A    
O3    C1    A    
C61   H30   S    
C62   H32   S    
C12   C14   A    
C11   H3    S    
C1    C24   S    
C12   H4    S    
C23   C53   A    
O15   C59   A    
C45   O21   S    
C1    O8    A    
C13   C15   A    
O8    V2    S    
C29   H21   S    
C14   C16   A    
C21   C29   A    
C4    C7    S    
O5    V1    S    
C43   H25   S    
C5    C7    A    
C13   C58   S    
C6    C8    A    
C21   C60   S    
O7    V1    S    
C19   H9    S    
O20   V4    S    
C61   H31   S    
O11   C59   A    
C18   O24   S    
C10   C12   A    
O9    V2    S    
C17   O23   S    
O10   V1    S    
C23   C55   A    
C5    C19   S    
C45   C47   A    
C6    C20   S    
C39   H23   S    
C37   C49   A    
C63   H35   S    
C64   H39   S    
