data_mof_unit_31065.cif
_audit_creation_date              2012-12-10T19:03:05-0500
_audit_creation_method            fapswitch 2.2
_symmetry_space_group_name_H-M    P1
_symmetry_Int_Tables_number       1
_space_group_crystal_system       triclinic
_cell_length_a                    10.874438
_cell_length_b                    10.878503
_cell_length_c                    9.640777
_cell_angle_alpha                 90.804623
_cell_angle_beta                  90.075899
_cell_angle_gamma                 93.494935
_cell_volume                      1138.2448007

loop_
_atom_site_label
_atom_site_type_symbol
_atom_type_description
_atom_site_fract_x
_atom_site_fract_y
_atom_site_fract_z
_atom_type_partial_charge
C1    C     C_R   0.501994 0.262646 0.498763 0.888134
C2    C     C_3   0.876649 0.487008 0.499059 -0.260587
C3    C     C_3   0.934250 0.614157 0.451984 -0.438726
C4    C     C_3   0.922646 0.380380 0.404182 0.147948
C5    C     C_R   0.482043 0.064825 0.619346 0.055316
C6    C     C_R   0.499111 0.128611 0.495370 -0.118722
C7    C     C_R   0.508435 0.061209 0.369375 0.462886
C8    C     C_R   0.502561 0.932232 0.372557 -0.278068
C9    C     C_R   0.494008 0.870067 0.499041 -0.164424
C10   C     C_R   0.479129 0.937436 0.621062 0.126448
C11   C     C_3   0.555842 0.938616 0.750025 0.182304
C12   C     C_R   0.259806 0.495220 0.500389 0.917500
C13   C     C_3   0.558814 0.077873 0.748410 -0.440246
C14   C     C_R   0.545586 0.600774 0.074896 0.105754
C15   C     C_R   0.435435 0.410938 0.072264 0.453441
C16   C     C_R   0.434939 0.411231 0.924595 0.405920
C17   C     C_R   0.546713 0.599987 0.928542 0.095145
C18   C     C_3   0.674272 0.659504 0.926718 0.177868
C19   C     C_3   0.669513 0.667377 0.084649 0.145878
C20   C     C_R   0.499684 0.737218 0.500488 0.794874
C21   C     C_R   0.739069 0.493070 0.499704 0.905272
C22   C     C_3   0.064803 0.444080 0.647669 0.550037
C23   C     C_3   0.924637 0.464430 0.648438 0.094609
C24   C     C_3   0.076084 0.625731 0.473828 0.601482
C25   C     C_3   0.064567 0.401100 0.380561 0.576562
C26   C     C_3   0.121062 0.491348 0.501601 -0.400529
Cu1   Cu    Cu3+1 0.499990 0.499980 0.640670 1.088762
Cu2   Cu    Cu3+1 0.500010 0.500020 0.359330 1.113048
H1    H     H_    0.913170 0.625592 0.341069 0.264714
H2    H     H_    0.511736 0.881174 0.276253 0.172518
H3    H     H_    0.647602 0.901581 0.733138 0.139321
H4    H     H_    0.509927 0.118326 0.837247 0.259043
H5    H     H_    0.652330 0.121394 0.728988 0.203968
H6    H     H_    0.682169 0.750357 0.877282 0.152837
H7    H     H_    0.666072 0.762517 0.127795 0.100152
H8    H     H_    0.910240 0.549947 0.708534 0.239814
H9    H     H_    0.889762 0.690005 0.507670 0.193015
H10   H     H_    0.905267 0.293563 0.462472 0.195782
N1    N     N_R   0.500800 0.500930 0.147930 -0.223311
N2    N     N_R   0.500800 0.500890 0.852020 -0.245671
O1    O     O_R   0.500000 0.319640 0.618810 -0.561773
O2    O     O_R   0.500010 0.319680 0.381230 -0.490883
O3    O     O_R   0.317690 0.499960 0.618790 -0.494058
O4    O     O_R   0.317700 0.500000 0.381210 -0.531687
O5    O     O_R   0.499990 0.680320 0.618770 -0.561174
O6    O     O_R   0.500000 0.680360 0.381190 -0.603592
O7    O     O_R   0.682300 0.500000 0.618790 -0.545555
O8    O     O_R   0.682310 0.500040 0.381210 -0.501643
Cl1   Cl    Cl    0.127673 0.518363 0.803478 -0.387850
Cl2   Cl    Cl    0.838144 0.345185 0.245866 -0.423355
O9    O     O_3   0.130036 0.677992 0.353758 -0.628929
H11   H     H_    0.216114 0.707175 0.376034 0.354883
O10   O     O_3   0.531624 0.121707 0.246227 -0.642244
H12   H     H_    0.535788 0.060762 0.169153 0.344370
O11   O     O_3   0.492161 0.887103 0.864564 -0.715430
H13   H     H_    0.408066 0.918052 0.867153 0.385577
Cl3   Cl    Cl    0.345442 0.295020 0.154713 -0.350546
Cl4   Cl    Cl    0.089643 0.284453 0.678104 -0.385381
Cl5   Cl    Cl    0.342749 0.296767 0.838165 -0.412352
O12   O     O_3   0.762224 0.580755 0.877357 -0.680096
H14   H     H_    0.743841 0.497306 0.915574 0.377748
O13   O     O_3   0.757572 0.598664 0.147915 -0.632219
H15   H     H_    0.838067 0.642343 0.127175 0.375158
O14   O     O_3   0.856460 0.365195 0.710085 -0.675225
H16   H     H_    0.878329 0.367029 0.810125 0.398589
Cl6   Cl    Cl    0.110990 0.735717 0.612682 -0.520546
Cl7   Cl    Cl    0.095435 0.459978 0.208509 -0.331840
Cl8   Cl    Cl    0.129519 0.253006 0.373574 -0.400015

loop_
_geom_bond_atom_site_label_1
_geom_bond_atom_site_label_2
_ccdc_geom_bond_type
C22   Cl4   S    
C2    C4    S    
O11   H13   S    
C13   H5    S    
O13   H15   S    
C11   C13   S    
C9    C10   A    
Cu1   O1    S    
C9    C20   S    
C5    C13   S    
C20   O5    A    
C25   Cl7   S    
C24   Cl6   S    
Cu1   N2    S    
C21   O8    A    
C8    H2    S    
O14   H16   S    
Cu1   O5    S    
C2    C21   S    
O12   H14   S    
C17   C18   S    
C14   N1    A    
C11   H3    S    
C7    C8    A    
C12   O4    A    
C19   H7    S    
O10   H12   S    
C18   O12   S    
C15   Cl3   S    
C14   C17   A    
Cu2   O6    S    
C3    C24   S    
C6    C7    A    
C25   Cl8   S    
C16   N2    A    
C22   Cl1   S    
C15   C16   A    
Cu2   O2    S    
C23   O14   S    
C4    H10   S    
C2    C3    S    
C12   O3    A    
C18   H6    S    
C5    C6    A    
C24   C26   S    
C24   O9    S    
C10   C11   S    
C7    O10   S    
C19   O13   S    
Cu1   O7    S    
O9    H11   S    
Cu1   O3    S    
C1    O2    A    
C5    C10   A    
C11   O11   S    
C4    C25   S    
C3    H9    S    
C23   H8    S    
C22   C26   S    
C1    O1    A    
C2    C23   S    
C3    H1    S    
C18   C19   S    
C22   C23   S    
Cu2   O8    S    
C13   H4    S    
Cu2   N1    S    
C21   O7    A    
C25   C26   S    
C16   Cl5   S    
C14   C19   S    
Cu2   O4    S    
C20   O6    A    
C4    Cl2   S    
C15   N1    A    
C12   C26   S    
C8    C9    A    
Cu1   Cu2   S    
C17   N2    A    
C1    C6    S    
