data_mof_unit_27327.cif
_audit_creation_date              2012-12-11T15:52:19-0500
_audit_creation_method            fapswitch 2.2
_symmetry_space_group_name_H-M    P1
_symmetry_Int_Tables_number       1
_space_group_crystal_system       triclinic
_cell_length_a                    11.03874
_cell_length_b                    11.075299
_cell_length_c                    18.848647
_cell_angle_alpha                 89.979982
_cell_angle_beta                  89.988197
_cell_angle_gamma                 120.033517
_cell_volume                      1994.98176634

loop_
_atom_site_label
_atom_site_type_symbol
_atom_type_description
_atom_site_fract_x
_atom_site_fract_y
_atom_site_fract_z
_atom_type_partial_charge
C1    C     C_R   0.520795 0.451532 0.144917 0.556423
C2    C     C_3   0.957801 0.708872 0.460215 -0.268324
C3    C     C_3   0.749868 0.031853 0.467170 -0.266279
C4    C     C_3   0.284707 0.249403 0.459500 -0.268498
C5    C     C_R   0.517629 0.457623 0.353116 0.543854
C6    C     C_R   0.544685 0.065025 0.354841 0.540594
C7    C     C_R   0.940285 0.482410 0.352991 0.544712
C8    C     C_R   0.454184 0.521736 0.644386 0.545902
C9    C     C_R   0.070459 0.547450 0.643733 0.547650
C10   C     C_R   0.480717 0.938304 0.646407 0.555321
C11   C     C_R   0.499692 0.995862 0.923152 0.025662
C12   C     C_R   0.546456 0.065434 0.146107 0.560347
C13   C     C_R   0.999014 0.501042 0.922232 -0.008145
C14   C     C_R   0.503146 0.496328 0.920633 0.045780
C15   C     C_R   0.974766 0.505221 0.071154 0.033547
C16   C     C_R   0.527714 0.022250 0.071886 0.042505
C17   C     C_R   0.501775 0.468437 0.069433 0.031457
C18   C     C_R   0.384806 0.957223 0.967684 -0.062234
C19   C     C_R   0.041990 0.429234 0.967280 -0.045945
C20   C     C_R   0.586951 0.609683 0.964431 0.014749
C21   C     C_R   0.027442 0.429468 0.039671 -0.050280
C22   C     C_R   0.399248 0.972991 0.040127 -0.052614
C23   C     C_R   0.933525 0.480879 0.145790 0.550254
C24   C     C_R   0.587004 0.594839 0.036926 -0.049187
C25   C     C_R   0.646961 0.062706 0.027490 0.088847
C26   C     C_R   0.930862 0.580862 0.026560 0.127595
C27   C     C_R   0.420204 0.349944 0.025522 0.085382
C28   C     C_R   0.927158 0.563719 0.952416 0.082379
C29   C     C_R   0.633462 0.061513 0.953151 0.069711
C30   C     C_R   0.431736 0.362964 0.950964 0.068066
C31   C     C_3   0.249464 0.824693 0.974091 -0.231158
C32   C     C_3   0.176769 0.430176 0.973710 -0.233138
C33   C     C_3   0.596954 0.748464 0.971449 -0.235732
C34   C     C_R   0.458533 0.519632 0.852016 0.558494
C35   C     C_3   0.161073 0.432528 0.053675 -0.280182
C36   C     C_3   0.265592 0.842197 0.053992 -0.269420
C37   C     C_3   0.596817 0.731031 0.051245 -0.288526
C38   C     C_R   0.501896 0.004376 0.577617 0.016488
C39   C     C_R   0.042322 0.526795 0.568254 0.020244
C40   C     C_R   0.476417 0.511798 0.569253 0.020382
C41   C     C_R   0.014193 0.513585 0.420321 0.018091
C42   C     C_R   0.521173 0.029589 0.429414 0.023263
C43   C     C_R   0.487820 0.499789 0.420887 0.018855
C44   C     C_R   0.631855 0.061986 0.544056 0.019413
C45   C     C_R   0.061712 0.542201 0.852278 0.539176
C46   C     C_R   0.051578 0.638451 0.529908 0.035149
C47   C     C_R   0.362738 0.412176 0.530516 0.042028
C48   C     C_R   0.038741 0.633218 0.457619 0.023017
C49   C     C_R   0.639816 0.072098 0.471534 0.046867
C50   C     C_R   0.366905 0.406027 0.458111 0.027868
C51   C     C_R   0.393754 0.991761 0.462923 -0.174293
C52   C     C_R   0.033217 0.413140 0.456205 -0.154386
C53   C     C_R   0.591986 0.616159 0.457475 -0.170547
C54   C     C_R   0.045734 0.418847 0.530444 -0.152277
C55   C     C_R   0.384389 0.980286 0.536938 -0.165035
C56   C     C_R   0.479337 0.936099 0.852858 0.571036
C57   C     C_R   0.587964 0.620476 0.531824 -0.166126
C58   C     C_3   0.745491 0.025427 0.547240 -0.269618
C59   C     C_3   0.972830 0.713975 0.539866 -0.277671
C60   C     C_3   0.282331 0.257742 0.539411 -0.276492
Cr1   Cr    Cr6+3 0.769160 0.541570 0.250690 1.012370
Cr2   Cr    Cr6+3 0.458430 0.227590 0.250690 1.029590
Cr3   Cr    Cr6+3 0.772410 0.230840 0.250690 1.030904
Cr4   Cr    Cr6+3 0.541570 0.769160 0.749310 1.015195
Cr5   Cr    Cr6+3 0.227590 0.458430 0.749310 1.022465
Cr6   Cr    Cr6+3 0.230840 0.772410 0.749310 1.005642
H1    H     H_    0.842093 0.108976 0.572538 0.128326
H2    H     H_    0.815817 0.646262 0.079950 0.277293
H3    H     H_    0.217198 0.201033 0.039265 0.200275
H4    H     H_    0.327368 0.142079 0.034728 0.240908
H5    H     H_    0.933413 0.717573 0.889976 0.245026
H6    H     H_    0.809574 0.552265 0.866568 0.242787
H7    H     H_    0.810343 0.225665 0.916001 0.234525
H8    H     H_    0.816755 0.075576 0.919907 0.222215
H9    H     H_    0.409342 0.183011 0.912778 0.236966
H10   H     H_    0.256263 0.184255 0.918965 0.220902
H11   H     H_    0.256865 0.734523 0.954221 0.139318
H12   H     H_    0.872041 0.650105 0.568268 0.139323
H13   H     H_    0.266894 0.526978 0.952604 0.133105
H14   H     H_    0.501664 0.747551 0.951940 0.136465
H15   H     H_    0.141603 0.336440 0.081535 0.161170
H16   H     H_    0.187435 0.863571 0.079331 0.182463
H17   H     H_    0.697273 0.803098 0.077613 0.154806
H18   H     H_    0.161844 0.835935 0.952882 0.158943
H19   H     H_    0.165633 0.331169 0.953581 0.154669
H20   H     H_    0.697831 0.832926 0.950338 0.152569
H21   H     H_    0.241214 0.531066 0.078832 0.124395
H22   H     H_    0.281346 0.761826 0.080783 0.124375
H23   H     H_    0.344289 0.217157 0.566390 0.143884
H24   H     H_    0.501931 0.720509 0.077685 0.129921
H25   H     H_    0.301371 0.967006 0.432109 0.121985
H26   H     H_    0.028315 0.326280 0.427727 0.117995
H27   H     H_    0.681674 0.696565 0.429511 0.116316
H28   H     H_    0.053380 0.337602 0.558135 0.125621
H29   H     H_    0.282913 0.940547 0.561369 0.138672
H30   H     H_    0.673889 0.704570 0.559941 0.117940
H31   H     H_    0.710825 0.919395 0.567287 0.162687
H32   H     H_    0.038884 0.821338 0.560675 0.134459
H33   H     H_    0.175814 0.218943 0.561287 0.132847
H34   H     H_    0.014610 0.813296 0.434667 0.129069
H35   H     H_    0.848032 0.641577 0.443327 0.169982
H36   H     H_    0.849994 0.115651 0.445801 0.138298
H37   H     H_    0.345846 0.201204 0.440946 0.173312
H38   H     H_    0.711050 0.928532 0.441661 0.136009
H39   H     H_    0.179553 0.206972 0.435003 0.124396
H40   H     H_    0.805904 0.021955 0.038581 0.202142
H41   H     H_    0.853377 0.189428 0.038350 0.241027
H42   H     H_    0.916168 0.759975 0.016987 0.233162
N1    N     N_3   0.778716 0.093701 0.057414 -0.584352
N2    N     N_3   0.912769 0.690882 0.055713 -0.615448
N3    N     N_3   0.315472 0.220965 0.056030 -0.583662
N4    N     N_3   0.859451 0.619491 0.909203 -0.637224
N5    N     N_3   0.753966 0.118545 0.907694 -0.606602
N6    N     N_3   0.362125 0.243120 0.905672 -0.607837
O1    O     O_R   0.911480 0.572650 0.170990 -0.505159
O2    O     O_R   0.528970 0.640340 0.824320 -0.514649
O3    O     O_R   0.111370 0.471030 0.824320 -0.497867
O4    O     O_R   0.359660 0.888630 0.824320 -0.510411
O5    O     O_R   0.909980 0.572450 0.331530 -0.525131
O6    O     O_R   0.427550 0.337530 0.331530 -0.526759
O7    O     O_R   0.662470 0.090020 0.331530 -0.521427
O8    O     O_R   0.572450 0.909980 0.668470 -0.522684
O9    O     O_R   0.337530 0.427550 0.668470 -0.516797
O10   O     O_R   0.090020 0.662470 0.668470 -0.520205
O11   O     O_R   0.638950 0.528780 0.324500 -0.509401
O12   O     O_R   0.427350 0.338830 0.170990 -0.472633
O13   O     O_R   0.471220 0.110170 0.324500 -0.512600
O14   O     O_R   0.889830 0.361050 0.324500 -0.506817
O15   O     O_R   0.528780 0.638950 0.675500 -0.510102
O16   O     O_R   0.110170 0.471220 0.675500 -0.506825
O17   O     O_R   0.361050 0.889830 0.675500 -0.507789
O18   O     O_3   0.666667 0.333333 0.250560 -0.262417
O19   O     O_3   0.333333 0.666667 0.749440 -0.264594
O20   O     O_R   0.661170 0.088520 0.170990 -0.477641
O21   O     O_R   0.572650 0.911480 0.829010 -0.488158
O22   O     O_R   0.338830 0.427350 0.829010 -0.488342
O23   O     O_R   0.088520 0.661170 0.829010 -0.533339
O24   O     O_R   0.640340 0.528970 0.175680 -0.520921
O25   O     O_R   0.471030 0.111370 0.175680 -0.493102
O26   O     O_R   0.888630 0.359660 0.175680 -0.490817

loop_
_geom_bond_atom_site_label_1
_geom_bond_atom_site_label_2
_ccdc_geom_bond_type
C3    H38   S    
C44   C49   A    
C40   C47   A    
H6    N4    S    
C11   C18   A    
Cr4   O2    S    
C46   C59   S    
Cr1   O5    S    
Cr3   O26   S    
C60   H33   S    
Cr5   O16   S    
C3    C49   S    
C9    O16   A    
C36   H22   S    
C37   H24   S    
C7    O5    A    
C19   C21   A    
C6    O13   A    
Cr2   O13   S    
Cr1   O24   S    
C39   C54   A    
C34   O2    A    
C4    H37   S    
C9    C39   S    
C9    O10   A    
H7    N5    S    
C20   C24   A    
C10   O17   A    
Cr1   O18   S    
C51   H25   S    
C47   C60   S    
C35   H21   S    
C43   C53   A    
C38   C55   A    
C12   C16   S    
C44   C58   S    
C57   H30   S    
Cr1   O1    S    
H10   N6    S    
C13   C28   A    
Cr2   O25   S    
C26   N2    S    
C41   C52   A    
Cr2   O6    S    
Cr3   O14   S    
C25   N1    S    
C42   C51   A    
C15   C23   S    
C5    C43   S    
Cr4   O21   S    
C27   N3    S    
C12   O20   A    
C27   C30   A    
H41   N1    S    
C58   H31   S    
C14   C30   A    
C19   C32   S    
C59   H12   S    
C26   C28   A    
Cr3   O7    S    
C52   C54   A    
C31   H11   S    
C47   C50   A    
C25   C29   A    
C46   C48   A    
C17   C24   A    
C13   C19   A    
C5    O6    A    
C53   H27   S    
C17   C27   A    
C32   C35   S    
Cr2   O18   S    
C23   O26   A    
C1    O12   A    
C55   H29   S    
C36   H16   S    
Cr2   O12   S    
C53   C57   A    
C2    C59   S    
C15   C26   A    
C2    H35   S    
C2    C48   S    
C60   H23   S    
H8    N5    S    
C23   O1    A    
C33   C37   S    
C31   H18   S    
C4    C50   S    
C33   H20   S    
Cr3   O20   S    
C38   C44   A    
C14   C20   A    
Cr6   O19   S    
C34   O22   A    
H5    N4    S    
C4    C60   S    
C45   O23   A    
C24   C37   S    
C12   O25   A    
C43   C50   A    
H9    N6    S    
H2    N2    S    
Cr3   O18   S    
C39   C46   A    
C20   C33   S    
C3    H36   S    
Cr6   O4    S    
C7    O14   A    
Cr5   O9    S    
Cr6   O10   S    
C52   H26   S    
C56   O21   A    
Cr6   O17   S    
C30   N6    S    
C45   O3    A    
C16   C25   A    
C29   N5    S    
Cr4   O19   S    
C16   C22   A    
C40   C57   A    
C18   C22   A    
C56   O4    A    
C10   O8    A    
C14   C34   S    
C33   H14   S    
C21   C35   S    
C22   C36   S    
C4    H39   S    
C1    C17   S    
C35   H15   S    
C10   C38   S    
C32   H13   S    
C13   C45   S    
H3    N3    S    
Cr6   O23   S    
Cr4   O8    S    
C32   H19   S    
C41   C48   A    
H42   N2    S    
C51   C55   A    
C7    C41   S    
C8    O9    A    
C54   H28   S    
Cr5   O22   S    
H4    N3    S    
C1    O24   A    
C42   C49   A    
C2    H34   S    
C3    C58   S    
C58   H1    S    
C15   C21   A    
Cr4   O15   S    
C11   C29   A    
C6    C42   S    
C5    O11   A    
C8    O15   A    
C59   H32   S    
Cr5   O3    S    
C31   C36   S    
C37   H17   S    
Cr1   O11   S    
C18   C31   S    
C8    C40   S    
C6    O7    A    
C28   N4    S    
Cr5   O19   S    
C11   C56   S    
H40   N1    S    
