data_mof_unit_60992.cif
_audit_creation_date              2012-12-10T19:52:05-0500
_audit_creation_method            fapswitch 2.2
_symmetry_space_group_name_H-M    P1
_symmetry_Int_Tables_number       1
_space_group_crystal_system       triclinic
_cell_length_a                    26.023241
_cell_length_b                    25.995712
_cell_length_c                    22.228567
_cell_angle_alpha                 89.980333
_cell_angle_beta                  125.987367
_cell_angle_gamma                 90.04815
_cell_volume                      12167.5070194

loop_
_atom_site_label
_atom_site_type_symbol
_atom_type_description
_atom_site_fract_x
_atom_site_fract_y
_atom_site_fract_z
_atom_type_partial_charge
C1    C     C_R   0.650250 0.749954 0.300586 0.503487
C2    C     C_3   0.495987 0.796033 0.024666 -0.111863
C3    C     C_R   0.270592 0.526384 0.466058 -0.015316
C4    C     C_R   0.748559 0.945881 0.500459 0.033648
C5    C     C_R   0.748600 0.054129 0.500537 0.033316
C6    C     C_R   0.243461 0.445773 0.494390 0.046414
C7    C     C_R   0.243489 0.554218 0.494446 0.046166
C8    C     C_R   0.714394 0.972797 0.521865 0.074256
C9    C     C_R   0.714421 0.027136 0.521912 0.074118
C10   C     C_R   0.207351 0.472669 0.513163 0.071890
C11   C     C_R   0.207371 0.527249 0.513198 0.071858
C12   C     C_3   0.790131 0.029649 0.421462 -0.100754
C13   C     C_3   0.000150 0.702914 0.024670 -0.110577
C14   C     C_3   0.790104 0.970551 0.421422 -0.102112
C15   C     C_3   0.332686 0.529763 0.475743 -0.105277
C16   C     C_3   0.332690 0.470397 0.475752 -0.105241
C17   C     C_R   0.609638 0.750163 0.499584 0.526080
C18   C     C_R   0.609822 0.250051 0.499938 0.503538
C19   C     C_R   0.109738 0.250121 0.499673 0.528521
C20   C     C_R   0.109799 0.749923 0.499802 0.502303
C21   C     C_R   0.748949 0.890026 0.499270 0.532435
C22   C     C_R   0.748958 0.109977 0.499300 0.533341
C23   C     C_R   0.249187 0.390050 0.499355 0.529276
C24   C     C_3   0.003602 0.297828 0.024720 -0.110748
C25   C     C_R   0.249196 0.609949 0.499383 0.530249
C26   C     C_R   0.750287 0.609879 0.497727 0.500275
C27   C     C_R   0.750464 0.390303 0.498587 0.499977
C28   C     C_R   0.249872 0.109859 0.501225 0.504920
C29   C     C_R   0.249637 0.890061 0.501512 0.497185
C30   C     C_R   0.695953 0.526353 0.459901 0.007155
C31   C     C_R   0.695987 0.473689 0.459757 0.008771
C32   C     C_R   0.206561 0.026205 0.442167 0.012163
C33   C     C_R   0.206619 0.973613 0.442319 0.011460
C34   C     C_R   0.751029 0.554473 0.487377 0.017455
C35   C     C_3   0.940611 0.737161 0.974836 -0.107306
C36   C     C_R   0.751978 0.446133 0.490329 0.014033
C37   C     C_R   0.248645 0.054060 0.506664 0.033205
C38   C     C_R   0.247479 0.945661 0.507140 0.035898
C39   C     C_R   0.804207 0.528009 0.499364 -0.010051
C40   C     C_R   0.806230 0.473079 0.504905 -0.014579
C41   C     C_R   0.284298 0.027410 0.576003 -0.015013
C42   C     C_R   0.281819 0.972402 0.576276 -0.008382
C43   C     C_3   0.856564 0.557099 0.503086 -0.367143
C44   C     C_3   0.864900 0.443480 0.525969 -0.365060
C45   C     C_3   0.324197 0.057823 0.647902 -0.367497
C46   C     C_3   0.941665 0.266119 0.974845 -0.107818
C47   C     C_3   0.313905 0.943423 0.649151 -0.375163
C48   C     C_3   0.850783 0.056826 0.441892 -0.395192
C49   C     C_3   0.850733 0.943450 0.441856 -0.392258
C50   C     C_3   0.385746 0.556854 0.547628 -0.401289
C51   C     C_3   0.385733 0.443368 0.547665 -0.399644
C52   C     C_3   0.584578 0.444524 0.405919 -0.370227
C53   C     C_3   0.585391 0.556891 0.407573 -0.362160
C54   C     C_3   0.237825 0.942825 0.359126 -0.395198
C55   C     C_3   0.237486 0.056413 0.358347 -0.396900
C56   C     C_3   0.629476 0.256212 0.053308 -0.408062
C57   C     C_3   0.438821 0.246913 0.974804 -0.107059
C58   C     C_3   0.627950 0.731504 0.053285 -0.407878
C59   C     C_3   0.126091 0.777590 0.053308 -0.408686
C60   C     C_3   0.123837 0.215460 0.053287 -0.408452
C61   C     C_3   0.439535 0.758862 0.974812 -0.107719
C62   C     C_1   0.889554 0.749960 0.778862 -0.001078
C63   C     C_1   0.889570 0.250052 0.778873 -0.000822
C64   C     C_1   0.389481 0.249860 0.778853 -0.003217
C65   C     C_R   0.650262 0.250041 0.300603 0.504942
C66   C     C_1   0.389496 0.750149 0.778864 -0.003624
C67   C     C_1   0.610424 0.250045 0.221158 -0.004652
C68   C     C_1   0.610406 0.749943 0.221146 -0.004248
C69   C     C_1   0.110498 0.750135 0.221165 -0.004693
C70   C     C_1   0.110476 0.249858 0.221153 -0.004487
C71   C     C_3   0.022547 0.715760 0.975262 -0.087379
C72   C     C_3   0.024952 0.281698 0.975304 -0.087075
C73   C     C_3   0.514552 0.209072 0.975205 -0.088459
C74   C     C_3   0.519321 0.787396 0.975262 -0.088242
C75   C     C_3   0.963678 0.750104 0.926836 0.039445
C76   C     C_R   0.150269 0.249933 0.300588 0.500186
C77   C     C_3   0.963678 0.249894 0.926839 0.039484
C78   C     C_3   0.463551 0.249857 0.926823 0.039480
C79   C     C_3   0.463552 0.750124 0.926825 0.039471
C80   C     C_3   0.560232 0.252846 0.024575 0.031989
C81   C     C_3   0.559518 0.741419 0.024565 0.031886
C82   C     C_3   0.058721 0.762932 0.024576 0.031638
C83   C     C_3   0.057666 0.233826 0.024566 0.031670
C84   C     C_3   0.536443 0.249943 0.073149 0.059060
C85   C     C_3   0.536432 0.750039 0.073146 0.059119
C86   C     C_3   0.036568 0.750159 0.073162 0.058847
C87   C     C_R   0.150283 0.750064 0.300605 0.502234
C88   C     C_3   0.036552 0.249838 0.073159 0.058804
C89   C     C_3   1.000000 0.797471 0.975046 -0.088406
C90   C     C_3   0.996523 0.201779 0.974994 -0.088139
C91   C     C_3   0.509404 0.293675 0.975090 -0.087975
C92   C     C_3   0.503911 0.704017 0.975025 -0.087737
C93   C     C_R   0.849707 0.749955 0.699406 0.502481
C94   C     C_R   0.849719 0.250050 0.699423 0.502447
C95   C     C_R   0.349689 0.249933 0.699403 0.499648
C96   C     C_R   0.349699 0.750072 0.699420 0.497032
C97   C     C_3   0.485380 0.290627 0.024484 -0.109444
C98   C     C_3   0.644870 0.470588 0.471306 -0.118430
C99   C     C_3   0.480613 0.712857 0.024426 -0.109437
C100  C     C_3   0.977660 0.784425 0.024459 -0.110146
C101  C     C_3   0.975245 0.218105 0.024416 -0.110244
C102  C     C_1   0.923044 0.750013 0.845689 -0.059789
C103  C     C_1   0.923056 0.249996 0.845697 -0.059502
C104  C     C_1   0.422937 0.249836 0.845678 -0.061336
C105  C     C_1   0.422949 0.750165 0.845686 -0.061707
C106  C     C_1   0.576963 0.250006 0.154340 -0.058685
C107  C     C_1   0.576945 0.749980 0.154331 -0.058682
C108  C     C_1   0.077069 0.750159 0.154349 -0.058295
C109  C     C_3   0.645281 0.529820 0.471978 -0.115762
C110  C     C_1   0.077047 0.249836 0.154340 -0.058350
C111  C     C_R   0.500007 0.721257 0.447995 0.072669
C112  C     C_R   0.500741 0.279669 0.449521 0.051995
C113  C     C_R   0.003045 0.217705 0.453308 0.072895
C114  C     C_R   0.004447 0.783887 0.456046 0.054501
C115  C     C_R   0.551482 0.753748 0.494560 0.002315
C116  C     C_R   0.552060 0.247036 0.495802 -0.006577
C117  C     C_R   0.051705 0.253387 0.494748 0.001396
C118  C     C_R   0.051943 0.747011 0.495314 -0.006992
C119  C     C_R   0.544385 0.792556 0.533122 -0.168866
C120  C     C_3   0.188271 0.969942 0.364615 -0.114031
C121  C     C_R   0.544683 0.207989 0.533879 -0.161448
C122  C     C_R   0.041866 0.294505 0.527826 -0.155660
C123  C     C_R   0.040657 0.704989 0.525853 -0.159888
C124  C     C_R   0.490627 0.793786 0.533436 0.064064
C125  C     C_R   0.490689 0.206473 0.533704 0.066047
C126  C     C_R   0.987729 0.295927 0.527601 0.072298
C127  C     C_R   0.986455 0.703755 0.525390 0.067511
C128  C     C_R   0.443269 0.755235 0.494696 0.054506
C129  C     C_R   0.443225 0.244863 0.494704 0.054232
C130  C     C_R   0.943244 0.254823 0.494290 0.046115
C131  C     C_3   0.188169 0.029269 0.364326 -0.115134
C132  C     C_R   0.943106 0.745490 0.494165 0.056174
C133  C     C_R   0.447276 0.721846 0.448561 -0.057667
C134  C     C_R   0.447452 0.278410 0.448863 -0.059030
C135  C     C_R   0.950028 0.218309 0.453324 -0.055115
C136  C     C_R   0.951018 0.783018 0.455242 -0.055723
C137  C     C_3   0.436678 0.665116 0.437545 -0.245449
C138  C     C_3   0.435673 0.334941 0.436656 -0.208814
C139  C     C_3   0.944720 0.160937 0.451606 -0.256606
C140  C     C_3   0.946736 0.840340 0.456113 -0.220289
C141  C     C_R   0.889810 0.749289 0.499266 0.523916
C142  C     C_3   0.490518 0.206231 0.024603 -0.111808
C143  C     C_R   0.889876 0.250745 0.499337 0.519920
C144  C     C_R   0.389825 0.249210 0.499387 0.521971
C145  C     C_R   0.389893 0.750768 0.499475 0.523724
C146  C     C_3   0.495133 0.663975 0.436927 0.211705
C147  C     C_3   0.495154 0.337043 0.438230 0.210046
C148  C     C_3   0.003819 0.159985 0.452240 0.214364
C149  C     C_3   0.006536 0.841722 0.458341 0.211295
C150  C     C_R   0.785910 0.973535 0.485706 -0.021488
C151  C     C_R   0.785931 0.026561 0.485743 -0.021147
C152  C     C_R   0.270587 0.473678 0.466042 -0.015640
H1    H     H_    0.581472 0.820872 0.565520 0.146160
H2    H     H_    0.390782 0.343574 0.381463 0.124424
H3    H     H_    0.544160 0.545975 0.407488 0.123620
H4    H     H_    0.591701 0.599098 0.415011 0.225251
H5    H     H_    0.575147 0.547079 0.352869 0.138219
H6    H     H_    0.233815 0.900566 0.362437 0.141505
H7    H     H_    0.228650 0.951621 0.304739 0.128695
H8    H     H_    0.286976 0.954613 0.404750 0.144467
H9    H     H_    0.228114 0.047453 0.303903 0.129357
H10   H     H_    0.233409 0.098677 0.361453 0.139820
H11   H     H_    0.286716 0.044794 0.403876 0.143942
H12   H     H_    0.632645 0.257826 0.005691 0.127122
H13   H     H_    0.900833 0.147225 0.398710 0.122668
H14   H     H_    0.651259 0.291400 0.087634 0.132972
H15   H     H_    0.655479 0.221887 0.087729 0.134656
H16   H     H_    0.630727 0.726691 0.005665 0.127247
H17   H     H_    0.658073 0.764516 0.087763 0.135002
H18   H     H_    0.645412 0.696008 0.087551 0.133159
H19   H     H_    0.128354 0.784740 0.005693 0.127553
H20   H     H_    0.140481 0.812976 0.087587 0.131176
H21   H     H_    0.159016 0.745841 0.087778 0.134720
H22   H     H_    0.125521 0.206493 0.005668 0.128319
H23   H     H_    0.159030 0.246016 0.087793 0.134765
H24   H     H_    0.903508 0.855027 0.403416 0.116766
H25   H     H_    0.135662 0.180353 0.087528 0.131029
H26   H     H_    0.746404 0.046083 0.370875 0.137530
H27   H     H_    0.746371 0.954099 0.370814 0.137504
H28   H     H_    0.326475 0.545974 0.425529 0.133891
H29   H     H_    0.326500 0.454192 0.425556 0.134953
H30   H     H_    0.662038 0.453599 0.526091 0.127215
H31   H     H_    0.663125 0.546107 0.527348 0.133747
H32   H     H_    0.139798 0.953594 0.325677 0.141434
H33   H     H_    0.581631 0.179578 0.566081 0.146170
H34   H     H_    0.139620 0.045380 0.325207 0.141361
H35   H     H_    0.891236 0.726503 0.953197 0.109066
H36   H     H_    0.893159 0.279473 0.953209 0.108458
H37   H     H_    0.388081 0.244455 0.953150 0.109886
H38   H     H_    0.389383 0.766078 0.953159 0.108376
H39   H     H_    0.483099 0.170425 0.045809 0.104382
H40   H     H_    0.493059 0.833730 0.045928 0.104142
H41   H     H_    0.000527 0.664164 0.045924 0.106542
H42   H     H_    0.006820 0.337200 0.046017 0.106527
H43   H     H_    0.473750 0.324002 0.045597 0.107453
H44   H     H_    0.077019 0.324806 0.555612 0.143375
H45   H     H_    0.465083 0.682371 0.045492 0.107282
H46   H     H_    0.959608 0.812494 0.045541 0.107249
H47   H     H_    0.955223 0.192122 0.045464 0.107178
H48   H     H_    0.999904 0.836201 0.953919 0.104393
H49   H     H_    0.993586 0.162412 0.953825 0.104695
H50   H     H_    0.517097 0.329415 0.954010 0.103635
H51   H     H_    0.507118 0.666359 0.953889 0.103881
H52   H     H_    0.040844 0.687821 0.954312 0.106514
H53   H     H_    0.045207 0.307540 0.954388 0.107384
H54   H     H_    0.526441 0.175787 0.954213 0.104023
H55   H     H_    0.074631 0.673794 0.552133 0.145125
H56   H     H_    0.535097 0.817769 0.954319 0.104557
H57   H     H_    0.843638 0.597265 0.483165 0.165011
H58   H     H_    0.900604 0.556904 0.560840 0.147417
H59   H     H_    0.865765 0.539228 0.464924 0.108606
H60   H     H_    0.851203 0.413483 0.483460 0.131863
H61   H     H_    0.902291 0.467120 0.530419 0.106639
H62   H     H_    0.887608 0.425502 0.581405 0.174162
H63   H     H_    0.364361 0.076437 0.651641 0.166346
H64   H     H_    0.294484 0.087684 0.649425 0.135336
H65   H     H_    0.345490 0.034531 0.698901 0.112531
H66   H     H_    0.443292 0.645615 0.486209 0.114903
H67   H     H_    0.366256 0.947427 0.681468 0.139191
H68   H     H_    0.297490 0.958808 0.681760 0.116425
H69   H     H_    0.301846 0.902021 0.642293 0.149572
H70   H     H_    0.487534 0.868762 0.554860 0.221841
H71   H     H_    0.525760 0.830283 0.630643 0.226968
H72   H     H_    0.487600 0.131377 0.554705 0.221285
H73   H     H_    0.525376 0.169739 0.630633 0.226116
H74   H     H_    0.941957 0.360467 0.519986 0.219968
H75   H     H_    0.019177 0.361768 0.590927 0.215566
H76   H     H_    0.974931 0.627459 0.530715 0.213933
H77   H     H_    0.440566 0.354594 0.484236 0.129398
H78   H     H_    0.016342 0.657974 0.613728 0.229843
H79   H     H_    0.535778 0.597226 0.494973 0.213748
H80   H     H_    0.559343 0.649375 0.549480 0.210611
H81   H     H_    0.588242 0.360952 0.504331 0.252863
H82   H     H_    0.556449 0.352580 0.550920 0.209687
H83   H     H_    0.051225 0.098245 0.520312 0.223208
H84   H     H_    0.066900 0.153766 0.566714 0.209179
H85   H     H_    0.101706 0.858966 0.527598 0.259153
H86   H     H_    0.070392 0.843093 0.573182 0.209437
H87   H     H_    0.446086 0.672918 0.323177 0.218456
H88   H     H_    0.952263 0.145255 0.502802 0.114252
H89   H     H_    0.462382 0.611828 0.352794 0.207450
H90   H     H_    0.448631 0.327993 0.324901 0.220131
H91   H     H_    0.462315 0.389206 0.354145 0.220490
H92   H     H_    0.953786 0.157557 0.337720 0.211489
H93   H     H_    0.981272 0.100409 0.380402 0.216886
H94   H     H_    0.957701 0.847887 0.344239 0.214212
H95   H     H_    0.986522 0.903662 0.391013 0.232974
H96   H     H_    0.691809 0.954792 0.592685 0.229367
H97   H     H_    0.629153 0.955372 0.501196 0.216486
H98   H     H_    0.691872 0.045016 0.592776 0.229240
H99   H     H_    0.953656 0.854781 0.507518 0.128146
H100  H     H_    0.629205 0.044459 0.501292 0.216766
H101  H     H_    0.187415 0.454882 0.586389 0.228621
H102  H     H_    0.123557 0.454766 0.495618 0.217079
H103  H     H_    0.187463 0.544926 0.586458 0.228405
H104  H     H_    0.123598 0.545045 0.495691 0.217315
H105  H     H_    0.893023 0.044879 0.497390 0.137417
H106  H     H_    0.858993 0.048611 0.399168 0.121377
H107  H     H_    0.844962 0.098947 0.443211 0.167527
H108  H     H_    0.893000 0.955494 0.497297 0.141208
H109  H     H_    0.844909 0.901336 0.443327 0.165908
H110  H     H_    0.391382 0.655678 0.383167 0.130005
H111  H     H_    0.858880 0.951611 0.399057 0.122932
H112  H     H_    0.385879 0.545274 0.595814 0.139067
H113  H     H_    0.432514 0.547794 0.559380 0.124380
H114  H     H_    0.379017 0.599131 0.540578 0.144259
H115  H     H_    0.385849 0.454948 0.595831 0.138213
H116  H     H_    0.378999 0.401083 0.540646 0.143713
H117  H     H_    0.432511 0.452486 0.559435 0.130412
H118  H     H_    0.591357 0.402333 0.409200 0.205167
H119  H     H_    0.544362 0.453042 0.408864 0.145719
H120  H     H_    0.572586 0.457501 0.351445 0.138269
N1    N     N_3   0.485980 0.833006 0.575300 -0.584528
N2    N     N_3   0.482565 0.352507 0.367309 -0.595684
N3    N     N_3   0.992979 0.139352 0.384301 -0.554010
N4    N     N_3   0.997092 0.864696 0.392301 -0.568812
N5    N     N_3   0.676784 0.944994 0.539035 -0.599185
N6    N     N_3   0.676847 0.054861 0.539139 -0.598777
N7    N     N_3   0.171402 0.444681 0.532509 -0.601515
N8    N     N_3   0.171451 0.555161 0.532587 -0.600963
N9    N     N_3   0.485807 0.167032 0.575161 -0.586850
N10   N     N_3   0.979006 0.338104 0.562532 -0.587951
N11   N     N_3   0.976872 0.660832 0.558232 -0.600752
N12   N     N_3   0.549237 0.635715 0.499281 -0.592058
N13   N     N_3   0.547036 0.366647 0.501232 -0.620509
N14   N     N_3   0.060070 0.137393 0.519487 -0.571951
N15   N     N_3   0.061760 0.863541 0.527506 -0.605672
N16   N     N_3   0.481363 0.648997 0.365257 -0.585118
O1    O     O_3   0.749980 0.749980 0.500000 -0.444613
O2    O     O_R   0.612630 0.280380 0.456900 -0.532002
O3    O     O_R   0.112630 0.219620 0.456900 -0.496352
O4    O     O_R   0.112630 0.780380 0.456900 -0.520959
O5    O     O_R   0.698160 0.780350 0.335610 -0.541168
O6    O     O_R   0.698160 0.219650 0.335610 -0.541292
O7    O     O_R   0.198160 0.280350 0.335610 -0.539305
O8    O     O_R   0.198160 0.719650 0.335610 -0.538727
O9    O     O_R   0.801810 0.780340 0.664390 -0.538829
O10   O     O_R   0.801810 0.219660 0.664390 -0.539725
O11   O     O_R   0.301810 0.280340 0.664390 -0.537945
O12   O     O_3   0.749980 0.250020 0.500000 -0.440656
O13   O     O_R   0.301810 0.719660 0.664390 -0.539715
O14   O     O_R   0.637440 0.719620 0.335610 -0.537390
O15   O     O_R   0.637440 0.280380 0.335610 -0.534129
O16   O     O_R   0.137440 0.219620 0.335610 -0.539069
O17   O     O_R   0.137440 0.780380 0.335610 -0.535794
O18   O     O_R   0.862520 0.719620 0.664390 -0.536559
O19   O     O_R   0.862520 0.280380 0.664390 -0.534968
O20   O     O_R   0.362520 0.219620 0.664390 -0.543343
O21   O     O_R   0.362520 0.780380 0.664390 -0.542993
O22   O     O_R   0.844240 0.780350 0.456900 -0.561519
O23   O     O_3   0.249980 0.249980 0.500000 -0.447400
O24   O     O_R   0.844240 0.219650 0.456900 -0.558081
O25   O     O_R   0.344240 0.280350 0.456900 -0.561562
O26   O     O_R   0.344240 0.719650 0.456900 -0.559419
O27   O     O_R   0.655730 0.780340 0.543100 -0.551369
O28   O     O_R   0.655730 0.219660 0.543100 -0.545650
O29   O     O_R   0.155730 0.280340 0.543100 -0.550925
O30   O     O_R   0.155730 0.719660 0.543100 -0.545990
O31   O     O_R   0.758800 0.865790 0.456890 -0.564935
O32   O     O_R   0.758800 0.134210 0.456890 -0.564265
O33   O     O_R   0.258800 0.365790 0.456890 -0.556444
O34   O     O_3   0.249980 0.750020 0.500000 -0.445133
O35   O     O_R   0.258800 0.634210 0.456890 -0.555761
O36   O     O_R   0.698070 0.634180 0.456910 -0.548228
O37   O     O_R   0.698070 0.365820 0.456910 -0.552567
O38   O     O_R   0.198070 0.134180 0.456910 -0.528250
O39   O     O_R   0.198070 0.865820 0.456910 -0.539447
O40   O     O_R   0.741170 0.865780 0.543090 -0.502255
O41   O     O_R   0.741170 0.134220 0.543090 -0.501231
O42   O     O_R   0.241170 0.365780 0.543090 -0.506938
O43   O     O_R   0.241170 0.634220 0.543090 -0.505634
O44   O     O_R   0.801880 0.634180 0.543110 -0.542834
O45   O     O_R   0.887330 0.719620 0.543100 -0.505781
O46   O     O_R   0.801880 0.365820 0.543110 -0.551360
O47   O     O_R   0.301880 0.134180 0.543110 -0.551280
O48   O     O_R   0.301880 0.865820 0.543110 -0.544005
O49   O     O_R   0.887330 0.280380 0.543100 -0.509109
O50   O     O_R   0.387330 0.219620 0.543100 -0.499724
O51   O     O_R   0.387330 0.780380 0.543100 -0.498687
O52   O     O_R   0.612630 0.719620 0.456900 -0.504822
Zn1   Zn    Zn3+2 0.824140 0.706600 0.561580 0.941320
Zn2   Zn    Zn3+2 0.737390 0.206640 0.561570 0.945463
Zn3   Zn    Zn3+2 0.237390 0.293360 0.561570 0.944108
Zn4   Zn    Zn3+2 0.237390 0.706640 0.561570 0.939489
Zn5   Zn    Zn3+2 0.675820 0.706600 0.438430 0.945726
Zn6   Zn    Zn3+2 0.675820 0.293400 0.438430 0.930034
Zn7   Zn    Zn3+2 0.175820 0.206600 0.438430 0.963037
Zn8   Zn    Zn3+2 0.175820 0.793400 0.438430 0.942923
Zn9   Zn    Zn3+2 0.824140 0.293400 0.561580 0.935204
Zn10  Zn    Zn3+2 0.324140 0.206600 0.561580 0.934846
Zn11  Zn    Zn3+2 0.324140 0.793400 0.561580 0.935919
Zn12  Zn    Zn3+2 0.762580 0.793360 0.438420 0.912295
Zn13  Zn    Zn3+2 0.762580 0.206640 0.438420 0.914917
Zn14  Zn    Zn3+2 0.262580 0.293360 0.438420 0.916182
Zn15  Zn    Zn3+2 0.262580 0.706640 0.438420 0.919063
Zn16  Zn    Zn3+2 0.737390 0.793360 0.561570 0.946391

loop_
_geom_bond_atom_site_label_1
_geom_bond_atom_site_label_2
_ccdc_geom_bond_type
C73   H54   S    
C133  C137  S    
C60   H22   S    
C136  C140  S    
C143  O24   A    
O8    Zn15  S    
C20   C118  S    
C135  C139  S    
C48   H106  S    
C44   H62   S    
C2    H40   S    
C49   H108  S    
C128  C145  S    
C23   O42   A    
C1    C68   S    
O18   Zn1   S    
C52   H118  S    
C51   H115  S    
H92   N3    S    
C43   H59   S    
O22   Zn12  S    
O35   Zn15  S    
C96   O21   A    
C71   C82   S    
C137  H110  S    
C23   O33   A    
C83   C88   S    
C119  H1    S    
C98   C109  S    
C148  N14   S    
C149  N15   S    
C93   O9    A    
C140  H99   S    
O6    Zn13  S    
C59   H19   S    
C73   C142  S    
C116  C121  A    
C30   C109  S    
C137  C146  S    
O13   Zn4   S    
C60   H25   S    
C22   O32   A    
O34   Zn15  S    
H74   N10   S    
O49   Zn9   S    
H102  N7    S    
H71   N1    S    
C84   C142  S    
C140  H24   S    
C57   C97   S    
O36   Zn5   S    
H91   N2    S    
C92   H51   S    
C74   C79   S    
C9    N6    S    
C77   C103  S    
C74   C81   S    
O45   Zn1   S    
H75   N10   S    
C11   N8    S    
C76   O16   A    
O40   Zn16  S    
C53   C109  S    
C89   H48   S    
O4    Zn8   S    
C57   C78   S    
C86   C108  S    
O26   Zn15  S    
C112  C134  A    
C27   O37   A    
C46   C77   S    
C26   O44   A    
C4    C150  A    
C56   H12   S    
C33   C38   A    
C5    C151  A    
C24   C46   S    
C97   H43   S    
C55   H11   S    
C52   H120  S    
H70   N1    S    
C52   C98   S    
C45   H63   S    
H97   N5    S    
C43   H57   S    
O41   Zn2   S    
C125  C129  A    
C113  C135  A    
C62   C93   S    
C41   C45   S    
C31   C36   A    
C44   H60   S    
H86   N15   S    
C100  H46   S    
C12   H26   S    
C122  C126  A    
O50   Zn10  S    
C6    C152  A    
C59   C82   S    
C8    N5    S    
C129  C144  S    
C5    C9    A    
C18   O2    A    
C63   C94   S    
C82   C89   S    
C57   C142  S    
C17   O27   A    
C113  C148  S    
C18   O28   A    
C13   C35   S    
O46   Zn9   S    
C124  N1    S    
C31   C98   S    
C139  H13   S    
O12   Zn9   S    
C70   C110  T    
C54   H7    S    
C81   C92   S    
O16   Zn7   S    
C29   C38   S    
O20   Zn10  S    
C10   N7    S    
C58   H16   S    
C47   H69   S    
C50   H113  S    
O12   Zn2   S    
C20   O30   A    
C71   H52   S    
C46   C101  S    
C139  C148  S    
C21   O31   A    
C30   C34   A    
C78   C104  S    
C34   C39   A    
C20   O4    A    
C149  N4    S    
C58   H17   S    
C55   H9    S    
C76   O7    A    
C111  C146  S    
C39   C40   A    
O7    Zn14  S    
O30   Zn4   S    
O31   Zn12  S    
O5    Zn12  S    
C117  C122  A    
O2    Zn6   S    
C57   H37   S    
C85   C99   S    
O12   Zn13  S    
C123  C127  A    
C25   O35   A    
C24   H42   S    
C145  O26   A    
C132  C136  A    
C79   C92   S    
O9    Zn16  S    
C32   C37   A    
C94   O10   A    
C120  H32   S    
C113  C117  A    
H76   N11   S    
O32   Zn13  S    
C125  N9    S    
C53   H3    S    
C115  C119  A    
C1    O14   A    
O52   Zn5   S    
C66   C105  T    
C35   C100  S    
C112  C116  A    
C146  N12   S    
C17   C115  S    
C132  C141  S    
C64   C104  T    
C114  C136  A    
C139  H88   S    
C101  H47   S    
H82   N13   S    
C47   H68   S    
C87   O8    A    
C56   C80   S    
C112  C147  S    
C1    O5    A    
O1    Zn16  S    
O11   Zn3   S    
C88   C110  S    
C138  H2    S    
C28   C37   S    
C61   C79   S    
C56   H15   S    
C12   C48   S    
C37   C41   A    
C91   H50   S    
C10   C11   A    
C75   C89   S    
C147  N13   S    
O43   Zn4   S    
C40   C44   S    
C33   C120  S    
C150  C151  A    
C19   O3    A    
C140  C149  S    
C32   C131  S    
C81   C85   S    
O37   Zn6   S    
C92   C99   S    
O34   Zn11  S    
C62   C102  T    
O3    Zn7   S    
C93   O18   A    
H103  N8    S    
O21   Zn11  S    
C120  C131  S    
C41   C42   A    
C130  C135  A    
C80   C84   S    
O12   Zn6   S    
O14   Zn5   S    
C50   H112  S    
C65   O15   A    
C24   C72   S    
C3    C152  A    
C84   C97   S    
H98   N6    S    
C3    C7    A    
O34   Zn4   S    
C30   C31   A    
C60   C83   S    
C126  C130  A    
H83   N14   S    
C2    C85   S    
C83   C90   S    
H100  N6    S    
H101  N7    S    
C65   O6    A    
H81   N13   S    
O39   Zn8   S    
C65   C67   S    
C84   C106  S    
C16   C51   S    
O10   Zn2   S    
C68   C107  T    
H73   N9    S    
O42   Zn3   S    
C86   C100  S    
C69   C87   S    
C2    C61   S    
C124  C128  A    
C26   O36   A    
C109  H31   S    
C13   H41   S    
O24   Zn13  S    
C19   O29   A    
C77   C90   S    
C48   H105  S    
C89   C100  S    
C44   H61   S    
C64   C95   S    
O47   Zn10  S    
C63   C103  T    
C58   C81   S    
C18   C116  S    
C49   H109  S    
C16   H29   S    
O34   Zn8   S    
C13   C71   S    
C22   O41   A    
C59   H21   S    
C82   C86   S    
H78   N11   S    
C98   H30   S    
H72   N9    S    
C51   H116  S    
C14   C150  S    
C16   C152  S    
C91   C97   S    
O48   Zn11  S    
C24   C88   S    
C55   C131  S    
C94   O19   A    
C61   H38   S    
O15   Zn6   S    
C141  O45   A    
H84   N14   S    
C59   H20   S    
H85   N15   S    
C95   O20   A    
C66   C96   S    
O28   Zn2   S    
C6    C10   A    
C67   C106  T    
C72   H53   S    
C27   C36   S    
C7    C25   S    
C32   C33   A    
C80   C91   S    
C126  N10   S    
C144  O50   A    
C118  C123  A    
O23   Zn3   S    
C72   C83   S    
C146  N16   S    
C21   O40   A    
C54   H8    S    
C129  C134  A    
C14   C49   S    
C19   C117  S    
C35   H35   S    
C56   H14   S    
C60   H23   S    
C114  C149  S    
H95   N4    S    
O44   Zn1   S    
H87   N16   S    
C50   H114  S    
C48   H107  S    
C54   C120  S    
C45   H65   S    
C6    C23   S    
O38   Zn7   S    
C4    C8    A    
C88   C101  S    
C49   H111  S    
C74   H56   S    
C119  C124  A    
C7    C11   A    
C35   C75   S    
C58   H18   S    
O33   Zn14  S    
C38   C42   A    
C144  O25   A    
C52   H119  S    
C142  H39   S    
C15   C16   S    
C45   H64   S    
C79   C105  S    
C15   C50   S    
C127  N11   S    
C43   H58   S    
O1    Zn1   S    
C127  C132  A    
O23   Zn7   S    
O29   Zn3   S    
O23   Zn14  S    
C121  C125  A    
C26   C34   S    
C28   O38   A    
C5    C22   S    
C8    C9    A    
C137  H66   S    
C75   C102  S    
C73   C78   S    
C14   H27   S    
C2    C74   S    
C90   H49   S    
O51   Zn11  S    
C143  O49   A    
C15   H28   S    
O27   Zn16  S    
C12   C151  S    
C61   C99   S    
C29   O48   A    
O23   Zn10  S    
C69   C108  T    
H79   N12   S    
C36   C40   A    
H90   N2    S    
C111  C133  A    
C39   C43   S    
C47   H67   S    
C29   O39   A    
C13   C86   S    
C90   C101  S    
C72   C77   S    
O1    Zn5   S    
C54   H6    S    
C138  C147  S    
C27   O46   A    
C99   H45   S    
C148  N3    S    
C123  H55   S    
H80   N12   S    
C130  C143  S    
H96   N5    S    
C114  C118  A    
O19   Zn9   S    
C12   C14   S    
C51   H117  S    
C70   C76   S    
C96   O13   A    
O17   Zn8   S    
O1    Zn12  S    
C3    C15   S    
C28   O47   A    
C95   O11   A    
H104  N8    S    
C138  H77   S    
C55   H10   S    
C122  H44   S    
C145  O51   A    
C134  C138  S    
C78   C91   S    
C87   O17   A    
C53   H5    S    
H93   N3    S    
C17   O52   A    
H94   N4    S    
C128  C133  A    
C71   C75   S    
C4    C21   S    
O25   Zn14  S    
C73   C80   S    
C42   C47   S    
H89   N16   S    
C147  N2    S    
C121  H33   S    
C131  H34   S    
C53   H4    S    
C141  O22   A    
C111  C115  A    
C46   H36   S    
C85   C107  S    
C25   O43   A    
