data_mof_unit_8154.cif
_audit_creation_date              2012-12-10T16:53:09-0500
_audit_creation_method            fapswitch 2.2
_symmetry_space_group_name_H-M    P1
_symmetry_Int_Tables_number       1
_space_group_crystal_system       triclinic
_cell_length_a                    10.774674
_cell_length_b                    10.922726
_cell_length_c                    9.747528
_cell_angle_alpha                 89.936607
_cell_angle_beta                  89.826893
_cell_angle_gamma                 90.368464
_cell_volume                      1147.14530441

loop_
_atom_site_label
_atom_site_type_symbol
_atom_type_description
_atom_site_fract_x
_atom_site_fract_y
_atom_site_fract_z
_atom_type_partial_charge
C1    C     C_R   0.505988 0.265697 0.500181 0.815146
C2    C     C_R   0.065937 0.605011 0.573002 0.099137
C3    C     C_R   0.128931 0.511835 0.500463 -0.076516
C4    C     C_R   0.063609 0.424531 0.424691 -0.164309
C5    C     C_R   0.935609 0.424957 0.423927 -0.150415
C6    C     C_R   0.871060 0.512469 0.499323 -0.062092
C7    C     C_2   0.510242 0.933503 0.390715 -0.102890
C8    C     C_2   0.483523 0.865757 0.501128 -0.263757
C9    C     C_2   0.495859 0.066181 0.394070 -0.214727
C10   C     C_2   0.529629 0.135247 0.501899 0.116566
C11   C     C_2   0.468292 0.406789 0.923196 -0.016436
C12   C     C_R   0.262756 0.503671 0.500227 0.785711
C13   C     C_2   0.442347 0.419964 0.073868 0.373123
C14   C     C_R   0.496578 0.734329 0.499979 0.803175
C15   C     C_R   0.737230 0.503901 0.499789 0.792664
C16   C     C_R   0.130079 0.700356 0.640999 -0.260664
C17   C     C_R   0.065673 0.791971 0.709949 -0.176179
C18   C     C_R   0.936341 0.791501 0.713259 0.548535
C19   C     C_R   0.871217 0.700543 0.640623 -0.251344
C20   C     C_R   0.934784 0.605286 0.572520 0.033856
Cu1   Cu    Cu3+1 0.500020 0.500020 0.638630 0.990186
Cu2   Cu    Cu3+1 0.499980 0.499980 0.361370 1.055944
H1    H     H_    0.112038 0.353911 0.368303 0.190819
H2    H     H_    0.452358 0.318363 0.875846 0.185889
H3    H     H_    0.487364 0.584067 0.889389 0.231877
H4    H     H_    0.230200 0.706797 0.639578 0.164691
H5    H     H_    0.116845 0.864356 0.760903 0.170155
H6    H     H_    0.771450 0.707441 0.634706 0.158595
H7    H     H_    0.886456 0.354735 0.366877 0.169754
H8    H     H_    0.535701 0.891119 0.293949 0.185233
H9    H     H_    0.449322 0.907422 0.594845 0.184342
H10   H     H_    0.454317 0.107966 0.304291 0.191851
N1    N     N_2   0.498640 0.498660 0.846910 -0.279585
N2    N     N_2   0.498610 0.498630 0.153040 -0.076773
O1    O     O_R   0.500020 0.321960 0.617040 -0.553923
O2    O     O_R   0.499980 0.321920 0.382900 -0.564270
O3    O     O_R   0.319670 0.500020 0.617100 -0.581411
O4    O     O_R   0.319630 0.499980 0.382950 -0.543641
O5    O     O_R   0.500020 0.678080 0.617100 -0.602891
O6    O     O_R   0.499980 0.678040 0.382960 -0.548380
O7    O     O_R   0.680370 0.500020 0.617050 -0.559021
O8    O     O_R   0.680330 0.499980 0.382900 -0.529689
Br1   Br    Br    0.629405 0.076440 0.652638 -0.484148
Br2   Br    Br    0.317395 0.312426 0.146010 -0.533305
Br3   Br    Br    0.646510 0.576819 0.091361 -0.471707
O9    O     O_3   0.876347 0.887564 0.777614 -0.555500
C21   C     C_3   0.792504 0.842032 0.877192 -0.177325
H11   H     H_    0.835355 0.770566 0.943177 0.167786
H12   H     H_    0.706342 0.806637 0.828589 0.179084
H13   H     H_    0.765226 0.918696 0.945256 0.206781

loop_
_geom_bond_atom_site_label_1
_geom_bond_atom_site_label_2
_ccdc_geom_bond_type
C13   N2    D    
Cu1   O1    S    
C6    C20   A    
C9    C10   D    
C15   O8    A    
C19   C20   A    
Cu1   O5    S    
C6    C15   S    
Cu2   O6    S    
C2    C3    A    
C14   O5    A    
Cu1   O3    S    
C7    C8    D    
C21   H12   S    
C7    H8    S    
Cu1   Cu2   S    
C12   O4    A    
C19   H6    S    
C11   C13   S    
C15   O7    A    
Cu2   O8    S    
Cu1   O7    S    
C18   O9    S    
C17   C18   A    
C21   H13   S    
C5    H7    S    
C16   H4    S    
C5    C6    A    
Cu2   N2    S    
Cu1   N1    S    
C14   O6    A    
C3    C4    A    
C17   H5    S    
C11   H2    S    
C11   N1    D    
C2    C16   A    
C1    O1    A    
C7    C9    S    
C18   C19   A    
C12   O3    A    
N2    Br3   S    
C4    H1    S    
O9    C21   S    
C16   C17   A    
C8    C14   S    
C3    C12   S    
C9    H10   S    
C10   Br1   S    
C8    H9    S    
C2    C20   A    
C13   Br2   S    
Cu2   O2    S    
C1    C10   S    
C21   H11   S    
C1    O2    A    
H3    N1    S    
C4    C5    A    
Cu2   O4    S    
