data_mof_unit_5328.cif
_audit_creation_date              2012-12-11T14:21:16-0500
_audit_creation_method            fapswitch 2.2
_symmetry_space_group_name_H-M    P1
_symmetry_Int_Tables_number       1
_space_group_crystal_system       triclinic
_cell_length_a                    21.992109
_cell_length_b                    7.201202
_cell_length_c                    14.909877
_cell_angle_alpha                 90.001963
_cell_angle_beta                  107.257296
_cell_angle_gamma                 89.999625
_cell_volume                      2254.97223482

loop_
_atom_site_label
_atom_site_type_symbol
_atom_type_description
_atom_site_fract_x
_atom_site_fract_y
_atom_site_fract_z
_atom_type_partial_charge
O1    O     O_R   0.584770 0.505770 0.002090 -0.538493
O2    O     O_R   0.415230 0.005770 0.997910 -0.538487
O3    O     O_R   0.467060 0.173340 0.861950 -0.538000
O4    O     O_R   0.532940 0.673340 0.138050 -0.537995
C1    C     C_R   0.455437 0.343830 0.825595 0.680359
C2    C     C_R   0.544564 0.843834 0.174404 0.680355
O5    O     O_R   0.587510 0.175890 0.993210 -0.541721
O6    O     O_R   0.412490 0.675890 0.006790 -0.541720
O7    O     O_R   0.536540 0.008150 0.130100 -0.538245
O8    O     O_R   0.463460 0.508150 0.869900 -0.538252
C3    C     C_R   0.612815 0.345339 0.996922 0.750336
C4    C     C_R   0.387185 0.845338 0.003078 0.750338
O9    O     O_3   0.483140 0.340040 0.044760 -0.378074
O10   O     O_3   0.516860 0.840040 0.955240 -0.378084
V1    V     V_3+5 0.503130 0.064190 0.991700 1.437429
V2    V     V_3+5 0.496870 0.564190 0.008300 1.437430
C5    C     C_2   0.219975 0.731099 0.027102 0.300032
C6    C     C_2   0.780022 0.231108 0.972884 0.300023
C7    C     C_2   0.180760 0.880141 0.997567 -0.315173
C8    C     C_2   0.819240 0.380140 0.002433 -0.315150
H1    H     H_    0.197714 0.999650 0.967849 0.125092
H2    H     H_    0.802289 0.499639 0.032166 0.125071
C9    C     C_2   0.285530 0.717701 0.017619 -0.148176
C10   C     C_2   0.714468 0.217703 0.982370 -0.148186
C11   C     C_2   0.320784 0.863355 0.006540 -0.344032
C12   C     C_2   0.679216 0.363356 0.993457 -0.344015
H3    H     H_    0.306731 0.580177 0.024951 0.173451
H4    H     H_    0.693268 0.080177 0.975033 0.173441
H5    H     H_    0.301830 0.002980 0.003495 0.149840
H6    H     H_    0.698170 0.502982 0.996506 0.149831
C13   C     C_R   0.926451 0.894916 0.723111 -0.068836
C14   C     C_R   0.073545 0.394923 0.276888 -0.068815
C15   C     C_R   0.571308 0.845489 0.276869 -0.038598
C16   C     C_R   0.428692 0.345452 0.723130 -0.038646
C17   C     C_R   0.930049 0.013465 0.572336 0.004876
C18   C     C_R   0.069939 0.513432 0.427671 0.004840
C19   C     C_R   0.960532 0.968276 0.666305 -0.210213
C20   C     C_R   0.039460 0.468255 0.333697 -0.210220
C21   C     C_R   0.862159 0.852390 0.684834 -0.162103
C22   C     C_R   0.137834 0.352396 0.315169 -0.162195
C23   C     C_R   0.828795 0.899862 0.590871 0.077310
C24   C     C_R   0.171188 0.399765 0.409150 0.077332
C25   C     C_R   0.862302 0.999509 0.537370 0.020144
C26   C     C_R   0.137684 0.499440 0.462649 0.020161
C27   C     C_R   0.762579 0.859272 0.550382 0.071281
C28   C     C_R   0.237395 0.359064 0.449652 0.071295
C29   C     C_R   0.730315 0.923044 0.457961 0.038989
C30   C     C_R   0.269672 0.422939 0.542055 0.038998
C31   C     C_R   0.762445 0.044588 0.413799 -0.225276
C32   C     C_R   0.237548 0.544536 0.586211 -0.225240
C33   C     C_R   0.826420 0.089707 0.453822 -0.014912
C34   C     C_R   0.173569 0.589619 0.546207 -0.014878
C35   C     C_R   0.727525 0.755763 0.598850 -0.157412
C36   C     C_R   0.272417 0.255294 0.401223 -0.157393
C37   C     C_R   0.663234 0.718611 0.558815 -0.196131
C38   C     C_R   0.336707 0.218112 0.441249 -0.196126
C39   C     C_R   0.632106 0.772796 0.467026 0.132653
C40   C     C_R   0.367859 0.272497 0.533004 0.132642
C41   C     C_R   0.665520 0.871818 0.414253 0.091182
C42   C     C_R   0.334467 0.371698 0.585759 0.091169
C43   C     C_R   0.568355 0.721559 0.426244 -0.166408
C44   C     C_R   0.431608 0.221234 0.573783 -0.166414
C45   C     C_R   0.538401 0.756308 0.331656 -0.163655
C46   C     C_R   0.461577 0.256117 0.668355 -0.163633
C47   C     C_R   0.633837 0.906248 0.318064 -0.209218
C48   C     C_R   0.366170 0.406263 0.681934 -0.209220
H7    H     H_    0.658277 0.964841 0.271693 0.114972
H8    H     H_    0.341750 0.464980 0.728300 0.114989
H9    H     H_    0.490280 0.706579 0.300072 0.117573
H10   H     H_    0.509693 0.206344 0.699942 0.117587
H11   H     H_    0.638231 0.640124 0.598989 0.130396
H12   H     H_    0.361684 0.139437 0.401108 0.130404
H13   H     H_    0.011276 0.991352 0.696176 0.143080
H14   H     H_    0.988717 0.491333 0.303822 0.143089
H15   H     H_    0.838637 0.796351 0.732720 0.132077
H16   H     H_    0.161373 0.296465 0.267271 0.132116
H17   H     H_    0.736869 0.118718 0.351017 0.149788
H18   H     H_    0.263125 0.618694 0.648986 0.149703
H19   H     H_    0.748285 0.699137 0.667971 0.139253
H20   H     H_    0.251622 0.198446 0.332156 0.139196
H21   H     H_    0.542482 0.647148 0.466562 0.120633
H22   H     H_    0.457460 0.146688 0.533482 0.120640
O11   O     O_R   0.036450 0.233070 0.130130 -0.541814
O12   O     O_R   0.963550 0.733070 0.869870 -0.541813
O13   O     O_R   0.912470 0.560570 0.006790 -0.537318
O14   O     O_R   0.087530 0.060570 0.993210 -0.537310
C49   C     C_R   0.886461 0.391101 0.000422 0.759566
C50   C     C_R   0.113539 0.891101 0.999578 0.759556
O15   O     O_R   0.032920 0.562940 0.138050 -0.532780
O16   O     O_R   0.967080 0.062940 0.861950 -0.532771
O17   O     O_R   0.084790 0.730500 0.002090 -0.509633
O18   O     O_R   0.915210 0.230500 0.997910 -0.509640
C51   C     C_R   0.044936 0.395024 0.174777 0.722288
C52   C     C_R   0.955063 0.895021 0.825223 0.722299
O19   O     O_3   0.016820 0.396170 0.955260 -0.370922
O20   O     O_3   0.983180 0.896170 0.044740 -0.370936
V3    V     V_3+5 0.996880 0.672090 0.008300 1.544235
V4    V     V_3+5 0.003120 0.172090 0.991700 1.544243
Br1   Br    Br    0.196274 0.516719 0.086882 -0.585114
Br2   Br    Br    0.803718 0.016756 0.913075 -0.585166
C53   C     C_2   0.850080 0.254749 0.414683 0.797001
O21   O     O_2   0.882496 0.370799 0.467557 -0.544716
O22   O     O_R   0.833006 0.281458 0.317464 -0.655461
H23   H     H_    0.851643 0.399619 0.299572 0.305013
C54   C     C_2   0.149903 0.754592 0.585396 0.797000
O23   O     O_2   0.117541 0.870773 0.532551 -0.544674
O24   O     O_R   0.166907 0.781045 0.682633 -0.655383
H24   H     H_    0.148249 0.899150 0.700570 0.304936
C55   C     C_2   0.971108 0.061374 0.512208 0.860395
O25   O     O_2   0.023081 0.133501 0.547103 -0.527651
O26   O     O_R   0.951825 0.017031 0.416569 -0.639093
H25   H     H_    0.984259 0.055300 0.383888 0.310007
C56   C     C_2   0.028875 0.561361 0.487788 0.860305
O27   O     O_2   0.976916 0.633565 0.452887 -0.527704
O28   O     O_R   0.048133 0.516946 0.583420 -0.639038
H26   H     H_    0.015695 0.555228 0.616093 0.310042

loop_
_geom_bond_atom_site_label_1
_geom_bond_atom_site_label_2
_ccdc_geom_bond_type
C40   C44   A    
C48   H8    S    
C53   O21   D    
O26   H25   S    
O1    C3    A    
O2    C4    A    
C16   C48   A    
C2    O7    A    
O19   V4    S    
O18   V4    S    
C29   C31   A    
O5    C3    A    
C54   O24   S    
C5    C9    S    
C24   C26   A    
C6    C10   S    
O12   V3    S    
C7    H1    S    
C10   C12   D    
C55   O26   S    
O14   C50   A    
C39   C41   A    
C47   H7    S    
C40   C42   A    
O28   H26   S    
O11   C51   A    
C8    C49   S    
C24   C28   A    
C27   C29   A    
C43   C45   A    
C44   C46   A    
C45   H9    S    
C31   H17   S    
C38   H12   S    
O11   V4    S    
C32   C34   A    
O24   H24   S    
C30   C42   A    
C21   H15   S    
C17   C25   A    
C17   C55   S    
O6    C4    A    
C26   C34   A    
C30   C32   A    
C14   C51   S    
C44   H22   S    
C42   C48   A    
O6    V2    S    
C49   O18   A    
O20   V3    S    
C23   C25   A    
C6    Br2   S    
C18   C56   S    
C32   H18   S    
O16   C52   A    
C36   H20   S    
C9    H3    S    
C35   C37   A    
C11   H5    S    
C36   C38   A    
O13   C49   A    
C15   C47   A    
O4    C2    A    
C7    C50   S    
O5    V1    S    
C3    C12   S    
C31   C33   A    
C27   C35   A    
C22   H16   S    
O15   V3    S    
O4    V2    S    
C46   H10   S    
C50   O17   A    
C15   C45   A    
C1    C16   S    
C28   C36   A    
C16   C46   A    
O1    V2    S    
O12   C52   A    
O17   V3    S    
O2    V1    S    
C5    Br1   S    
C8    H2    S    
C34   C54   S    
C12   H6    S    
C14   C20   A    
C37   C39   A    
C18   C26   A    
C14   C22   A    
O3    V1    S    
C17   C19   A    
C56   O27   D    
C20   H14   S    
C19   H13   S    
C35   H19   S    
C10   H4    S    
O3    C1    A    
C39   C43   A    
C33   C53   S    
C13   C52   S    
C54   O23   D    
C2    C15   S    
C4    C11   S    
C18   C20   A    
O7    V1    S    
C1    O8    A    
C43   H21   S    
C55   O25   D    
C41   C47   A    
C25   C33   A    
C22   C24   A    
C5    C7    D    
C38   C40   A    
C6    C8    D    
C9    C11   D    
O15   C51   A    
O14   V4    S    
O13   V3    S    
C29   C41   A    
C28   C30   A    
C13   C19   A    
C21   C23   A    
C53   O22   S    
O9    V2    S    
O22   H23   S    
C13   C21   A    
C23   C27   A    
O10   V1    S    
O8    V2    S    
O16   V4    S    
C37   H11   S    
C56   O28   S    
