data_mof_unit_29929.cif
_audit_creation_date              2012-12-10T20:57:16-0500
_audit_creation_method            fapswitch 2.2
_symmetry_space_group_name_H-M    P1
_symmetry_Int_Tables_number       1
_space_group_crystal_system       triclinic
_cell_length_a                    15.788885
_cell_length_b                    15.074231
_cell_length_c                    14.977375
_cell_angle_alpha                 89.655884
_cell_angle_beta                  90.554648
_cell_angle_gamma                 90.615187
_cell_volume                      3564.26004522

loop_
_atom_site_label
_atom_site_type_symbol
_atom_type_description
_atom_site_fract_x
_atom_site_fract_y
_atom_site_fract_z
_atom_type_partial_charge
C1    C     C_R   0.338688 0.499512 0.499179 0.905464
C2    C     C_R   0.086812 0.501642 0.468252 -0.227415
C3    C     C_1   0.823549 0.503356 0.480335 0.091756
C4    C     C_1   0.175737 0.498774 0.478933 0.112879
C5    C     C_1   0.250337 0.498457 0.489222 -0.176393
C6    C     C_1   0.749208 0.501915 0.490172 -0.199492
C7    C     C_R   0.433267 0.952653 0.459930 -0.162959
C8    C     C_R   0.567170 0.047454 0.539099 -0.167891
C9    C     C_R   0.567160 0.953706 0.539143 -0.164478
C10   C     C_R   0.433314 0.046408 0.459807 -0.167530
C11   C     C_R   0.500166 0.905076 0.499639 0.080251
C12   C     C_R   0.661183 0.500492 0.499383 0.891143
C13   C     C_R   0.500215 0.095003 0.499499 0.087019
C14   C     C_1   0.500067 0.807176 0.499850 0.042818
C15   C     C_1   0.500094 0.192850 0.499758 0.028650
C16   C     C_R   0.500987 0.500212 0.326767 0.968191
C17   C     C_R   0.499470 0.499686 0.673149 0.956435
C18   C     C_R   0.573590 0.516997 0.813543 0.378661
C19   C     C_R   0.429568 0.474734 0.185948 0.368393
C20   C     C_R   0.497532 0.498688 0.768250 -0.227671
C21   C     C_R   0.503409 0.500965 0.231561 -0.226288
C22   C     C_R   0.420610 0.482434 0.812723 0.044229
C23   C     C_R   0.349449 0.469758 0.048064 -0.192379
C24   C     C_R   0.577391 0.529308 0.187076 0.048666
C25   C     C_R   0.420895 0.486786 0.906644 0.107057
C26   C     C_R   0.575851 0.530606 0.092974 0.106714
C27   C     C_R   0.497559 0.507568 0.952862 -0.011031
C28   C     C_R   0.499653 0.508161 0.046686 -0.012471
C29   C     C_R   0.572652 0.526199 0.905702 0.028555
C30   C     C_R   0.425852 0.484306 0.093802 0.032131
C31   C     C_R   0.346752 0.471432 0.955904 -0.226093
C32   C     C_R   0.648065 0.554212 0.043613 -0.224967
C33   C     C_3   0.683971 0.447931 0.743581 0.092406
C34   C     C_R   0.646187 0.552451 0.951478 -0.191762
C35   C     C_3   0.748766 0.417812 0.813978 -0.377663
C36   C     C_3   0.795194 0.335049 0.784148 -0.960022
C37   C     C_3   0.366213 0.353287 0.252523 0.112599
C38   C     C_3   0.309674 0.297917 0.190384 -0.408674
C39   C     C_3   0.305668 0.201084 0.220647 -0.963682
C40   C     C_3   0.339786 0.460681 0.759697 -0.388537
C41   C     C_3   0.285972 0.543146 0.745539 -0.882758
C42   C     C_3   0.657774 0.553713 0.239902 -0.409090
C43   C     C_3   0.718362 0.475535 0.245592 -0.857893
C44   C     C_3   0.096607 0.673696 0.593006 0.123345
C45   C     C_R   0.957386 0.584179 0.480352 0.338222
C46   C     C_3   0.163121 0.745809 0.611345 -0.329132
C47   C     C_3   0.167836 0.768771 0.710366 -0.970412
C48   C     C_3   0.895778 0.299563 0.514334 0.123483
C49   C     C_3   0.842097 0.216995 0.494302 -0.319481
C50   C     C_3   0.825079 0.162782 0.578699 -0.983495
C51   C     C_3   0.883421 0.698313 0.415698 0.111668
C52   C     C_3   0.948914 0.759508 0.371341 -0.323071
C53   C     C_3   0.911625 0.805672 0.289222 -0.984322
C54   C     C_3   0.106845 0.341741 0.340266 0.100279
C55   C     C_3   0.034001 0.306291 0.281451 -0.308449
C56   C     C_R   0.041362 0.423876 0.447147 0.340168
C57   C     C_3   0.063218 0.286848 0.186885 -1.005808
C58   C     C_R   0.045626 0.581739 0.484662 0.327570
C59   C     C_R   0.953189 0.424308 0.452428 0.319914
C60   C     C_R   0.912128 0.504318 0.469263 -0.230360
H1    H     H_    0.285761 0.459564 0.924854 0.157674
H2    H     H_    0.636009 0.394158 0.732412 0.134533
H3    H     H_    0.795839 0.471867 0.826047 0.230811
H4    H     H_    0.715934 0.402299 0.877499 0.222026
H5    H     H_    0.749395 0.279929 0.771818 0.264341
H6    H     H_    0.840470 0.314120 0.837200 0.269313
H7    H     H_    0.831202 0.349172 0.722323 0.256317
H8    H     H_    0.344602 0.343200 0.322290 0.183280
H9    H     H_    0.432267 0.327688 0.249434 0.142085
H10   H     H_    0.244893 0.325648 0.189337 0.232845
H11   H     H_    0.335217 0.300603 0.121607 0.228445
H12   H     H_    0.707654 0.572596 0.074529 0.157750
H13   H     H_    0.264553 0.162629 0.174046 0.269854
H14   H     H_    0.278906 0.195709 0.288790 0.257913
H15   H     H_    0.369996 0.171938 0.220821 0.269738
H16   H     H_    0.268148 0.572463 0.810399 0.261946
H17   H     H_    0.321481 0.593522 0.705968 0.273329
H18   H     H_    0.227265 0.524919 0.708318 0.239293
H19   H     H_    0.353471 0.432606 0.693314 0.213520
H20   H     H_    0.302502 0.407191 0.792550 0.196432
H21   H     H_    0.688440 0.419820 0.283048 0.268637
H22   H     H_    0.735487 0.452190 0.178072 0.259958
H23   H     H_    0.291082 0.456450 0.083341 0.182998
H24   H     H_    0.777249 0.496105 0.281310 0.249796
H25   H     H_    0.689760 0.612836 0.210773 0.196165
H26   H     H_    0.644193 0.574663 0.308885 0.215746
H27   H     H_    0.115239 0.612663 0.630525 0.114744
H28   H     H_    0.034167 0.696469 0.617386 0.182374
H29   H     H_    0.226113 0.722417 0.589410 0.232827
H30   H     H_    0.147036 0.806531 0.572533 0.230366
H31   H     H_    0.106212 0.794999 0.732974 0.267330
H32   H     H_    0.217561 0.820274 0.721491 0.273111
H33   H     H_    0.184021 0.709157 0.750644 0.269185
H34   H     H_    0.703418 0.570697 0.916283 0.186108
H35   H     H_    0.862330 0.340068 0.564676 0.124441
H36   H     H_    0.958120 0.278440 0.542241 0.165851
H37   H     H_    0.780582 0.237252 0.464161 0.232792
H38   H     H_    0.875639 0.175014 0.445473 0.224501
H39   H     H_    0.885655 0.142514 0.610728 0.271189
H40   H     H_    0.788062 0.102183 0.561239 0.265197
H41   H     H_    0.787945 0.202202 0.626595 0.267390
H42   H     H_    0.826893 0.737994 0.432381 0.166383
H43   H     H_    0.861170 0.646559 0.367621 0.117998
H44   H     H_    0.970938 0.810441 0.419916 0.241612
H45   H     H_    0.380891 0.081007 0.428661 0.133595
H46   H     H_    0.004358 0.720120 0.350592 0.238212
H47   H     H_    0.890133 0.755841 0.239321 0.264722
H48   H     H_    0.960651 0.848998 0.258283 0.273573
H49   H     H_    0.857159 0.847316 0.308338 0.267460
H50   H     H_    0.160724 0.295292 0.336194 0.169740
H51   H     H_    0.130449 0.406874 0.314168 0.130793
H52   H     H_    0.007749 0.244355 0.311471 0.248660
H53   H     H_    0.982891 0.356243 0.277470 0.235692
H54   H     H_    0.090101 0.347767 0.155557 0.263343
H55   H     H_    0.008378 0.263757 0.145937 0.274421
H56   H     H_    0.619632 0.919144 0.570205 0.137725
H57   H     H_    0.111559 0.233899 0.187951 0.276250
H58   H     H_    0.619600 0.082878 0.570179 0.135164
H59   H     H_    0.380780 0.917254 0.428925 0.136652
H60   H     H_    0.717289 0.457520 0.679299 0.164733
N1    N     N_1   0.500000 0.270550 0.500000 -0.097537
N2    N     N_1   0.500000 0.729450 0.500000 -0.089315
O1    O     O_R   0.378020 0.573650 0.500030 -0.607331
O2    O     O_3   0.358836 0.445083 0.232355 -0.662913
O3    O     O_3   0.092303 0.658448 0.500129 -0.620604
O4    O     O_3   0.906796 0.348008 0.434340 -0.627817
O5    O     O_3   0.916137 0.663026 0.496651 -0.624623
O6    O     O_3   0.082573 0.345042 0.430955 -0.624778
O7    O     O_R   0.621980 0.426350 0.499970 -0.617519
O8    O     O_R   0.621980 0.573650 0.499970 -0.606822
O9    O     O_R   0.378020 0.426350 0.500030 -0.623370
O10   O     O_R   0.499980 0.573670 0.367860 -0.622688
O11   O     O_R   0.500020 0.426330 0.632140 -0.648057
O12   O     O_R   0.500020 0.573670 0.632140 -0.589330
O13   O     O_R   0.499980 0.426330 0.367860 -0.635227
O14   O     O_3   0.648362 0.530605 0.766925 -0.648796
Zn1   Zn    Zn3+2 0.500000 0.598370 0.500000 0.990476
Zn2   Zn    Zn3+2 0.500000 0.401630 0.500000 0.950377

loop_
_geom_bond_atom_site_label_1
_geom_bond_atom_site_label_2
_ccdc_geom_bond_type
C25   C31   A    
O13   Zn2   S    
C38   H10   S    
C45   C60   A    
C26   C32   A    
C16   C21   S    
C14   N2    T    
C48   H35   S    
C37   H9    S    
C55   H52   S    
C27   C29   A    
C24   C42   S    
C47   H32   S    
C31   H1    S    
C35   C36   S    
C53   H48   S    
C3    C6    T    
O12   Zn1   S    
C36   H7    S    
C8    H58   S    
C57   H55   S    
C46   H29   S    
C59   O4    S    
C7    C11   A    
C50   H39   S    
C8    C13   A    
C23   H23   S    
C1    C5    S    
C19   C21   A    
C24   C26   A    
C41   H17   S    
C38   C39   S    
C11   C14   S    
C36   H6    S    
C51   H43   S    
C37   H8    S    
C17   C20   S    
C54   H50   S    
C46   C47   S    
C39   H14   S    
C49   H38   S    
C38   H11   S    
O7    Zn2   S    
C8    C9    A    
C22   C25   A    
C40   H20   S    
C18   O14   S    
C35   H4    S    
C42   H26   S    
C39   H15   S    
C44   H27   S    
C48   H36   S    
C3    C60   S    
C48   O4    S    
C39   H13   S    
C52   H46   S    
C59   C60   A    
C43   H24   S    
C44   C46   S    
C45   C58   A    
C19   O2    S    
C12   O7    A    
C51   C52   S    
C23   C30   A    
C7    H59   S    
C32   H12   S    
C41   H18   S    
C18   C29   A    
C36   H5    S    
C33   H2    S    
C55   H53   S    
O10   Zn1   S    
C54   O6    S    
C29   C34   A    
C51   H42   S    
C32   C34   A    
N1    Zn2   S    
C2    C4    S    
C1    O1    A    
C37   C38   S    
C37   O2    S    
C53   H47   S    
C22   C40   S    
C47   H33   S    
C40   H19   S    
C19   C30   A    
C42   H25   S    
C9    C11   A    
C12   O8    A    
C58   O3    S    
C48   C49   S    
C20   C22   A    
C55   C57   S    
C17   O11   A    
C43   H21   S    
C42   C43   S    
C17   O12   A    
C52   C53   S    
C57   H57   S    
C53   H49   S    
C54   C55   S    
C52   H44   S    
C15   N1    T    
C9    H56   S    
C47   H31   S    
C34   H34   S    
N2    Zn1   S    
C4    C5    T    
C1    O9    A    
C10   C13   A    
C35   H3    S    
C44   O3    S    
C2    C58   A    
C57   H54   S    
C46   H30   S    
C25   C27   A    
O1    Zn1   S    
C26   C28   A    
C56   C59   A    
C50   H41   S    
C51   O5    S    
C7    C10   A    
C13   C15   S    
O9    Zn2   S    
C2    C56   A    
C41   H16   S    
C6    C12   S    
O8    Zn1   S    
C33   O14   S    
C45   O5    S    
C28   C30   A    
C33   C35   S    
C54   H51   S    
C18   C20   A    
C56   O6    S    
C16   O10   A    
C50   H40   S    
C49   H37   S    
O11   Zn2   S    
C33   H60   S    
C49   C50   S    
C21   C24   A    
C27   C28   A    
C43   H22   S    
C10   H45   S    
C40   C41   S    
C44   H28   S    
C16   O13   A    
C23   C31   A    
