data_mof_unit_49532.cif
_audit_creation_date              2012-12-10T18:15:23-0500
_audit_creation_method            fapswitch 2.2
_symmetry_space_group_name_H-M    P1
_symmetry_Int_Tables_number       1
_space_group_crystal_system       triclinic
_cell_length_a                    18.376219
_cell_length_b                    18.376395
_cell_length_c                    39.766656
_cell_angle_alpha                 90.000283
_cell_angle_beta                  90.001284
_cell_angle_gamma                 90.045613
_cell_volume                      13428.7444767

loop_
_atom_site_label
_atom_site_type_symbol
_atom_type_description
_atom_site_fract_x
_atom_site_fract_y
_atom_site_fract_z
_atom_type_partial_charge
C1    C     C_R   0.939718 0.473794 0.431458 -0.125722
C2    C     C_R   0.565055 0.008744 0.068113 -0.129047
C3    C     C_R   0.289999 0.764239 0.720505 0.210929
C4    C     C_R   0.265238 0.319145 0.263360 0.194968
C5    C     C_R   0.736843 0.684427 0.733090 0.201148
C6    C     C_R   0.294356 0.757962 0.278436 0.207498
C7    C     C_R   0.710002 0.235758 0.720505 0.210930
C8    C     C_R   0.195964 0.695961 0.250000 -0.062021
C9    C     C_R   0.803432 0.303434 0.750000 -0.061066
C10   C     C_R   0.303533 0.196455 0.250003 -0.061628
C11   C     C_R   0.696041 0.803958 0.750000 -0.056178
C12   C     C_R   0.804038 0.304034 0.250003 -0.061907
C13   C     C_R   0.991484 0.434926 0.931887 -0.128965
C14   C     C_R   0.196566 0.696568 0.750000 -0.061065
C15   C     C_R   0.696455 0.803535 0.249997 -0.061655
C16   C     C_R   0.303958 0.196041 0.750000 -0.056173
C17   C     C_R   0.196460 0.303539 0.750000 -0.061639
C18   C     C_R   0.803956 0.696039 0.249998 -0.056213
C19   C     C_R   0.304037 0.804037 0.750000 -0.061998
C20   C     C_R   0.696573 0.196558 0.250006 -0.061096
C21   C     C_R   0.803539 0.696460 0.750000 -0.061641
C22   C     C_R   0.196038 0.303955 0.250003 -0.056145
C23   C     C_R   0.695963 0.195962 0.750000 -0.062011
C24   C     C_R   0.026369 0.560243 0.068545 -0.125727
C25   C     C_R   0.303434 0.803432 0.249999 -0.061062
C26   C     C_R   0.000000 0.500001 0.378257 0.046776
C27   C     C_R   0.999998 0.500002 0.621447 0.049611
C28   C     C_R   0.500001 0.000001 0.378553 0.049611
C29   C     C_R   0.500002 1.000000 0.621743 0.046776
C30   C     C_R   0.500003 0.000019 0.878257 0.046775
C31   C     C_R   0.500005 0.000048 0.121447 0.049628
C32   C     C_R   0.000040 0.499996 0.878553 0.049612
C33   C     C_R   0.000059 0.499992 0.121742 0.046830
C34   C     C_3   0.220420 0.899431 0.195572 0.056673
C35   C     C_R   0.560281 0.026268 0.931456 -0.125723
C36   C     C_3   0.148239 0.887637 0.177221 -0.279064
C37   C     C_3   0.103886 0.957760 0.175628 -0.505682
C38   C     C_3   0.658547 0.207012 0.824806 0.039959
C39   C     C_3   0.682999 0.257565 0.853189 -0.255326
C40   C     C_3   0.617995 0.287527 0.872594 -0.495497
C41   C     C_3   0.074428 0.181108 0.251360 0.033338
C42   C     C_3   0.998012 0.162274 0.239177 -0.256186
C43   C     C_3   0.954405 0.122734 0.266245 -0.501199
C44   C     C_3   0.870759 0.754854 0.818447 0.051745
C45   C     C_3   0.839005 0.816058 0.840150 -0.269877
C46   C     C_R   0.434951 0.991438 0.068110 -0.128960
C47   C     C_3   0.844876 0.798194 0.877521 -0.503073
C48   C     C_3   0.779649 0.100526 0.195604 0.056772
C49   C     C_3   0.851781 0.112310 0.177212 -0.278994
C50   C     C_3   0.896147 0.042196 0.175618 -0.505644
C51   C     C_3   0.341430 0.792989 0.824813 0.039880
C52   C     C_3   0.316953 0.742332 0.853151 -0.255388
C53   C     C_3   0.381933 0.712385 0.872579 -0.495540
C54   C     C_3   0.925556 0.818894 0.251330 0.033361
C55   C     C_3   0.001971 0.837707 0.239142 -0.256192
C56   C     C_3   0.045594 0.877259 0.266202 -0.501209
C57   C     C_R   0.008750 0.565034 0.931890 -0.129000
C58   C     C_3   0.129240 0.245137 0.818445 0.051753
C59   C     C_3   0.160993 0.183929 0.840147 -0.269874
C60   C     C_3   0.155120 0.201789 0.877518 -0.503063
C61   C     C_3   0.181109 0.074439 0.748659 0.033357
C62   C     C_3   0.162288 0.998025 0.760845 -0.256190
C63   C     C_3   0.122745 0.954406 0.733780 -0.501207
C64   C     C_3   0.754833 0.870728 0.181544 0.051716
C65   C     C_3   0.816028 0.838951 0.159843 -0.269870
C66   C     C_3   0.798152 0.844790 0.122472 -0.503089
C67   C     C_3   0.100551 0.779603 0.804414 0.056687
C68   C     C_R   0.973958 0.439676 0.068537 -0.125677
C69   C     C_3   0.112340 0.851773 0.822774 -0.279042
C70   C     C_3   0.042217 0.896125 0.824367 -0.505654
C71   C     C_3   0.792883 0.341249 0.175142 0.039221
C72   C     C_3   0.741202 0.316544 0.147236 -0.255864
C73   C     C_3   0.711459 0.381307 0.127589 -0.495985
C74   C     C_3   0.818894 0.925559 0.748665 0.033356
C75   C     C_3   0.837711 0.001974 0.760851 -0.256193
C76   C     C_3   0.877260 0.045593 0.733790 -0.501210
C77   C     C_3   0.245057 0.129216 0.181563 0.051749
C78   C     C_3   0.183818 0.160973 0.159878 -0.269814
C79   C     C_R   0.937974 0.475736 0.396246 0.207348
C80   C     C_3   0.201610 0.155063 0.122501 -0.503067
C81   C     C_3   0.899444 0.220413 0.804422 0.056690
C82   C     C_3   0.887653 0.148236 0.822775 -0.279056
C83   C     C_3   0.957777 0.103884 0.824367 -0.505664
C84   C     C_3   0.207016 0.658513 0.175201 0.040037
C85   C     C_3   0.257467 0.682936 0.146776 -0.255265
C86   C     C_3   0.287449 0.617910 0.127393 -0.495452
C87   C     C_3   0.720404 0.399443 0.695581 0.056684
C88   C     C_3   0.648229 0.387652 0.677224 -0.279049
C89   C     C_3   0.603876 0.457774 0.675631 -0.505660
C90   C     C_R   0.065771 0.511739 0.603414 0.218725
C91   C     C_3   0.158552 0.707017 0.324808 0.039926
C92   C     C_3   0.183011 0.757617 0.353171 -0.255356
C93   C     C_3   0.118016 0.787577 0.372583 -0.495514
C94   C     C_3   0.574436 0.681115 0.751340 0.033357
C95   C     C_3   0.498021 0.662294 0.739155 -0.256190
C96   C     C_3   0.454400 0.622758 0.766220 -0.501207
C97   C     C_3   0.370759 0.254859 0.318446 0.051744
C98   C     C_3   0.338998 0.316064 0.340147 -0.269877
C99   C     C_3   0.344870 0.298206 0.377518 -0.503068
C100  C     C_3   0.279596 0.600553 0.695583 0.056690
C101  C     C_R   0.488266 0.934229 0.396587 0.218723
C102  C     C_3   0.351769 0.612342 0.677225 -0.279048
C103  C     C_3   0.396122 0.542220 0.675633 -0.505660
C104  C     C_3   0.841434 0.293000 0.324814 0.039909
C105  C     C_3   0.816966 0.242401 0.353176 -0.255346
C106  C     C_3   0.881956 0.212452 0.372596 -0.495516
C107  C     C_3   0.425559 0.318897 0.751338 0.033356
C108  C     C_3   0.501974 0.337715 0.739152 -0.256194
C109  C     C_3   0.545590 0.377273 0.766213 -0.501211
C110  C     C_3   0.629235 0.745137 0.318442 0.051756
C111  C     C_3   0.660984 0.683932 0.340146 -0.269873
C112  C     C_R   0.065052 0.508638 0.568111 -0.128985
C113  C     C_R   0.524270 0.062025 0.603754 0.207346
C114  C     C_3   0.655111 0.701799 0.377517 -0.503071
C115  C     C_3   0.681186 0.574402 0.248651 0.033381
C116  C     C_3   0.662343 0.497999 0.260845 -0.256163
C117  C     C_3   0.622943 0.454314 0.233759 -0.501181
C118  C     C_3   0.254856 0.370758 0.681554 0.051748
C119  C     C_3   0.316062 0.339005 0.659852 -0.269876
C120  C     C_3   0.298198 0.344876 0.622481 -0.503069
C121  C     C_3   0.600548 0.279601 0.304417 0.056691
C122  C     C_3   0.612334 0.351775 0.322774 -0.279047
C123  C     C_3   0.542212 0.396130 0.324360 -0.505654
C124  C     C_R   0.062026 0.524269 0.396247 0.207346
C125  C     C_3   0.292986 0.841434 0.675189 0.039907
C126  C     C_3   0.242366 0.816964 0.646835 -0.255365
C127  C     C_3   0.212412 0.881951 0.627414 -0.495525
C128  C     C_3   0.318920 0.425545 0.248662 0.033351
C129  C     C_3   0.337742 0.501961 0.260846 -0.256202
C130  C     C_3   0.377339 0.545555 0.233791 -0.501221
C131  C     C_3   0.745135 0.629237 0.681555 0.051749
C132  C     C_3   0.683927 0.660988 0.659852 -0.269876
C133  C     C_3   0.701788 0.655114 0.622481 -0.503068
C134  C     C_3   0.399443 0.720409 0.304420 0.056684
C135  C     C_R   0.934225 0.488267 0.603413 0.218721
C136  C     C_3   0.387649 0.648234 0.322775 -0.279048
C137  C     C_3   0.457773 0.603883 0.324372 -0.505663
C138  C     C_3   0.707013 0.158552 0.675192 0.039930
C139  C     C_3   0.757608 0.183014 0.646828 -0.255351
C140  C     C_3   0.787566 0.118019 0.627414 -0.495516
C141  C     C_3   0.816852 0.490951 0.383422 0.027717
C142  C     C_3   0.749125 0.442749 0.384143 -0.264647
C143  C     C_3   0.679684 0.487654 0.387168 -0.503624
C144  C     C_3   0.169254 0.583565 0.609931 0.009976
C145  C     C_3   0.242862 0.561319 0.595150 -0.269653
C146  C     C_R   0.511736 0.065774 0.396586 0.218723
C147  C     C_3   0.282370 0.626156 0.579610 -0.493031
C148  C     C_3   0.416432 0.830754 0.390069 0.009976
C149  C     C_3   0.438668 0.757143 0.404850 -0.269647
C150  C     C_3   0.373823 0.717640 0.420386 -0.493031
C151  C     C_3   0.509053 0.183145 0.616577 0.027724
C152  C     C_3   0.557254 0.250872 0.615856 -0.264641
C153  C     C_3   0.512348 0.320312 0.612830 -0.503625
C154  C     C_3   0.183147 0.509056 0.383425 0.027721
C155  C     C_3   0.250874 0.557259 0.384144 -0.264634
C156  C     C_3   0.320316 0.512355 0.387170 -0.503624
C157  C     C_R   0.475735 0.937975 0.603753 0.207349
C158  C     C_3   0.830749 0.416434 0.609930 0.009977
C159  C     C_3   0.757136 0.438669 0.595149 -0.269646
C160  C     C_3   0.717632 0.373824 0.579613 -0.493032
C161  C     C_3   0.583558 0.169258 0.390070 0.009978
C162  C     C_3   0.561311 0.242867 0.404849 -0.269649
C163  C     C_3   0.626150 0.282379 0.420388 -0.493032
C164  C     C_3   0.490943 0.816853 0.616576 0.027718
C165  C     C_3   0.442737 0.749129 0.615854 -0.264640
C166  C     C_3   0.487639 0.679687 0.612830 -0.503623
C167  C     C_3   0.316852 0.990953 0.883422 0.027716
C168  C     C_R   0.437976 0.975764 0.896249 0.207360
C169  C     C_3   0.249133 0.942740 0.884153 -0.264647
C170  C     C_3   0.179684 0.987636 0.887169 -0.503618
C171  C     C_3   0.669349 0.083567 0.109906 0.009957
C172  C     C_3   0.742904 0.061171 0.095114 -0.269764
C173  C     C_3   0.782474 0.125895 0.079505 -0.493008
C174  C     C_3   0.916464 0.330766 0.890075 0.009978
C175  C     C_3   0.938685 0.257141 0.904846 -0.269635
C176  C     C_3   0.873833 0.217647 0.920380 -0.493031
C177  C     C_3   0.009077 0.683121 0.116565 0.027740
C178  C     C_3   0.057244 0.750873 0.115876 -0.264621
C179  C     C_R   0.565777 0.011825 0.103417 0.218763
C180  C     C_3   0.012311 0.820291 0.112827 -0.503637
C181  C     C_3   0.683146 0.009061 0.883425 0.027724
C182  C     C_3   0.750881 0.057253 0.884134 -0.264632
C183  C     C_3   0.820315 0.012341 0.887169 -0.503630
C184  C     C_3   0.330790 0.916437 0.109926 0.009985
C185  C     C_3   0.257162 0.938638 0.095152 -0.269608
C186  C     C_3   0.217674 0.873769 0.079628 -0.493043
C187  C     C_3   0.083594 0.669270 0.890064 0.009976
C188  C     C_3   0.061332 0.742865 0.904854 -0.269663
C189  C     C_3   0.126164 0.782383 0.920395 -0.493032
C190  C     C_R   0.988329 0.434218 0.896586 0.218714
C191  C     C_3   0.990873 0.316812 0.116593 0.027646
C192  C     C_3   0.942550 0.249177 0.115706 -0.264723
C193  C     C_3   0.987376 0.179662 0.112789 -0.503538
C194  C     C_R   0.024361 0.562006 0.103756 0.207289
C195  C     C_R   0.562027 0.024298 0.896244 0.207334
C196  C     C_R   0.491371 0.934947 0.431889 -0.128981
C197  C     C_R   0.434235 0.988312 0.103411 0.218702
C198  C     C_R   0.011801 0.565764 0.896587 0.218732
C199  C     C_R   0.975825 0.437958 0.103750 0.207470
C200  C     C_R   0.999999 0.500004 0.448846 -0.054602
C201  C     C_R   0.999997 0.500005 0.550771 -0.054613
C202  C     C_R   0.500005 0.000002 0.449228 -0.054613
C203  C     C_R   0.500005 1.000000 0.551154 -0.054602
C204  C     C_R   0.499998 0.000071 0.948846 -0.054602
C205  C     C_R   0.500002 0.000099 0.050772 -0.054602
C206  C     C_R   0.000146 0.499974 0.949228 -0.054613
C207  C     C_R   0.526216 0.060281 0.568542 -0.125722
C208  C     C_R   0.000193 0.499951 0.051154 -0.054597
C209  C     C_1   0.999998 0.500005 0.484737 -0.026632
C210  C     C_1   0.999997 0.500005 0.514870 -0.025625
C211  C     C_1   0.500006 0.000002 0.485130 -0.025625
C212  C     C_1   0.500006 0.000001 0.515263 -0.026631
C213  C     C_1   0.500000 0.000090 0.984737 -0.026632
C214  C     C_1   0.500002 0.000099 0.014870 -0.025623
C215  C     C_1   0.000185 0.499963 0.985130 -0.025624
C216  C     C_1   0.000201 0.499955 0.015263 -0.026631
C217  C     C_R   0.500000 0.000000 0.341149 0.532981
C218  C     C_R   0.060281 0.526214 0.431459 -0.125723
C219  C     C_R   0.500000 1.000000 0.658952 0.524505
C220  C     C_R   0.000000 0.500000 0.341048 0.524501
C221  C     C_R   0.999999 0.500000 0.658851 0.532984
C222  C     C_R   0.000004 0.500000 0.841149 0.532980
C223  C     C_R   0.000007 0.499999 0.158952 0.524617
C224  C     C_R   0.500001 0.000002 0.841048 0.524508
C225  C     C_R   0.500001 0.000010 0.158851 0.532997
C226  C     C_R   0.359794 0.140202 0.250001 0.529288
C227  C     C_R   0.640048 0.859952 0.750000 0.525720
C228  C     C_R   0.860009 0.360004 0.250002 0.514177
C229  C     C_R   0.934943 0.491370 0.568111 -0.128982
C230  C     C_R   0.140231 0.640232 0.750000 0.541229
C231  C     C_R   0.640202 0.859795 0.249999 0.529260
C232  C     C_R   0.359953 0.140047 0.750000 0.525715
C233  C     C_R   0.139994 0.639993 0.250000 0.514008
C234  C     C_R   0.859768 0.359769 0.750000 0.541235
C235  C     C_R   0.360007 0.860007 0.750000 0.514042
C236  C     C_R   0.640234 0.140228 0.250002 0.541207
C237  C     C_R   0.859796 0.640203 0.750000 0.529278
C238  C     C_R   0.140047 0.359952 0.250001 0.525723
C239  C     C_R   0.639994 0.139993 0.750000 0.514028
C240  C     C_R   0.508636 0.065056 0.431889 -0.128985
C241  C     C_R   0.359769 0.859768 0.249999 0.541240
C242  C     C_R   0.140203 0.359797 0.750000 0.529273
C243  C     C_R   0.859953 0.640047 0.250000 0.525694
C244  C     C_R   0.257964 0.794349 0.221561 0.207539
C245  C     C_R   0.735759 0.210004 0.779496 0.210920
C246  C     C_R   0.180840 0.234754 0.236650 0.194958
C247  C     C_R   0.815573 0.763154 0.766911 0.201146
C248  C     C_R   0.742061 0.205616 0.221575 0.207162
C249  C     C_R   0.264239 0.790001 0.779494 0.210938
C250  C     C_R   0.819141 0.765234 0.236636 0.194974
C251  C     C_R   0.473793 0.939719 0.568541 -0.125722
C252  C     C_R   0.184426 0.236844 0.766909 0.201147
C253  C     C_R   0.234761 0.180853 0.763359 0.194973
C254  C     C_R   0.763148 0.815565 0.233084 0.201153
C255  C     C_R   0.205640 0.742045 0.778434 0.207480
C256  C     C_R   0.790004 0.264228 0.220510 0.211060
C257  C     C_R   0.765239 0.819146 0.763361 0.194972
C258  C     C_R   0.236829 0.184417 0.233099 0.201144
C259  C     C_R   0.794356 0.257962 0.778437 0.207510
C260  C     C_R   0.210007 0.735751 0.220503 0.210909
C261  C     C_R   0.757957 0.294357 0.721564 0.207496
C262  C     C_R   0.439718 0.973847 0.931461 -0.125719
C263  C     C_R   0.235758 0.710005 0.279495 0.210931
C264  C     C_R   0.680852 0.734761 0.736640 0.194975
C265  C     C_R   0.315571 0.263153 0.266910 0.201123
C266  C     C_R   0.242042 0.705640 0.721564 0.207492
C267  C     C_R   0.764236 0.290003 0.279497 0.210905
C268  C     C_R   0.319147 0.265238 0.736640 0.194972
C269  C     C_R   0.684423 0.736840 0.266907 0.201200
C270  C     C_R   0.734759 0.680850 0.263359 0.194977
C271  C     C_R   0.263155 0.315572 0.733090 0.201142
C272  C     C_R   0.705639 0.242044 0.278438 0.207515
H1    H     H_    0.893594 0.452042 0.445188 0.123211
H2    H     H_    0.615262 0.014090 0.054082 0.118502
H3    H     H_    0.756679 0.411874 0.115549 0.163967
H4    H     H_    0.783051 0.930131 0.726124 0.109329
H5    H     H_    0.870312 0.897244 0.741585 0.151576
H6    H     H_    0.786896 0.030903 0.767935 0.204443
H7    H     H_    0.873037 0.997768 0.783438 0.165444
H8    H     H_    0.930269 0.019740 0.727728 0.142648
H9    H     H_    0.887488 0.101672 0.742996 0.141893
H10   H     H_    0.843714 0.048823 0.710622 0.135618
H11   H     H_    0.258825 0.074279 0.171852 0.169813
H12   H     H_    0.295440 0.162709 0.178770 0.120078
H13   H     H_    0.986170 0.384709 0.945914 0.118539
H14   H     H_    0.132237 0.131526 0.165087 0.186230
H15   H     H_    0.176057 0.219348 0.166119 0.184833
H16   H     H_    0.253713 0.183238 0.116881 0.154181
H17   H     H_    0.157705 0.180960 0.107546 0.140025
H18   H     H_    0.205939 0.097089 0.114942 0.150338
H19   H     H_    0.945061 0.249560 0.816827 0.179805
H20   H     H_    0.917196 0.210050 0.777988 0.127561
H21   H     H_    0.868255 0.159056 0.848683 0.176007
H22   H     H_    0.845653 0.115948 0.809523 0.194939
H23   H     H_    0.979665 0.094385 0.798697 0.166293
H24   H     H_    0.048133 0.606365 0.054818 0.123217
H25   H     H_    0.946726 0.050360 0.836252 0.140427
H26   H     H_    0.999114 0.132921 0.839645 0.147196
H27   H     H_    0.162618 0.624865 0.164398 0.202571
H28   H     H_    0.237232 0.622292 0.192901 0.086956
H29   H     H_    0.226895 0.718448 0.129173 0.168788
H30   H     H_    0.303602 0.714580 0.157387 0.186162
H31   H     H_    0.319128 0.581983 0.144425 0.137289
H32   H     H_    0.323891 0.637408 0.107020 0.143751
H33   H     H_    0.242258 0.586280 0.115926 0.164091
H34   H     H_    0.749552 0.445061 0.683178 0.179803
H35   H     H_    0.606405 0.048029 0.945184 0.123214
H36   H     H_    0.710038 0.417192 0.722014 0.127555
H37   H     H_    0.659053 0.368255 0.651316 0.175998
H38   H     H_    0.615939 0.345650 0.690474 0.194947
H39   H     H_    0.594374 0.479662 0.701302 0.166291
H40   H     H_    0.550354 0.446724 0.663744 0.140427
H41   H     H_    0.632915 0.499111 0.660355 0.147200
H42   H     H_    0.124981 0.662635 0.335673 0.202635
H43   H     H_    0.122247 0.737111 0.307101 0.087020
H44   H     H_    0.218642 0.727170 0.370769 0.168818
H45   H     H_    0.214540 0.803760 0.342496 0.186143
H46   H     H_    0.384738 0.986101 0.054081 0.118535
H47   H     H_    0.081971 0.819130 0.355554 0.137315
H48   H     H_    0.137538 0.824132 0.392908 0.143762
H49   H     H_    0.086502 0.742385 0.384115 0.164068
H50   H     H_    0.569863 0.716966 0.773877 0.109335
H51   H     H_    0.602751 0.629701 0.758424 0.151565
H52   H     H_    0.469092 0.713106 0.732065 0.204453
H53   H     H_    0.502227 0.626957 0.716571 0.165439
H54   H     H_    0.480253 0.569754 0.772289 0.142645
H55   H     H_    0.398321 0.612525 0.757012 0.141888
H56   H     H_    0.451166 0.656317 0.789383 0.135620
H57   H     H_    0.014096 0.615242 0.945922 0.118528
H58   H     H_    0.425695 0.241077 0.328156 0.169873
H59   H     H_    0.337263 0.204473 0.321223 0.120082
H60   H     H_    0.368471 0.367640 0.334960 0.186146
H61   H     H_    0.280632 0.323858 0.333896 0.184840
H62   H     H_    0.316666 0.246108 0.383115 0.154173
H63   H     H_    0.318981 0.342097 0.392485 0.140040
H64   H     H_    0.402836 0.293838 0.385086 0.150404
H65   H     H_    0.250448 0.554932 0.683182 0.179812
H66   H     H_    0.289967 0.582808 0.722017 0.127546
H67   H     H_    0.340941 0.631737 0.651317 0.175995
H68   H     H_    0.952223 0.393547 0.054804 0.123185
H69   H     H_    0.384060 0.654346 0.690474 0.194951
H70   H     H_    0.405629 0.520336 0.701304 0.166284
H71   H     H_    0.449643 0.553270 0.663745 0.140428
H72   H     H_    0.367081 0.500881 0.660359 0.147203
H73   H     H_    0.875001 0.337383 0.335681 0.202656
H74   H     H_    0.877744 0.262905 0.307110 0.087001
H75   H     H_    0.781323 0.272847 0.370768 0.168818
H76   H     H_    0.785447 0.196253 0.342498 0.186141
H77   H     H_    0.918012 0.180900 0.355573 0.137316
H78   H     H_    0.862427 0.175897 0.392920 0.143758
H79   H     H_    0.249567 0.945042 0.183163 0.179787
H80   H     H_    0.913459 0.257649 0.384131 0.164079
H81   H     H_    0.430132 0.283056 0.773878 0.109326
H82   H     H_    0.397242 0.370313 0.758416 0.151583
H83   H     H_    0.530908 0.286900 0.732071 0.204436
H84   H     H_    0.497768 0.373035 0.716564 0.165447
H85   H     H_    0.519734 0.430281 0.772272 0.142649
H86   H     H_    0.601670 0.387500 0.757008 0.141895
H87   H     H_    0.548820 0.343733 0.789382 0.135616
H88   H     H_    0.574299 0.758928 0.328149 0.169874
H89   H     H_    0.662737 0.795520 0.321219 0.120062
H90   H     H_    0.210061 0.917192 0.222004 0.127582
H91   H     H_    0.631505 0.632360 0.334960 0.186155
H92   H     H_    0.719350 0.676130 0.333898 0.184851
H93   H     H_    0.683322 0.753894 0.383113 0.154174
H94   H     H_    0.680991 0.657907 0.392487 0.140039
H95   H     H_    0.597145 0.706179 0.385082 0.150413
H96   H     H_    0.717097 0.569807 0.226135 0.109406
H97   H     H_    0.629785 0.602700 0.241530 0.151437
H98   H     H_    0.713137 0.469104 0.267992 0.204551
H99   H     H_    0.626908 0.502228 0.283395 0.165382
H100  H     H_    0.569975 0.480158 0.227615 0.142633
H101  H     H_    0.159053 0.868233 0.151313 0.176013
H102  H     H_    0.612653 0.398261 0.242985 0.141843
H103  H     H_    0.656627 0.451012 0.210637 0.135664
H104  H     H_    0.241068 0.425693 0.671846 0.169880
H105  H     H_    0.204472 0.337259 0.678778 0.120071
H106  H     H_    0.367636 0.368482 0.665038 0.186143
H107  H     H_    0.323862 0.280640 0.666102 0.184848
H108  H     H_    0.246101 0.316667 0.616885 0.154171
H109  H     H_    0.342090 0.318994 0.607512 0.140041
H110  H     H_    0.293821 0.402841 0.614914 0.150410
H111  H     H_    0.554926 0.250454 0.316817 0.179811
H112  H     H_    0.115264 0.513968 0.554083 0.118532
H113  H     H_    0.115953 0.845639 0.190475 0.194921
H114  H     H_    0.582804 0.289967 0.277982 0.127518
H115  H     H_    0.631723 0.340951 0.348683 0.175988
H116  H     H_    0.654341 0.384065 0.309527 0.194944
H117  H     H_    0.520334 0.405633 0.298688 0.166266
H118  H     H_    0.553261 0.449652 0.336248 0.140431
H119  H     H_    0.500869 0.367092 0.339633 0.147210
H120  H     H_    0.337365 0.874994 0.664314 0.202652
H121  H     H_    0.262907 0.877752 0.692895 0.087026
H122  H     H_    0.272796 0.781312 0.629241 0.168823
H123  H     H_    0.196219 0.785456 0.657520 0.186140
H124  H     H_    0.094394 0.979654 0.201298 0.166300
H125  H     H_    0.180876 0.918017 0.644440 0.137319
H126  H     H_    0.175840 0.862421 0.607097 0.143761
H127  H     H_    0.257606 0.913443 0.615871 0.164072
H128  H     H_    0.283093 0.430115 0.226116 0.109307
H129  H     H_    0.370338 0.397219 0.241592 0.151608
H130  H     H_    0.286925 0.530909 0.267912 0.204393
H131  H     H_    0.373038 0.497757 0.283443 0.165465
H132  H     H_    0.430350 0.519686 0.227748 0.142675
H133  H     H_    0.387568 0.601637 0.242994 0.141907
H134  H     H_    0.343825 0.548781 0.210613 0.135614
H135  H     H_    0.050358 0.946706 0.163746 0.140436
H136  H     H_    0.758923 0.574302 0.671847 0.169877
H137  H     H_    0.795519 0.662738 0.678778 0.120071
H138  H     H_    0.632354 0.631510 0.665039 0.186144
H139  H     H_    0.676127 0.719353 0.666101 0.184848
H140  H     H_    0.753884 0.683323 0.616885 0.154173
H141  H     H_    0.657895 0.680995 0.607512 0.140040
H142  H     H_    0.706165 0.597148 0.614915 0.150410
H143  H     H_    0.445062 0.749554 0.316824 0.179800
H144  H     H_    0.417193 0.710042 0.277987 0.127567
H145  H     H_    0.368246 0.659057 0.348682 0.176010
H146  H     H_    0.132918 0.999093 0.160347 0.147185
H147  H     H_    0.345651 0.615943 0.309522 0.194944
H148  H     H_    0.479668 0.594382 0.298702 0.166308
H149  H     H_    0.446720 0.550360 0.336257 0.140424
H150  H     H_    0.499106 0.632922 0.339651 0.147194
H151  H     H_    0.662630 0.124979 0.664327 0.202642
H152  H     H_    0.737111 0.122250 0.692898 0.087015
H153  H     H_    0.727157 0.218643 0.629231 0.168819
H154  H     H_    0.803752 0.214543 0.657503 0.186143
H155  H     H_    0.819124 0.081976 0.644442 0.137315
H156  H     H_    0.824119 0.137543 0.607089 0.143761
H157  H     H_    0.624954 0.162624 0.835652 0.202625
H158  H     H_    0.742373 0.086505 0.615882 0.164071
H159  H     H_    0.813442 0.528542 0.361563 0.174998
H160  H     H_    0.817274 0.524613 0.406795 0.104722
H161  H     H_    0.746639 0.410119 0.360714 0.213359
H162  H     H_    0.752721 0.404865 0.405865 0.155439
H163  H     H_    0.681420 0.522140 0.410087 0.142361
H164  H     H_    0.632019 0.450760 0.389044 0.144314
H165  H     H_    0.672974 0.522629 0.364632 0.155194
H166  H     H_    0.179185 0.618205 0.632341 0.188120
H167  H     H_    0.138820 0.618517 0.591772 0.110393
H168  H     H_    0.622266 0.237144 0.807102 0.086999
H169  H     H_    0.277133 0.537589 0.615347 0.153813
H170  H     H_    0.235038 0.519076 0.575512 0.160581
H171  H     H_    0.250831 0.647892 0.558008 0.145397
H172  H     H_    0.336734 0.608769 0.570473 0.142854
H173  H     H_    0.289746 0.669879 0.598509 0.139641
H174  H     H_    0.381792 0.820830 0.367658 0.188123
H175  H     H_    0.381482 0.861190 0.408227 0.110392
H176  H     H_    0.462398 0.722872 0.384653 0.153815
H177  H     H_    0.480908 0.764961 0.424490 0.160578
H178  H     H_    0.352087 0.749178 0.441987 0.145396
H179  H     H_    0.718597 0.227079 0.870786 0.168808
H180  H     H_    0.391202 0.663274 0.429523 0.142852
H181  H     H_    0.330102 0.710272 0.401484 0.139649
H182  H     H_    0.471461 0.186555 0.638435 0.175003
H183  H     H_    0.475391 0.182722 0.593203 0.104718
H184  H     H_    0.589885 0.253358 0.639285 0.213361
H185  H     H_    0.595139 0.247276 0.594133 0.155436
H186  H     H_    0.477861 0.318573 0.589911 0.142360
H187  H     H_    0.549242 0.367976 0.610952 0.144314
H188  H     H_    0.477374 0.327022 0.635365 0.155189
H189  H     H_    0.186556 0.471461 0.361568 0.174996
H190  H     H_    0.714560 0.303707 0.842533 0.186152
H191  H     H_    0.182728 0.475400 0.406800 0.104716
H192  H     H_    0.253356 0.589885 0.360714 0.213363
H193  H     H_    0.247280 0.595147 0.405865 0.155438
H194  H     H_    0.318581 0.477871 0.410090 0.142359
H195  H     H_    0.367980 0.549250 0.389047 0.144315
H196  H     H_    0.327025 0.477378 0.364636 0.155187
H197  H     H_    0.820826 0.381795 0.632341 0.188117
H198  H     H_    0.861185 0.381484 0.591772 0.110392
H199  H     H_    0.722867 0.462400 0.615347 0.153815
H200  H     H_    0.764953 0.480907 0.575509 0.160579
H201  H     H_    0.581983 0.319120 0.855566 0.137308
H202  H     H_    0.749169 0.352087 0.558012 0.145395
H203  H     H_    0.663264 0.391202 0.570477 0.142852
H204  H     H_    0.710266 0.330104 0.598515 0.139649
H205  H     H_    0.618198 0.179185 0.367659 0.188120
H206  H     H_    0.618512 0.138828 0.408229 0.110391
H207  H     H_    0.537580 0.277134 0.384650 0.153811
H208  H     H_    0.519070 0.235046 0.424487 0.160582
H209  H     H_    0.647887 0.250845 0.441990 0.145396
H210  H     H_    0.608763 0.336744 0.429523 0.142853
H211  H     H_    0.669872 0.289751 0.401488 0.139644
H212  H     H_    0.637513 0.324047 0.892934 0.143760
H213  H     H_    0.528534 0.813442 0.638435 0.175002
H214  H     H_    0.524604 0.817273 0.593203 0.104719
H215  H     H_    0.410105 0.746647 0.639282 0.213359
H216  H     H_    0.404853 0.752726 0.594131 0.155441
H217  H     H_    0.522126 0.681420 0.589912 0.142359
H218  H     H_    0.450742 0.632024 0.610953 0.144315
H219  H     H_    0.522613 0.672976 0.635366 0.155191
H220  H     H_    0.313432 0.028524 0.861556 0.175019
H221  H     H_    0.317271 0.024635 0.906789 0.104717
H222  H     H_    0.246653 0.910084 0.860731 0.213345
H223  H     H_    0.486042 0.884735 0.445918 0.118534
H224  H     H_    0.586449 0.242334 0.884106 0.164079
H225  H     H_    0.252737 0.904877 0.905884 0.155447
H226  H     H_    0.181414 0.022141 0.910082 0.142359
H227  H     H_    0.132026 0.950735 0.889051 0.144317
H228  H     H_    0.172970 0.022590 0.864627 0.155190
H229  H     H_    0.679371 0.118230 0.132300 0.188072
H230  H     H_    0.638941 0.118541 0.091748 0.110412
H231  H     H_    0.777180 0.037472 0.115317 0.153779
H232  H     H_    0.734991 0.018864 0.075514 0.160633
H233  H     H_    0.750886 0.147644 0.057922 0.145418
H234  H     H_    0.836760 0.108374 0.070325 0.142869
H235  H     H_    0.069857 0.216963 0.273895 0.109333
H236  H     H_    0.790031 0.169649 0.098375 0.139529
H237  H     H_    0.881804 0.320864 0.867668 0.188101
H238  H     H_    0.881540 0.361207 0.908242 0.110389
H239  H     H_    0.962402 0.222877 0.884644 0.153827
H240  H     H_    0.980931 0.264938 0.924485 0.160560
H241  H     H_    0.852110 0.249177 0.941986 0.145394
H242  H     H_    0.891199 0.163269 0.929508 0.142849
H243  H     H_    0.830106 0.210303 0.901479 0.139657
H244  H     H_    0.971427 0.686502 0.138403 0.174956
H245  H     H_    0.975478 0.682691 0.093173 0.104733
H246  H     H_    0.102751 0.129699 0.258444 0.151585
H247  H     H_    0.089806 0.753370 0.139326 0.213397
H248  H     H_    0.095191 0.747302 0.094176 0.155416
H249  H     H_    0.977873 0.818533 0.089893 0.142364
H250  H     H_    0.049187 0.867972 0.110965 0.144310
H251  H     H_    0.977288 0.826987 0.135347 0.155186
H252  H     H_    0.686546 0.971448 0.861575 0.174981
H253  H     H_    0.682725 0.975424 0.906806 0.104721
H254  H     H_    0.753368 0.089857 0.860697 0.213376
H255  H     H_    0.747294 0.095162 0.905848 0.155430
H256  H     H_    0.818574 0.977874 0.910093 0.142361
H257  H     H_    0.969073 0.213081 0.232089 0.204449
H258  H     H_    0.867985 0.049230 0.889040 0.144312
H259  H     H_    0.827020 0.977347 0.864639 0.155188
H260  H     H_    0.320893 0.881789 0.132337 0.188105
H261  H     H_    0.361237 0.881507 0.091763 0.110378
H262  H     H_    0.222895 0.962366 0.115350 0.153829
H263  H     H_    0.264952 0.980869 0.075506 0.160572
H264  H     H_    0.249202 0.852040 0.058022 0.145391
H265  H     H_    0.163289 0.891118 0.070501 0.142847
H266  H     H_    0.210348 0.830052 0.098534 0.139670
H267  H     H_    0.118213 0.679220 0.867649 0.188137
H268  H     H_    0.002217 0.126937 0.216594 0.165408
H269  H     H_    0.118573 0.638841 0.908214 0.110396
H270  H     H_    0.037588 0.777137 0.884661 0.153801
H271  H     H_    0.019096 0.735020 0.924493 0.160600
H272  H     H_    0.147915 0.750840 0.941992 0.145397
H273  H     H_    0.108764 0.836737 0.929539 0.142856
H274  H     H_    0.169879 0.789781 0.901494 0.139635
H275  H     H_    0.028244 0.313233 0.138527 0.175267
H276  H     H_    0.024775 0.317279 0.093294 0.104687
H277  H     H_    0.909581 0.246713 0.139035 0.213214
H278  H     H_    0.904966 0.252880 0.093876 0.155504
H279  H     H_    0.980269 0.069735 0.272314 0.142640
H280  H     H_    0.022105 0.181341 0.089948 0.142346
H281  H     H_    0.950427 0.132055 0.110831 0.144336
H282  H     H_    0.022109 0.172897 0.135403 0.155181
H283  H     H_    0.898326 0.112491 0.257042 0.141887
H284  H     H_    0.951172 0.156294 0.289408 0.135613
H285  H     H_    0.925694 0.741065 0.828156 0.169873
H286  H     H_    0.837259 0.704470 0.821222 0.120068
H287  H     H_    0.547968 0.106404 0.554812 0.123211
H288  H     H_    0.868483 0.867631 0.834965 0.186143
H289  H     H_    0.780640 0.823859 0.833900 0.184848
H290  H     H_    0.816665 0.746098 0.883116 0.154168
H291  H     H_    0.818995 0.842086 0.892490 0.140044
H292  H     H_    0.902842 0.793815 0.885088 0.150408
H293  H     H_    0.750491 0.054878 0.183228 0.179897
H294  H     H_    0.790069 0.082822 0.222040 0.127459
H295  H     H_    0.840892 0.131669 0.151304 0.175881
H296  H     H_    0.884094 0.154336 0.190435 0.195099
H297  H     H_    0.905721 0.020349 0.201290 0.166229
H298  H     H_    0.106405 0.547967 0.445190 0.123211
H299  H     H_    0.949636 0.053243 0.163698 0.140426
H300  H     H_    0.867078 0.000829 0.160370 0.147236
H301  H     H_    0.374971 0.837364 0.835704 0.202668
H302  H     H_    0.377769 0.762941 0.807105 0.087042
H303  H     H_    0.281271 0.772730 0.870744 0.168833
H304  H     H_    0.285473 0.696183 0.842448 0.186131
H305  H     H_    0.418029 0.680881 0.855554 0.137325
H306  H     H_    0.362398 0.675785 0.892883 0.143765
H307  H     H_    0.413397 0.757579 0.884139 0.164066
H308  H     H_    0.930129 0.783057 0.273871 0.109328
H309  H     H_    0.884729 0.486040 0.554082 0.118534
H310  H     H_    0.897242 0.870313 0.258407 0.151573
H311  H     H_    0.030899 0.786889 0.232060 0.204442
H312  H     H_    0.997765 0.873028 0.216554 0.165449
H313  H     H_    0.019742 0.930269 0.272263 0.142651
H314  H     H_    0.101673 0.887485 0.256995 0.141897
H315  H     H_    0.048826 0.843717 0.289370 0.135618
H316  H     H_    0.074305 0.258925 0.828153 0.169884
H317  H     H_    0.162740 0.295520 0.821222 0.120073
H318  H     H_    0.131516 0.132356 0.834959 0.186148
H319  H     H_    0.219359 0.176131 0.833898 0.184845
H320  H     H_    0.513965 0.115269 0.445918 0.118532
H321  H     H_    0.183328 0.253885 0.883115 0.154177
H322  H     H_    0.181003 0.157896 0.892486 0.140037
H323  H     H_    0.097153 0.206163 0.885083 0.150411
H324  H     H_    0.216956 0.069866 0.726121 0.109332
H325  H     H_    0.129693 0.102755 0.741577 0.151571
H326  H     H_    0.213101 0.969094 0.767932 0.204449
H327  H     H_    0.126957 0.002232 0.783429 0.165437
H328  H     H_    0.069739 0.980260 0.727714 0.142644
H329  H     H_    0.112513 0.898327 0.742987 0.141889
H330  H     H_    0.156298 0.951173 0.710616 0.135618
H331  H     H_    0.452040 0.893596 0.554810 0.123210
H332  H     H_    0.741053 0.925660 0.171829 0.169866
H333  H     H_    0.704442 0.837236 0.178775 0.120065
H334  H     H_    0.867605 0.868430 0.165020 0.186137
H335  H     H_    0.823826 0.780591 0.166102 0.184861
H336  H     H_    0.746053 0.816578 0.116885 0.154149
H337  H     H_    0.842039 0.818894 0.107505 0.140058
H338  H     H_    0.793774 0.902749 0.114895 0.150386
H339  H     H_    0.054929 0.750455 0.816813 0.179810
H340  H     H_    0.082808 0.789975 0.777980 0.127542
H341  H     H_    0.131735 0.840943 0.848682 0.175989
H342  H     H_    0.393595 0.952102 0.945194 0.123207
H343  H     H_    0.154344 0.884066 0.809527 0.194958
H344  H     H_    0.020331 0.905633 0.798696 0.166284
H345  H     H_    0.053268 0.949645 0.836256 0.140425
H346  H     H_    0.000879 0.867083 0.839641 0.147207
H347  H     H_    0.837116 0.374308 0.163828 0.203188
H348  H     H_    0.763652 0.378113 0.192906 0.087382
H349  H     H_    0.770724 0.280018 0.129693 0.169275
H350  H     H_    0.694983 0.285904 0.158384 0.185821
H351  H     H_    0.680906 0.418282 0.144581 0.137463
H352  H     H_    0.674024 0.361626 0.107642 0.143822
O1    O     O_3   0.500000 0.000000 0.250000 -0.465144
O2    O     O_R   0.500000 0.939240 0.675070 -0.521927
O3    O     O_3   0.946080 0.378958 0.120480 -0.571046
O4    O     O_R   0.939240 0.500000 0.324930 -0.521936
O5    O     O_R   0.060760 0.500000 0.675070 -0.507087
O6    O     O_R   0.000000 0.439240 0.824930 -0.507092
O7    O     O_R   1.000000 0.560760 0.175070 -0.521945
O8    O     O_R   0.560760 0.000000 0.824930 -0.521930
O9    O     O_R   0.439240 0.000000 0.175070 -0.507095
O10   O     O_R   0.000000 0.560760 0.824930 -0.507090
O11   O     O_R   0.000000 0.439240 0.175070 -0.521817
O12   O     O_R   0.439240 0.000000 0.824930 -0.521926
O13   O     O_3   0.500000 0.000000 0.750000 -0.466034
O14   O     O_R   0.560760 0.000000 0.175070 -0.507047
O15   O     O_R   0.414510 0.146130 0.269710 -0.525553
O16   O     O_R   0.585490 0.853870 0.730290 -0.512335
O17   O     O_R   0.853870 0.414510 0.269710 -0.520946
O18   O     O_R   0.146130 0.585490 0.730290 -0.526526
O19   O     O_R   0.585490 0.853870 0.269710 -0.525568
O20   O     O_R   0.414510 0.146130 0.730290 -0.512332
O21   O     O_R   0.146130 0.585490 0.269710 -0.520877
O22   O     O_R   0.853870 0.414510 0.730290 -0.526530
O23   O     O_R   0.414510 0.853870 0.730290 -0.520885
O24   O     O_3   1.000000 0.500000 0.250000 -0.466050
O25   O     O_R   0.585490 0.146130 0.269710 -0.526550
O26   O     O_R   0.853870 0.585490 0.730290 -0.525558
O27   O     O_R   0.146130 0.414510 0.269710 -0.512334
O28   O     O_R   0.585490 0.146130 0.730290 -0.520881
O29   O     O_R   0.414510 0.853870 0.269710 -0.526519
O30   O     O_R   0.146130 0.414510 0.730290 -0.525554
O31   O     O_R   0.853870 0.585490 0.269710 -0.512362
O32   O     O_R   0.914510 0.646130 0.769710 -0.525553
O33   O     O_R   0.085490 0.353870 0.230290 -0.512385
O34   O     O_R   0.353870 0.914510 0.769710 -0.520872
O35   O     O_3   1.000000 0.500000 0.750000 -0.465135
O36   O     O_R   0.646130 0.085490 0.230290 -0.526441
O37   O     O_R   0.085490 0.353870 0.769710 -0.525554
O38   O     O_R   0.914510 0.646130 0.230290 -0.512306
O39   O     O_R   0.646130 0.085490 0.769710 -0.520902
O40   O     O_R   0.353870 0.914510 0.230290 -0.526546
O41   O     O_R   0.914510 0.353870 0.230290 -0.520595
O42   O     O_R   0.085490 0.646130 0.769710 -0.526521
O43   O     O_R   0.353870 0.085490 0.230290 -0.525538
O44   O     O_R   0.646130 0.914510 0.769710 -0.512332
O45   O     O_R   0.085490 0.646130 0.230290 -0.520935
O46   O     O_R   0.500000 0.939240 0.324930 -0.507092
O47   O     O_R   0.914510 0.353870 0.769710 -0.526531
O48   O     O_R   0.646130 0.914510 0.230290 -0.525546
O49   O     O_R   0.353870 0.085490 0.769710 -0.512339
O50   O     O_3   0.265650 0.837094 0.193076 -0.555519
O51   O     O_3   0.719955 0.174603 0.809340 -0.552546
O52   O     O_3   0.112013 0.217031 0.225214 -0.535223
O53   O     O_3   0.879173 0.777136 0.784495 -0.544317
O54   O     O_3   0.734394 0.162841 0.193098 -0.555634
O55   O     O_3   0.280039 0.825410 0.809337 -0.552542
O56   O     O_3   0.887960 0.782957 0.225190 -0.535160
O57   O     O_R   0.500000 0.060760 0.675070 -0.521927
O58   O     O_3   0.120826 0.222860 0.784492 -0.544316
O59   O     O_3   0.217037 0.112032 0.774802 -0.535173
O60   O     O_3   0.777124 0.879158 0.215495 -0.544306
O61   O     O_3   0.162883 0.734368 0.806916 -0.555562
O62   O     O_3   0.825441 0.280003 0.190673 -0.552504
O63   O     O_3   0.782963 0.887965 0.774805 -0.535170
O64   O     O_3   0.222834 0.120808 0.215524 -0.544323
O65   O     O_3   0.837109 0.265645 0.806921 -0.555525
O66   O     O_3   0.174614 0.719936 0.190658 -0.552538
O67   O     O_3   0.765638 0.337109 0.693081 -0.555543
O68   O     O_R   0.060760 0.500000 0.324930 -0.521933
O69   O     O_3   0.219955 0.674603 0.309339 -0.552535
O70   O     O_3   0.612030 0.717038 0.725197 -0.535170
O71   O     O_3   0.379173 0.277135 0.284493 -0.544338
O72   O     O_3   0.234361 0.662885 0.693082 -0.555545
O73   O     O_3   0.780036 0.325414 0.309340 -0.552573
O74   O     O_3   0.387967 0.282961 0.725197 -0.535170
O75   O     O_3   0.620823 0.722856 0.284489 -0.544260
O76   O     O_3   0.717035 0.612032 0.274805 -0.535175
O77   O     O_3   0.277137 0.379172 0.715507 -0.544320
O78   O     O_3   0.662881 0.234368 0.306920 -0.555539
O79   O     O_R   0.939240 0.500000 0.675070 -0.507096
O80   O     O_3   0.325404 0.780039 0.690662 -0.552548
O81   O     O_3   0.282964 0.387967 0.274800 -0.535168
O82   O     O_3   0.722858 0.620826 0.715508 -0.544313
O83   O     O_3   0.337110 0.765644 0.306919 -0.555543
O84   O     O_3   0.674597 0.219953 0.690661 -0.552537
O85   O     O_3   0.878933 0.446076 0.379512 -0.570717
O86   O     O_3   0.131051 0.520563 0.620629 -0.557419
O87   O     O_3   0.479440 0.868949 0.379373 -0.557422
O88   O     O_3   0.553929 0.121065 0.620488 -0.570705
O89   O     O_3   0.121066 0.553930 0.379514 -0.570701
O90   O     O_R   0.500000 0.060760 0.324930 -0.507087
O91   O     O_3   0.868946 0.479442 0.620626 -0.557423
O92   O     O_3   0.520555 0.131054 0.379372 -0.557419
O93   O     O_3   0.446071 0.878936 0.620486 -0.570715
O94   O     O_3   0.378940 0.946086 0.879518 -0.570728
O95   O     O_3   0.631053 0.020649 0.120639 -0.557350
O96   O     O_3   0.979479 0.368943 0.879372 -0.557428
O97   O     O_3   0.053976 0.621063 0.120494 -0.570675
O98   O     O_3   0.621071 0.053942 0.879508 -0.570692
O99   O     O_3   0.368957 0.979463 0.120622 -0.557419
O100  O     O_3   0.020597 0.631047 0.879373 -0.557414
Zn1   Zn    Zn3+2 0.413200 0.000000 0.222070 0.939719
Zn2   Zn    Zn3+2 0.086800 0.500000 0.277930 0.932324
Zn3   Zn    Zn3+2 0.500000 0.913200 0.722070 0.932343
Zn4   Zn    Zn3+2 0.500000 0.086800 0.277930 0.939695
Zn5   Zn    Zn3+2 0.086800 0.500000 0.722070 0.939711
Zn6   Zn    Zn3+2 0.913200 0.500000 0.277930 0.932356
Zn7   Zn    Zn3+2 0.500000 0.086800 0.722070 0.932338
Zn8   Zn    Zn3+2 0.500000 0.913200 0.277930 0.939709
Zn9   Zn    Zn3+2 0.586800 0.000000 0.777930 0.932338
Zn10  Zn    Zn3+2 0.000000 0.413200 0.222070 0.932509
Zn11  Zn    Zn3+2 1.000000 0.586800 0.777930 0.939712
Zn12  Zn    Zn3+2 0.586800 0.000000 0.222070 0.939748
Zn13  Zn    Zn3+2 0.413200 0.000000 0.777930 0.932340
Zn14  Zn    Zn3+2 0.000000 0.586800 0.222070 0.932379
Zn15  Zn    Zn3+2 0.000000 0.413200 0.777930 0.939711
Zn16  Zn    Zn3+2 0.913200 0.500000 0.722070 0.939711

loop_
_geom_bond_atom_site_label_1
_geom_bond_atom_site_label_2
_ccdc_geom_bond_type
C18   C243  S    
C40   H212  S    
C46   C205  A    
C85   H29   S    
C92   H44   S    
C74   H5    S    
C126  C127  S    
C12   C256  A    
C10   C265  A    
C200  C218  A    
C51   H301  S    
C55   C56   S    
C271  O77   S    
C21   C247  A    
C104  O73   S    
C62   H326  S    
C28   C217  S    
C221  O5    A    
C184  O99   S    
C79   O85   S    
O21   Zn2   S    
C125  H120  S    
C76   H10   S    
C58   O58   S    
C164  O93   S    
C47   H291  S    
C118  O77   S    
C104  H73   S    
C6    C25   A    
O24   Zn6   S    
C33   C199  A    
C157  C251  A    
C122  H115  S    
C108  C109  S    
C27   C90   A    
O42   Zn11  S    
C184  H261  S    
C110  C111  S    
C226  O15   A    
C192  H278  S    
C228  O17   A    
C60   H322  S    
C18   C250  A    
C260  O66   S    
C236  O36   A    
C228  O41   A    
C255  O61   S    
C180  H250  S    
O5    Zn5   S    
C61   O59   S    
O49   Zn13  S    
C7    C23   A    
C8    C233  S    
C259  O65   S    
C199  O3    S    
C59   C60   S    
C40   H224  S    
C36   H113  S    
C96   H54   S    
C158  O91   S    
C246  O52   S    
C142  H162  S    
O13   Zn13  S    
C89   H39   S    
C59   H318  S    
C244  O50   S    
C104  C105  S    
C247  C257  A    
C144  O86   S    
C179  O95   S    
C45   C47   S    
C236  O25   A    
C72   H350  S    
C110  O75   S    
C154  H189  S    
C80   H16   S    
C76   H8    S    
C191  C192  S    
C167  H221  S    
C82   H22   S    
C223  O11   A    
C72   C73   S    
C127  H127  S    
O33   Zn10  S    
C218  H298  S    
C4    C265  A    
C143  H164  S    
C109  H85   S    
C224  O8    A    
C233  O45   A    
C181  O98   S    
C105  H75   S    
C196  H223  S    
O22   Zn16  S    
C75   C76   S    
C108  H83   S    
C40   H201  S    
C156  H196  S    
C266  O72   S    
C267  C272  A    
C247  O53   S    
O28   Zn7   S    
C178  C180  S    
C175  C176  S    
C219  O2    A    
C99   H64   S    
C114  H94   S    
C184  H260  S    
C137  H149  S    
C162  H207  S    
C53   H306  S    
C154  C155  S    
O45   Zn14  S    
C123  H117  S    
C13   H13   S    
C65   H334  S    
O48   Zn12  S    
C146  C240  A    
C33   C194  A    
C249  C255  A    
C77   O64   S    
C86   H32   S    
C93   H47   S    
C52   H304  S    
C158  C159  S    
C249  O55   S    
C1    C200  A    
C24   C194  A    
C172  H232  S    
C49   H296  S    
C39   H190  S    
C91   C92   S    
O35   Zn11  S    
C139  H154  S    
C141  H159  S    
C109  H86   S    
C25   C244  A    
C29   C113  A    
C261  O67   S    
C204  C262  A    
C169  H225  S    
O2    Zn3   S    
C144  C145  S    
C34   O50   S    
C37   H124  S    
C143  H163  S    
C165  H216  S    
C235  O23   A    
C139  C140  S    
C90   O86   S    
O34   Zn13  S    
C138  O84   S    
O6    Zn15  S    
C163  H210  S    
O40   Zn1   S    
C17   C252  A    
C200  C209  S    
C71   O62   S    
C193  H282  S    
C50   H300  S    
C66   H338  S    
C144  H167  S    
O41   Zn10  S    
C140  H156  S    
C194  O97   S    
C115  O76   S    
C151  H182  S    
C80   H18   S    
C63   H330  S    
C98   H60   S    
C136  H145  S    
O19   Zn8   S    
C77   H12   S    
C115  H96   S    
C81   H20   S    
C14   C230  S    
C130  H132  S    
C83   H26   S    
C131  H137  S    
C5    C21   A    
C88   C89   S    
C240  H320  S    
C98   C99   S    
C155  C156  S    
C96   H56   S    
C224  O12   A    
C13   C206  A    
C37   H146  S    
C82   C83   S    
C3    O80   S    
O30   Zn5   S    
C89   H41   S    
C269  O75   S    
C93   H49   S    
C252  C253  A    
C156  H195  S    
C127  H126  S    
C239  O39   A    
C21   C237  S    
C98   H61   S    
C8    C260  A    
O8    Zn9   S    
C265  O71   S    
C71   H347  S    
C52   H303  S    
C161  O92   S    
C183  H259  S    
C244  C260  A    
C202  C211  S    
C17   C271  A    
C128  C129  S    
C130  H133  S    
O12   Zn13  S    
C116  H99   S    
C153  H187  S    
C167  C169  S    
C85   C86   S    
C109  H87   S    
C107  O74   S    
C129  H130  S    
C272  O78   S    
C189  H273  S    
C11   C257  A    
C100  H66   S    
C36   C37   S    
C162  H208  S    
C237  O32   A    
C61   H324  S    
O29   Zn8   S    
C202  C240  A    
C38   C39   S    
C253  O59   S    
C70   H344  S    
O15   Zn4   S    
O27   Zn2   S    
C115  C116  S    
C117  H100  S    
C184  C185  S    
C153  H186  S    
C119  H106  S    
C166  H219  S    
C43   H283  S    
C174  C175  S    
C126  H122  S    
C149  H176  S    
C183  H256  S    
C242  O37   A    
C102  C103  S    
C182  C183  S    
C231  O19   A    
C257  O63   S    
C229  H309  S    
C146  O92   S    
C107  C108  S    
C110  H89   S    
C175  H239  S    
O47   Zn15  S    
C173  H234  S    
C2    H2    S    
C102  H69   S    
C101  C196  A    
C95   H53   S    
C201  C229  A    
C111  H92   S    
C248  O54   S    
C217  O46   A    
C3    C266  A    
C220  O4    A    
C167  H220  S    
C141  O85   S    
C245  C259  A    
C242  O30   A    
C137  H150  S    
C24   H24   S    
C44   H286  S    
C97   O71   S    
O24   Zn2   S    
O11   Zn10  S    
C231  O48   A    
C112  H112  S    
C106  H77   S    
C234  O47   A    
C157  O93   S    
C195  O98   S    
C140  H158  S    
C70   H346  S    
C59   H319  S    
C39   C40   S    
C22   C246  A    
C90   C112  A    
C135  O91   S    
C67   H339  S    
C20   C236  S    
C87   H36   S    
C94   H50   S    
C57   C206  A    
C13   C190  A    
C120  H108  S    
O44   Zn9   S    
C136  H147  S    
C64   O60   S    
C134  C136  S    
C227  O16   A    
C43   H279  S    
C81   O65   S    
C4    C22   A    
C142  H161  S    
C54   H310  S    
C45   H289  S    
C185  H262  S    
C62   C63   S    
C209  C210  T    
C32   C190  A    
C11   C264  A    
C158  H197  S    
O26   Zn16  S    
C67   H340  S    
C97   H59   S    
C203  C251  A    
C143  H165  S    
C170  H228  S    
C134  O83   S    
C177  C178  S    
C178  H247  S    
C91   O69   S    
O37   Zn15  S    
C128  H129  S    
C64   H332  S    
O13   Zn7   S    
C18   C270  A    
C132  H139  S    
C53   H305  S    
C52   C53   S    
C164  H214  S    
C129  C130  S    
C45   H288  S    
O24   Zn14  S    
C54   C55   S    
C41   H246  S    
C56   H313  S    
C15   C231  S    
C103  H72   S    
C136  C137  S    
O35   Zn16  S    
C95   H52   S    
C69   H341  S    
C62   H327  S    
C28   C146  A    
C73   H352  S    
C124  O89   S    
C153  H188  S    
C27   C135  A    
C166  H217  S    
O68   Zn2   S    
C134  H143  S    
C71   C72   S    
C104  H74   S    
C168  C262  A    
C37   H135  S    
C163  H211  S    
C122  H116  S    
C186  H264  S    
C7    C261  A    
C125  O80   S    
C34   C36   S    
C91   H43   S    
C173  H236  S    
C191  H276  S    
C100  O72   S    
C144  H166  S    
C102  H67   S    
C263  O69   S    
C171  H230  S    
C211  C212  T    
C34   H90   S    
C107  H82   S    
C151  H183  S    
C155  H193  S    
C48   O54   S    
C152  C153  S    
O46   Zn8   S    
C49   C50   S    
C120  H109  S    
C138  H151  S    
C38   H157  S    
O1    Zn4   S    
O90   Zn4   S    
C115  H97   S    
C118  H105  S    
C230  O18   A    
O7    Zn14  S    
C206  C215  S    
C250  C254  A    
C87   C88   S    
O79   Zn16  S    
C186  H265  S    
C41   C42   S    
C201  C210  S    
C174  H237  S    
C51   O55   S    
O38   Zn14  S    
C188  H271  S    
C176  H242  S    
C161  H206  S    
C161  C162  S    
C58   H316  S    
C160  H204  S    
C181  C182  S    
C172  C173  S    
C87   H34   S    
C48   H294  S    
C36   H101  S    
C128  H128  S    
C150  H180  S    
C88   H37   S    
C68   C199  A    
C113  C207  A    
C66   H336  S    
C164  C165  S    
C182  H254  S    
C241  O29   A    
C64   H333  S    
C133  H142  S    
C69   C70   S    
C35   H35   S    
C57   C198  A    
C116  H98   S    
C35   C204  A    
C12   C228  S    
C54   H308  S    
C234  O22   A    
C177  O97   S    
C238  O27   A    
O32   Zn11  S    
C32   C198  A    
C159  H200  S    
C108  H84   S    
C58   H317  S    
C267  O73   S    
C256  O62   S    
C28   C101  A    
C170  H226  S    
C99   H63   S    
C114  H95   S    
C68   C208  A    
C137  H148  S    
C42   H268  S    
C151  C152  S    
C243  O38   A    
C139  H153  S    
C119  H107  S    
C147  H172  S    
C198  O100  S    
O1    Zn8   S    
C55   H312  S    
C35   C195  A    
C145  H170  S    
C84   H27   S    
C258  O64   S    
C85   H30   S    
C268  O74   S    
C56   H315  S    
C269  C270  A    
C245  O51   S    
C187  H269  S    
C103  H70   S    
C48   H293  S    
C51   H302  S    
C26   C124  A    
C112  C201  A    
C145  C147  S    
C91   H42   S    
C97   C98   S    
C47   H290  S    
C69   H343  S    
C177  H244  S    
C118  H104  S    
C75   H6    S    
C76   H9    S    
O39   Zn9   S    
C128  O81   S    
C121  O78   S    
C165  H215  S    
C19   C249  A    
C46   C197  A    
C29   C157  A    
C220  O68   A    
C58   C59   S    
C163  H209  S    
C24   C208  A    
C106  H80   S    
C51   C52   S    
C31   C179  A    
O9    Zn1   S    
C23   C245  A    
C192  H277  S    
O35   Zn5   S    
C73   H351  S    
C246  C258  A    
C238  O33   A    
C23   C239  S    
C60   H321  S    
C159  C160  S    
C193  H280  S    
C213  C214  T    
C63   H329  S    
C180  H249  S    
C78   C80   S    
C77   H11   S    
C8    C263  A    
C84   O66   S    
C81   H19   S    
C241  O40   A    
C121  C122  S    
C47   H292  S    
C46   H46   S    
C33   C223  S    
C190  O96   S    
C48   C49   S    
O57   Zn7   S    
C17   C242  S    
C25   C241  S    
O10   Zn11  S    
C221  O79   A    
O25   Zn4   S    
C125  C126  S    
C168  O94   S    
C176  H241  S    
C160  H203  S    
C250  O56   S    
C42   C43   S    
C219  O57   A    
C171  O95   S    
C131  C132  S    
C89   H40   S    
C31   C197  A    
C44   C45   S    
C152  H184  S    
C138  H152  S    
C162  C163  S    
C127  H125  S    
C232  O49   A    
C235  O34   A    
C72   H349  S    
C150  H178  S    
C149  H177  S    
C9    C234  S    
C42   H257  S    
C151  O88   S    
C54   O56   S    
C82   H21   S    
C19   C235  S    
C130  H134  S    
C132  H138  S    
C119  C120  S    
C101  O87   S    
C105  C106  S    
C26   C79   A    
C105  H76   S    
C64   C65   S    
C30   C168  A    
C187  C188  S    
C49   H295  S    
C149  C150  S    
C227  O44   A    
O31   Zn6   S    
O13   Zn3   S    
C185  C186  S    
C148  H175  S    
C114  H93   S    
C92   C93   S    
C111  C114  S    
C181  H253  S    
C44   O53   S    
C65   C66   S    
C148  H174  S    
C94   C95   S    
C53   H307  S    
C126  H123  S    
C138  C139  S    
C123  H118  S    
C87   O67   S    
C207  H287  S    
C65   H335  S    
O24   Zn10  S    
C92   H45   S    
C233  O21   A    
C86   H31   S    
C135  C229  A    
C93   H48   S    
C193  H281  S    
C187  H267  S    
C142  C143  S    
C99   H62   S    
C172  H231  S    
C173  H233  S    
C39   H179  S    
C22   C238  S    
C111  H91   S    
C171  C172  S    
C225  O14   A    
C165  C166  S    
C222  O10   A    
C63   H328  S    
C181  H252  S    
C270  O76   S    
C169  C170  S    
C95   C96   S    
O1    Zn1   S    
C215  C216  T    
C191  O3    S    
C41   H235  S    
C81   C82   S    
C106  H78   S    
C110  H88   S    
C50   H299  S    
C66   H337  S    
C188  H270  S    
C140  H155  S    
C169  H222  S    
C232  O20   A    
C60   H323  S    
O14   Zn12  S    
C152  H185  S    
C254  O60   S    
C94   H51   S    
C180  H251  S    
C252  O58   S    
C116  C117  S    
C117  H102  S    
C16   C253  A    
C264  O70   S    
O43   Zn1   S    
C118  C119  S    
C237  O26   A    
C223  O7    A    
C83   H23   S    
C86   H33   S    
O23   Zn3   S    
C14   C255  A    
C30   C195  A    
C132  C133  S    
C9    C261  A    
C96   H55   S    
C10   C258  A    
C176  H243  S    
C6    C263  A    
C158  H198  S    
C20   C272  A    
C1    H1    S    
C77   C78   S    
C97   H58   S    
C208  C216  S    
C178  H248  S    
C71   H348  S    
C174  O96   S    
C61   C62   S    
C147  H173  S    
C6    O83   S    
C133  H141  S    
C262  H342  S    
C4    O81   S    
C124  C218  A    
C129  H131  S    
C56   H314  S    
C74   C75   S    
C26   C220  S    
C189  H274  S    
C167  O94   S    
C103  H71   S    
C100  H65   S    
C84   C85   S    
C148  C149  S    
C189  H272  S    
O35   Zn15  S    
C30   C224  S    
C203  C207  A    
C204  C213  S    
C16   C232  S    
C75   H7    S    
C188  C189  S    
C67   C69   S    
C68   H68   S    
C166  H218  S    
O18   Zn5   S    
C134  H144  S    
C43   H284  S    
O1    Zn12  S    
C197  O99   S    
C5    C264  A    
C133  H140  S    
C222  O6    A    
C230  O42   A    
C268  C271  A    
C29   C219  S    
C121  H114  S    
C3    C19   A    
C100  C102  S    
C217  O90   A    
C175  H240  S    
C2    C205  A    
C34   H79   S    
C191  H275  S    
C16   C268  A    
C61   H325  S    
C171  H229  S    
C117  H103  S    
C107  H81   S    
C11   C227  S    
C239  O28   A    
C155  H192  S    
C31   C225  S    
C120  H110  S    
C203  C212  S    
C67   O61   S    
C2    C179  A    
C196  C202  A    
C83   H25   S    
C78   H15   S    
C154  O89   S    
C38   H168  S    
C44   H285  S    
C57   H57   S    
C251  H331  S    
C38   O51   S    
C186  H266  S    
C50   H297  S    
C174  H238  S    
C160  H202  S    
C70   H345  S    
C161  H205  S    
C205  C214  S    
C141  H160  S    
C32   C222  S    
C248  C256  A    
C148  O87   S    
C121  H111  S    
O13   Zn9   S    
C150  H181  S    
C88   H38   S    
C154  H191  S    
O20   Zn7   S    
C125  H121  S    
C192  C193  S    
O17   Zn6   S    
C9    C259  A    
C182  H255  S    
O36   Zn12  S    
C12   C267  A    
C74   O63   S    
C7    O84   S    
C177  H245  S    
C141  C142  S    
C131  H136  S    
C73   H3    S    
C1    C79   A    
C185  H263  S    
C74   H4    S    
C113  O88   S    
C78   H14   S    
C243  O31   A    
C27   C221  S    
C159  H199  S    
O16   Zn3   S    
C156  H194  S    
C131  O82   S    
C170  H227  S    
C20   C248  A    
C187  O100  S    
C80   H17   S    
C41   O52   S    
C145  H169  S    
C10   C226  S    
C226  O43   A    
C5    O82   S    
C183  H258  S    
C225  O9    A    
C94   O70   S    
C147  H171  S    
C122  C123  S    
C15   C269  A    
O4    Zn6   S    
C55   H311  S    
C14   C266  A    
C123  H119  S    
C164  H213  S    
C84   H28   S    
C15   C254  A    
