data_mof_unit_16279.cif
_audit_creation_date              2012-10-26T20:09:43-0400
_audit_creation_method            fapswitch 2.2
_symmetry_space_group_name_H-M    P1
_symmetry_Int_Tables_number       1
_space_group_crystal_system       triclinic
_cell_length_a                    11.18613
_cell_length_b                    9.633646
_cell_length_c                    15.901679
_cell_angle_alpha                 88.078516
_cell_angle_beta                  90.175173
_cell_angle_gamma                 90.559525
_cell_volume                      1712.56448128

loop_
_atom_site_label
_atom_site_type_symbol
_atom_type_description
_atom_site_fract_x
_atom_site_fract_y
_atom_site_fract_z
_atom_type_partial_charge
C1    C     C_R   0.260519 0.497870 0.507835 0.689435
C2    C     C_3   0.924431 0.402508 0.586596 0.422881
C3    C     C_3   0.072197 0.457781 0.422962 0.448322
C4    C     C_3   0.121467 0.493149 0.514791 -0.103142
C5    C     C_3   0.879190 0.504178 0.509471 0.059718
C6    C     C_R   0.495142 0.501699 0.340301 0.487909
C7    C     C_3   0.928390 0.453386 0.420668 0.488310
C8    C     C_3   0.622298 0.082457 0.491996 -0.097429
C9    C     C_3   0.618572 0.919428 0.481809 -0.099256
C10   C     C_3   0.446858 0.074123 0.580747 0.251112
C11   C     C_3   0.460372 0.908898 0.585159 0.236363
C12   C     C_3   0.644800 0.478056 0.951956 -0.171646
C13   C     C_3   0.432764 0.086531 0.428181 0.254554
C14   C     C_3   0.413218 0.922113 0.439569 0.268586
C15   C     C_R   0.739782 0.501147 0.504839 0.581162
C16   C     C_R   0.505900 0.498214 0.658798 0.574454
C17   C     C_3   0.481059 0.638706 0.037678 0.121902
C18   C     C_3   0.424913 0.372357 0.045092 0.138384
C19   C     C_3   0.440899 0.364207 0.948369 -0.191709
C20   C     C_3   0.459476 0.623994 0.942784 -0.227199
C21   C     C_1   0.514256 0.492731 0.747868 -0.052903
C22   C     C_3   0.508228 0.491590 0.080627 0.064793
C23   C     C_3   0.640638 0.453754 0.050814 0.453083
C24   C     C_3   0.516883 0.488331 0.914497 -0.074821
C25   C     C_3   0.965110 0.856604 0.429844 -0.141800
C26   C     C_3   0.897330 0.170032 0.640649 -0.096001
C27   C     C_3   0.133922 0.556855 0.288605 0.024313
C28   C     C_3   0.118058 0.203600 0.421561 -0.141372
C29   C     C_3   0.775369 0.548810 0.325088 -0.077597
C30   C     C_3   0.881902 0.268027 0.325844 -0.092929
C31   C     C_3   0.590865 0.145097 0.687139 -0.074570
C32   C     C_3   0.478962 0.856792 0.730425 -0.086375
C33   C     C_3   0.419033 0.152574 0.282775 -0.040023
C34   C     C_1   0.518608 0.489126 0.822981 -0.093785
C35   C     C_3   0.307370 0.829789 0.328937 -0.085814
C36   C     C_3   0.844528 0.525349 0.062701 -0.089680
C37   C     C_3   0.708226 0.274535 0.147460 -0.102984
C38   C     C_3   0.861330 0.836813 0.619301 -0.025705
C39   C     C_3   0.790207 0.448091 0.701053 -0.012639
C40   C     C_1   0.500815 0.498778 0.173637 0.066843
C41   C     C_1   0.496710 0.503637 0.249580 -0.007909
C42   C     C_3   0.072879 0.642939 0.538044 0.108657
C43   C     C_3   0.064507 0.383825 0.580260 0.130691
C44   C     C_3   0.930046 0.656812 0.526321 0.475393
Cu1   Cu    Cu3+1 0.499860 0.642410 0.500040 1.043676
Cu2   Cu    Cu3+1 0.499860 0.357590 0.500040 1.015143
H1    H     H_    0.362231 0.622153 0.928009 0.221928
H2    H     H_    0.370173 0.862717 0.597547 0.178880
H3    H     H_    0.455174 0.271871 0.073729 0.161107
H4    H     H_    0.564395 0.702002 0.042797 0.152964
H5    H     H_    0.485874 0.265329 0.933630 0.127436
H6    H     H_    0.499191 0.715646 0.908242 0.086368
H7    H     H_    0.694008 0.575772 0.934678 0.112504
H8    H     H_    0.693931 0.392287 0.922491 0.140848
H9    H     H_    0.118335 0.714268 0.493119 0.135147
H10   H     H_    0.073556 0.284326 0.554654 0.101949
H11   H     H_    0.025788 0.823469 0.379527 0.165640
H12   H     H_    0.353126 0.362631 0.915153 0.202609
H13   H     H_    0.016904 0.904511 0.481164 0.104396
H14   H     H_    0.907757 0.939162 0.401690 0.121314
H15   H     H_    0.919593 0.210780 0.703024 0.213747
H16   H     H_    0.970232 0.106980 0.615243 0.168087
H17   H     H_    0.822258 0.098623 0.651973 0.037704
H18   H     H_    0.076056 0.477915 0.259619 0.192458
H19   H     H_    0.229423 0.528830 0.283728 0.189329
H20   H     H_    0.119374 0.655608 0.252454 0.148836
H21   H     H_    0.029779 0.172822 0.446222 0.155688
H22   H     H_    0.182457 0.185635 0.472930 0.116788
H23   H     H_    0.682016 0.104973 0.544253 0.130764
H24   H     H_    0.139465 0.129094 0.372293 0.103665
H25   H     H_    0.722863 0.457149 0.346385 0.138765
H26   H     H_    0.775426 0.551691 0.255476 0.144171
H27   H     H_    0.731826 0.645471 0.344289 0.189713
H28   H     H_    0.928580 0.167585 0.323445 0.113170
H29   H     H_    0.922666 0.339537 0.278113 0.146885
H30   H     H_    0.788558 0.244322 0.307912 0.105734
H31   H     H_    0.639455 0.047306 0.690113 0.131202
H32   H     H_    0.590572 0.183259 0.752172 0.107015
H33   H     H_    0.643904 0.219817 0.649543 0.159349
H34   H     H_    0.684727 0.870173 0.522731 0.174995
H35   H     H_    0.443193 0.752069 0.744462 0.151863
H36   H     H_    0.404030 0.930897 0.736054 0.178485
H37   H     H_    0.545127 0.878710 0.780458 0.106663
H38   H     H_    0.342682 0.218975 0.299843 0.157051
H39   H     H_    0.387506 0.058926 0.251004 0.192927
H40   H     H_    0.471974 0.212470 0.235160 0.133853
H41   H     H_    0.251305 0.923992 0.321354 0.054871
H42   H     H_    0.261586 0.753666 0.371024 0.159839
H43   H     H_    0.316857 0.782644 0.267503 0.224233
H44   H     H_    0.359867 0.909745 0.985307 0.344515
H45   H     H_    0.669251 0.132161 0.437172 0.198055
H46   H     H_    0.124992 0.221187 0.056168 0.369339
H47   H     H_    0.868817 0.614215 0.019713 0.157803
H48   H     H_    0.860463 0.426898 0.030037 0.157086
H49   H     H_    0.905782 0.527512 0.117675 0.151515
H50   H     H_    0.684296 0.348850 0.195807 0.115499
H51   H     H_    0.806847 0.264675 0.145260 0.126263
H52   H     H_    0.670933 0.171608 0.167439 0.150619
H53   H     H_    0.264757 0.640322 0.724853 0.371011
H54   H     H_    0.318488 0.333901 0.727958 0.374796
H55   H     H_    0.864044 0.908984 0.564579 0.097722
H56   H     H_    0.644757 0.894569 0.416595 0.175061
H57   H     H_    0.927581 0.869624 0.666200 0.198149
H58   H     H_    0.774159 0.849989 0.650680 0.132763
H59   H     H_    0.789899 0.367088 0.752229 0.089885
H60   H     H_    0.722180 0.424074 0.654645 0.111434
H61   H     H_    0.765957 0.547395 0.729605 0.158930
H62   H     H_    0.345578 0.135567 0.426791 0.075988
H63   H     H_    0.320766 0.908123 0.466162 0.010274
H64   H     H_    0.348525 0.089272 0.574553 0.118758
N1    N     N_3   0.500250 0.143650 0.501830 -0.277330
N2    N     N_3   0.500250 0.856350 0.501830 -0.258402
O1    O     O_R   0.317570 0.620260 0.500050 -0.488703
O2    O     O_3   0.862911 0.272298 0.580089 -0.592611
O3    O     O_3   0.107348 0.578618 0.373824 -0.621855
O4    O     O_3   0.129086 0.339853 0.385556 -0.560501
O5    O     O_3   0.894900 0.548798 0.352976 -0.541885
O6    O     O_3   0.881629 0.316203 0.409301 -0.572874
O7    O     O_3   0.470573 0.138126 0.658901 -0.524957
O8    O     O_3   0.537866 0.863332 0.650973 -0.568291
O9    O     O_3   0.495504 0.117719 0.351355 -0.545969
O10   O     O_3   0.422217 0.860733 0.360412 -0.497830
O11   O     O_2   0.282111 0.668783 0.135038 -0.242107
O12   O     O_R   0.317570 0.379740 0.500050 -0.478054
O13   O     O_2   0.436651 0.848966 0.139526 -0.322526
O14   O     O_3   0.299729 0.842513 0.008188 -0.464574
O15   O     O_2   0.252270 0.376883 0.163851 -0.346370
O16   O     O_2   0.203846 0.487537 0.025962 -0.225683
O17   O     O_3   0.209965 0.219415 0.038896 -0.504715
O18   O     O_3   0.725666 0.541551 0.091338 -0.609714
O19   O     O_3   0.664651 0.309249 0.066192 -0.597598
O20   O     O_2   0.140027 0.865066 0.627536 -0.366233
O21   O     O_2   0.047949 0.674634 0.710108 -0.185872
O22   O     O_3   0.264596 0.649787 0.662633 -0.491672
O23   O     O_R   0.499890 0.620310 0.379470 -0.463552
O24   O     O_2   0.088897 0.411511 0.754674 -0.185802
O25   O     O_2   0.136899 0.187742 0.697851 -0.320217
O26   O     O_3   0.285336 0.381363 0.676908 -0.477857
O27   O     O_3   0.872311 0.694756 0.602339 -0.499183
O28   O     O_3   0.905178 0.462993 0.666268 -0.456254
O29   O     O_R   0.499890 0.379690 0.379470 -0.489838
O30   O     O_R   0.682190 0.620260 0.500020 -0.492994
O31   O     O_R   0.682190 0.379740 0.500020 -0.487882
O32   O     O_R   0.499870 0.620210 0.620600 -0.434268
O33   O     O_R   0.499870 0.379790 0.620600 -0.456359
O34   O     O_3   0.890057 0.744652 0.456944 -0.547364
S1    S     S_3+6 0.372199 0.749844 0.083692 0.008837
S2    S     S_3+6 0.268464 0.370453 0.070602 -0.014975
S3    S     S_3+6 0.129174 0.709718 0.637251 0.017553
S4    S     S_3+6 0.141472 0.342039 0.680368 0.041684

loop_
_geom_bond_atom_site_label_1
_geom_bond_atom_site_label_2
_ccdc_geom_bond_type
C14   H63   S    
C16   C21   S    
C14   O10   S    
C39   H60   S    
C7    O5    S    
C26   H17   S    
C37   H51   S    
Cu1   N2    S    
Cu1   Cu2   S    
O26   S4    S    
C39   H61   S    
C32   H35   S    
C12   C23   S    
C8    H23   S    
C6    O23   A    
C1    O1    A    
C16   O32   A    
C26   H15   S    
C38   H55   S    
C3    C7    S    
C3    O4    S    
C30   H28   S    
Cu2   O33   S    
C29   H27   S    
C17   C20   S    
C30   H30   S    
C18   C19   S    
C42   S3    S    
C33   H39   S    
O17   S2    S    
C38   H58   S    
C10   O7    S    
C28   O4    S    
C35   H41   S    
C36   H47   S    
C20   C24   S    
C9    H56   S    
C6    C41   S    
Cu1   O32   S    
C44   O34   S    
C38   O27   S    
C10   H64   S    
C25   O34   S    
C25   H14   S    
C12   H7    S    
O15   S2    D    
C23   O18   S    
C29   H26   S    
C9    N2    S    
Cu2   N1    S    
C33   O9    S    
O20   S3    D    
C7    O6    S    
Cu2   O12   S    
C11   H2    S    
C42   C44   S    
C32   O8    S    
C13   H62   S    
C11   O8    S    
O16   S2    D    
C37   H52   S    
C31   H31   S    
Cu2   O29   S    
C19   H12   S    
Cu1   O23   S    
C25   H11   S    
C28   H21   S    
O21   S3    D    
O13   S1    D    
C8    N1    S    
C5    C7    S    
C8    C9    S    
C21   C34   T    
C30   O6    S    
O22   S3    S    
C29   O5    S    
C24   C34   S    
C37   O19   S    
C37   H50   S    
C16   O33   A    
C9    H34   S    
C14   N2    S    
C33   H40   S    
C26   O2    S    
C38   H57   S    
C27   H19   S    
C36   O18   S    
C42   H9    S    
C15   O30   A    
C13   O9    S    
C35   H42   S    
C2    C43   S    
C22   C40   S    
H44   O14   S    
C23   O19   S    
C10   N1    S    
C8    H45   S    
Cu1   O1    S    
C6    O29   A    
C31   O7    S    
C43   S4    S    
H54   O26   S    
C15   O31   A    
C35   H43   S    
C40   C41   T    
C5    C44   S    
O11   S1    D    
C44   O27   S    
Cu1   O30   S    
O25   S4    D    
C2    C5    S    
C3    C4    S    
C31   H32   S    
C39   H59   S    
C32   H37   S    
C39   O28   S    
C17   S1    S    
C11   N2    S    
C18   C22   S    
C35   O10   S    
C28   H24   S    
C28   H22   S    
C17   H4    S    
O24   S4    D    
O14   S1    S    
C31   H33   S    
Cu2   O31   S    
C4    C43   S    
C32   H36   S    
C12   C24   S    
C18   S2    S    
C17   C22   S    
C1    C4    S    
C2    O28   S    
C19   C24   S    
C26   H16   S    
C1    O12   A    
C20   H6    S    
C27   H20   S    
C3    O3    S    
C30   H29   S    
C2    O2    S    
C36   H49   S    
C4    C42   S    
C19   H5    S    
H46   O17   S    
C33   H38   S    
C5    C15   S    
C20   H1    S    
C10   C11   S    
C36   H48   S    
C43   H10   S    
H53   O22   S    
C13   N1    S    
C27   H18   S    
C22   C23   S    
C25   H13   S    
C13   C14   S    
C12   H8    S    
C18   H3    S    
C29   H25   S    
C27   O3    S    
