data_mof_unit_42958.cif
_audit_creation_date              2012-12-10T17:19:39-0500
_audit_creation_method            fapswitch 2.2
_symmetry_space_group_name_H-M    P1
_symmetry_Int_Tables_number       1
_space_group_crystal_system       triclinic
_cell_length_a                    10.372641
_cell_length_b                    10.812892
_cell_length_c                    11.498572
_cell_angle_alpha                 90.9262
_cell_angle_beta                  81.232705
_cell_angle_gamma                 95.51106
_cell_volume                      1268.69761329

loop_
_atom_site_label
_atom_site_type_symbol
_atom_type_description
_atom_site_fract_x
_atom_site_fract_y
_atom_site_fract_z
_atom_type_partial_charge
C1    C     C_R   0.556365 0.731586 0.491411 0.904042
C2    C     C_2   0.407580 0.137026 0.526511 -0.255538
C3    C     C_2   0.510064 0.941103 0.527766 0.282997
C4    C     C_2   0.489934 0.058897 0.472232 0.282990
C5    C     C_2   0.926964 0.502168 0.515756 0.020338
C6    C     C_2   0.073038 0.497835 0.484241 0.020338
C7    C     C_R   0.282394 0.097537 0.603747 0.130876
C8    C     C_R   0.251133 0.153138 0.714707 -0.054166
C9    C     C_R   0.129801 0.121326 0.783761 -0.129955
C10   C     C_R   0.038293 0.035273 0.742065 -0.098204
C11   C     C_R   0.068320 0.980687 0.631513 -0.078339
C12   C     C_R   0.443635 0.268414 0.508588 0.904045
C13   C     C_R   0.189973 0.010911 0.562700 -0.077524
C14   C     C_R   0.717603 0.902463 0.396250 0.130875
C15   C     C_R   0.810025 0.989089 0.437297 -0.077536
C16   C     C_R   0.931675 0.019315 0.368481 -0.078341
C17   C     C_R   0.961698 0.964731 0.257927 -0.098196
C18   C     C_R   0.870189 0.878679 0.216232 -0.129950
C19   C     C_R   0.748860 0.846865 0.285290 -0.054162
C20   C     C_R   0.126403 0.437108 0.373838 0.197430
C21   C     C_R   0.157502 0.313557 0.373302 -0.045774
C22   C     C_R   0.202370 0.255470 0.267288 -0.133472
C23   C     C_R   0.499535 0.499668 0.717410 0.887548
C24   C     C_R   0.211727 0.318768 0.160874 -0.088263
C25   C     C_R   0.177864 0.440850 0.160421 -0.113328
C26   C     C_R   0.136182 0.500380 0.266499 -0.081922
C27   C     C_R   0.873599 0.562890 0.626162 0.197426
C28   C     C_R   0.863826 0.499617 0.733499 -0.081943
C29   C     C_R   0.822145 0.559144 0.839579 -0.113326
C30   C     C_R   0.788278 0.681224 0.839130 -0.088264
C31   C     C_R   0.797629 0.744524 0.732718 -0.133473
C32   C     C_R   0.842495 0.686440 0.626702 -0.045759
C33   C     C_R   0.500465 0.500332 0.282590 0.887550
C34   C     C_1   0.498453 0.499238 0.838280 -0.142254
C35   C     C_1   0.501548 0.500763 0.161720 -0.142254
C36   C     C_1   0.498987 0.499543 0.940678 -0.012290
C37   C     C_1   0.501014 0.500458 0.059322 -0.012291
C38   C     C_2   0.592419 0.862974 0.473488 -0.255541
Cl1   Cl    Cl    0.566027 0.098339 0.326062 -0.588024
Cl2   Cl    Cl    0.433971 0.901662 0.673937 -0.588022
Cl3   Cl    Cl    0.132108 0.670428 0.647399 -0.510833
Cl4   Cl    Cl    0.867895 0.329595 0.352579 -0.510828
H1    H     H_    0.320690 0.220947 0.747569 0.109613
H2    H     H_    0.679302 0.779056 0.252428 0.109611
H3    H     H_    0.142827 0.261375 0.454494 0.121435
H4    H     H_    0.227483 0.160626 0.267554 0.133069
H5    H     H_    0.244943 0.273214 0.078740 0.133446
H6    H     H_    0.184727 0.489591 0.077905 0.145278
H7    H     H_    0.109903 0.594861 0.265162 0.116673
H8    H     H_    0.890109 0.405137 0.734833 0.116671
H9    H     H_    0.815286 0.510400 0.922094 0.145280
H10   H     H_    0.755063 0.726775 0.921266 0.133444
H11   H     H_    0.772514 0.839368 0.732456 0.133070
H12   H     H_    0.106390 0.164076 0.869194 0.134030
H13   H     H_    0.857167 0.738624 0.545511 0.121438
H14   H     H_    0.943948 0.011430 0.795130 0.130772
H15   H     H_    0.997066 0.915709 0.598391 0.131036
H16   H     H_    0.211090 0.968905 0.476570 0.131328
H17   H     H_    0.788911 0.031093 0.523427 0.131324
H18   H     H_    0.002930 0.084293 0.401601 0.131032
H19   H     H_    0.056041 0.988576 0.204859 0.130772
H20   H     H_    0.893597 0.835931 0.130798 0.134029
N1    N     N_2   0.842700 0.448890 0.453570 0.028103
N2    N     N_2   0.157300 0.551110 0.546430 0.028102
O1    O     O_R   0.431060 0.692470 0.509350 -0.522070
O2    O     O_R   0.568940 0.307530 0.490650 -0.522075
O3    O     O_R   0.651120 0.659650 0.479540 -0.656189
O4    O     O_R   0.348880 0.340350 0.520460 -0.656189
O5    O     O_R   0.389960 0.516400 0.680450 -0.557140
O6    O     O_R   0.610040 0.483600 0.319550 -0.557131
O7    O     O_R   0.610030 0.483580 0.650650 -0.629593
O8    O     O_R   0.389970 0.516420 0.349350 -0.629594
Zn1   Zn    Zn3+2 0.353060 0.521910 0.519900 1.036870
Zn2   Zn    Zn3+2 0.646940 0.478090 0.480100 1.036873

loop_
_geom_bond_atom_site_label_1
_geom_bond_atom_site_label_2
_ccdc_geom_bond_type
O6    Zn2   S    
O7    Zn2   S    
C2    C4    D    
N2    Zn1   S    
C8    H1    S    
O5    Zn1   S    
C29   C30   A    
C9    H12   S    
N1    Zn2   S    
C14   C38   S    
C10   H14   S    
C9    C10   A    
C23   O5    A    
C32   H13   S    
C1    O1    A    
C31   C32   A    
Cl3   N2    S    
C4    Cl1   S    
C19   H2    S    
C23   C34   S    
C2    C12   S    
C12   O4    A    
C17   C18   A    
C25   C26   A    
O1    Zn1   S    
C7    C8    A    
O3    Zn2   S    
C5    C27   S    
C21   C22   A    
C24   C25   A    
C11   C13   A    
C25   H6    S    
C30   C31   A    
Cl4   N1    S    
C20   C26   A    
C1    C38   S    
C21   H3    S    
C15   C16   A    
C33   O6    A    
C28   C29   A    
C22   H4    S    
C3    Cl2   S    
C34   C36   T    
C16   H18   S    
C5    C6    S    
C22   C24   A    
C31   H11   S    
C16   C17   A    
C10   C11   A    
C27   C32   A    
C17   H19   S    
C3    C4    S    
O2    Zn2   S    
C23   O7    A    
C7    C13   A    
C6    C20   S    
C20   C21   A    
C5    N1    D    
C8    C9    A    
C18   C19   A    
C29   H9    S    
C26   H7    S    
C6    N2    D    
C27   C28   A    
C28   H8    S    
C14   C15   A    
C36   C37   S    
C30   H10   S    
C13   H16   S    
C33   O8    A    
C33   C35   S    
O4    Zn1   S    
C11   H15   S    
C24   H5    S    
C12   O2    A    
C14   C19   A    
C18   H20   S    
C1    O3    A    
C2    C7    S    
C35   C37   T    
C3    C38   D    
O8    Zn1   S    
C15   H17   S    
