data_mof_unit_22818.cif
_audit_creation_date              2012-12-11T14:06:43-0500
_audit_creation_method            fapswitch 2.2
_symmetry_space_group_name_H-M    P1
_symmetry_Int_Tables_number       1
_space_group_crystal_system       triclinic
_cell_length_a                    6.920548
_cell_length_b                    17.272425
_cell_length_c                    24.050934
_cell_angle_alpha                 104.370549
_cell_angle_beta                  90.619382
_cell_angle_gamma                 89.819136
_cell_volume                      2784.80306992

loop_
_atom_site_label
_atom_site_type_symbol
_atom_type_description
_atom_site_fract_x
_atom_site_fract_y
_atom_site_fract_z
_atom_type_partial_charge
O1    O     O_R   0.494290 0.391990 0.999150 -0.538474
O2    O     O_R   0.827170 0.534410 0.082350 -0.549572
O3    O     O_R   0.994360 0.608010 0.000850 -0.537341
C1    C     C_R   0.658989 0.547807 0.106249 0.682685
O4    O     O_R   0.824210 0.388010 0.004470 -0.542955
O5    O     O_R   0.991370 0.460560 0.922410 -0.528719
C2    C     C_R   0.654681 0.354855 0.001559 0.774615
O6    O     O_R   0.497270 0.539440 0.077590 -0.542013
O7    O     O_3   0.659770 0.523970 0.973170 -0.356965
V1    V     V_3+5 0.935840 0.495550 0.004980 1.420512
O8    O     O_R   0.320910 0.465590 0.917650 -0.533983
C3    C     C_R   0.151035 0.450383 0.894202 0.739935
O9    O     O_R   0.323870 0.611990 0.995530 -0.537885
C4    C     C_R   0.153749 0.645805 0.000793 0.764057
V2    V     V_3+5 0.435470 0.504450 0.995020 1.441598
O10   O     O_3   0.161670 0.476030 0.026830 -0.380047
C5    C     C_2   0.134662 0.729900 0.997943 -0.342396
H1    H     H_    0.244085 0.751186 0.973240 0.146266
C6    C     C_2   0.981105 0.777931 0.018847 -0.073679
C7    C     C_R   0.228341 0.276417 0.621559 0.562739
N1    N     N_R   0.083938 0.325050 0.649409 -0.552929
C8    C     C_R   0.920805 0.338924 0.620521 0.572947
C9    C     C_R   0.902305 0.306947 0.560872 -0.023509
C10   C     C_R   0.051049 0.258158 0.531485 -0.020025
C11   C     C_R   0.214786 0.241937 0.562046 -0.033567
C12   C     C_R   0.739573 0.322792 0.529969 -0.154371
C13   C     C_R   0.725658 0.291222 0.470630 -0.169732
C14   C     C_R   0.873433 0.242536 0.440778 -0.030096
C15   C     C_R   0.035911 0.225459 0.471419 -0.018105
C16   C     C_R   0.183534 0.175961 0.442123 -0.029486
C17   C     C_R   0.345084 0.159255 0.473211 -0.160729
C18   C     C_R   0.360736 0.192004 0.532404 -0.137592
C19   C     C_R   0.863749 0.211128 0.380853 0.560611
N2    N     N_R   0.009139 0.163172 0.352564 -0.552077
C20   C     C_R   0.166070 0.144532 0.382335 0.571229
O11   O     O_2   0.384900 0.261774 0.651285 -0.515541
O12   O     O_2   0.777483 0.383899 0.649478 -0.536849
H2    H     H_    0.622731 0.359908 0.551455 0.159439
H3    H     H_    0.598385 0.304994 0.448279 0.165672
O13   O     O_2   0.711386 0.229581 0.351093 -0.535753
O14   O     O_2   0.304532 0.095246 0.354336 -0.535429
H4    H     H_    0.461027 0.121453 0.451837 0.164385
H5    H     H_    0.488165 0.178411 0.554769 0.173500
C21   C     C_R   0.837819 0.089238 0.264099 -0.089260
H6    H     H_    0.721320 0.075696 0.289864 0.160861
C22   C     C_R   0.825820 0.062488 0.204208 -0.217386
H7    H     H_    0.699635 0.028921 0.185033 0.136409
C23   C     C_R   0.976376 0.077879 0.169583 -0.051617
C24   C     C_R   0.138734 0.120870 0.196244 -0.209626
H8    H     H_    0.256661 0.134024 0.170798 0.131190
C25   C     C_R   0.148845 0.148960 0.256037 -0.100895
H9    H     H_    0.273416 0.183470 0.275440 0.154189
C26   C     C_R   0.998787 0.133336 0.290671 0.357693
C27   C     C_R   0.161624 0.439382 0.733311 0.073741
C28   C     C_R   0.186308 0.468171 0.793746 -0.098690
C29   C     C_R   0.136724 0.419450 0.830897 -0.151785
C30   C     C_R   0.064112 0.341886 0.807327 -0.092617
C31   C     C_R   0.051533 0.311988 0.747843 -0.137669
H10   H     H_    0.000407 0.251544 0.730007 0.139595
C32   C     C_R   0.100330 0.359312 0.710573 0.358134
C33   C     C_R   0.663118 0.853294 0.621438 0.605176
N3    N     N_R   0.513782 0.826773 0.648779 -0.549483
C34   C     C_R   0.379925 0.774291 0.618865 0.584631
C35   C     C_R   0.394931 0.744881 0.559110 -0.020074
C36   C     C_R   0.547095 0.771468 0.529581 -0.028126
C37   C     C_R   0.682594 0.827307 0.560524 -0.093163
C38   C     C_R   0.260144 0.689551 0.528452 -0.165248
C39   C     C_R   0.276878 0.659290 0.469498 -0.169031
C40   C     C_R   0.428015 0.683988 0.439453 -0.022496
C41   C     C_R   0.562860 0.741383 0.469155 -0.038503
C42   C     C_R   0.709021 0.769468 0.438249 -0.064270
C43   C     C_R   0.832900 0.832509 0.468479 0.032133
C44   C     C_R   0.827850 0.856633 0.529532 -0.074637
C45   C     C_R   0.445035 0.652981 0.379981 0.543781
N4    N     N_R   0.594956 0.675379 0.351037 -0.542971
C46   C     C_R   0.724855 0.732361 0.378314 0.543286
O15   O     O_2   0.790986 0.904766 0.653466 -0.512790
O16   O     O_2   0.232379 0.750610 0.646971 -0.521884
H11   H     H_    0.141617 0.668801 0.550016 0.168860
H12   H     H_    0.170480 0.616277 0.447511 0.159123
O17   O     O_2   0.313748 0.599918 0.351262 -0.556590
O18   O     O_2   0.871627 0.750286 0.347429 -0.541142
C47   C     C_R   0.499746 0.668160 0.251638 -0.134349
H13   H     H_    0.397400 0.715859 0.267630 0.144872
C48   C     C_R   0.515316 0.636723 0.192750 -0.264760
H14   H     H_    0.423654 0.661036 0.164419 0.136571
C49   C     C_R   0.649528 0.576459 0.170068 -0.094178
C50   C     C_R   0.765711 0.544207 0.208410 0.025742
C51   C     C_R   0.746505 0.575838 0.269211 0.089474
C52   C     C_R   0.614591 0.639335 0.290174 0.357474
C53   C     C_R   0.564884 0.811037 0.747883 -0.056420
C54   C     C_R   0.548943 0.841500 0.807936 -0.146336
C55   C     C_R   0.466516 0.917955 0.830752 -0.110761
C56   C     C_R   0.401270 0.963546 0.792582 0.030947
C57   C     C_R   0.414477 0.931329 0.732990 -0.086781
H15   H     H_    0.366386 0.966002 0.703560 0.145538
C58   C     C_R   0.495709 0.855949 0.710364 0.310871
C59   C     C_2   0.643092 0.269624 0.001937 -0.324093
H16   H     H_    0.777969 0.238256 0.004465 0.157787
C60   C     C_2   0.472401 0.230641 0.998789 -0.355938
H17   H     H_    0.337547 0.262018 0.996226 0.152801
O19   O     O_R   0.618210 0.960470 0.922400 -0.535139
O20   O     O_R   0.291310 0.111960 0.995450 -0.546066
O21   O     O_R   0.124210 0.039530 0.077580 -0.540491
C61   C     C_R   0.460800 0.145229 0.998670 0.770973
O22   O     O_R   0.288310 0.965490 0.917650 -0.538527
O23   O     O_R   0.121180 0.892010 0.999220 -0.544693
C62   C     C_R   0.456596 0.950388 0.894073 0.716516
O24   O     O_R   0.621230 0.107990 0.000760 -0.536211
O25   O     O_3   0.455770 0.976060 0.026840 -0.372825
V3    V     V_3+5 0.179680 0.004440 0.995020 1.421116
O26   O     O_R   0.791670 0.888040 0.004570 -0.538432
C63   C     C_R   0.962511 0.856360 0.004794 0.771770
O27   O     O_R   0.794680 0.034510 0.082370 -0.548557
C64   C     C_R   0.964361 0.049338 0.106086 0.680643
V4    V     V_3+5 0.680070 0.995560 0.005010 1.422572
O28   O     O_3   0.953840 0.023940 0.973160 -0.366978
C65   C     C_3   0.192342 0.494230 0.693443 -0.377300
C66   C     C_3   0.394995 0.484746 0.667908 -0.268186
C67   C     C_3   0.420536 0.536215 0.625276 -0.710520
H18   H     H_    0.317966 0.517145 0.588595 0.214303
H19   H     H_    0.394708 0.600113 0.646537 0.262079
H20   H     H_    0.570158 0.529522 0.608513 0.235749
H21   H     H_    0.504510 0.502321 0.702911 0.241208
H22   H     H_    0.419244 0.421473 0.645047 0.240764
H23   H     H_    0.082790 0.481992 0.658393 0.205140
H24   H     H_    0.168946 0.557739 0.716334 0.205488
C68   C     C_1   0.258198 0.548311 0.818017 0.308045
N5    N     N_1   0.315558 0.612292 0.837438 -0.335500
C69   C     C_1   0.002542 0.291433 0.843578 0.289461
N6    N     N_1   0.953161 0.251124 0.872664 -0.395176
C70   C     C_3   0.955458 0.881590 0.437154 -0.308752
C71   C     C_3   0.165106 0.851735 0.429861 -0.279631
C72   C     C_3   0.284829 0.901114 0.398329 -0.706455
H25   H     H_    0.223073 0.896864 0.354851 0.247068
H26   H     H_    0.287951 0.964751 0.422831 0.238721
H27   H     H_    0.435327 0.878129 0.393724 0.208550
H28   H     H_    0.232761 0.855667 0.472536 0.195150
H29   H     H_    0.168905 0.788335 0.405361 0.239134
H30   H     H_    0.888855 0.884102 0.395519 0.210176
H31   H     H_    0.955349 0.945443 0.461331 0.155622
C73   C     C_1   0.973265 0.912632 0.559452 0.396909
N7    N     N_1   0.089870 0.957121 0.583013 -0.336407
C74   C     C_3   0.840109 0.760650 0.062791 -0.329588
C75   C     C_3   0.843488 0.827946 0.118486 -0.362482
C76   C     C_3   0.723985 0.806449 0.165420 -0.743273
H32   H     H_    0.723683 0.857472 0.204049 0.229262
H33   H     H_    0.572501 0.793166 0.150442 0.221142
H34   H     H_    0.787671 0.753740 0.177480 0.240623
H35   H     H_    0.994883 0.839461 0.134301 0.195463
H36   H     H_    0.783963 0.883946 0.110436 0.202906
H37   H     H_    0.691844 0.754418 0.043970 0.183916
H38   H     H_    0.875377 0.705008 0.075563 0.193239
C77   C     C_3   0.896805 0.472745 0.184904 -0.378884
C78   C     C_3   0.106596 0.498257 0.178647 -0.258927
C79   C     C_3   0.236718 0.425292 0.158647 -0.726802
H39   H     H_    0.235410 0.388075 0.190256 0.216521
H40   H     H_    0.187008 0.388726 0.116176 0.224674
H41   H     H_    0.387369 0.444676 0.154618 0.209763
H42   H     H_    0.114008 0.535458 0.147189 0.212809
H43   H     H_    0.163832 0.535079 0.220026 0.206815
H44   H     H_    0.892302 0.430389 0.212762 0.174043
H45   H     H_    0.842077 0.436794 0.142888 0.165005
C80   C     C_3   0.859606 0.541410 0.312284 -0.338037
C81   C     C_3   0.743524 0.476891 0.331054 -0.339525
C82   C     C_3   0.860232 0.441059 0.372771 -0.712675
H46   H     H_    0.992139 0.411159 0.351687 0.235401
H47   H     H_    0.902579 0.488406 0.411345 0.220742
H48   H     H_    0.771065 0.396137 0.386666 0.240382
H49   H     H_    0.609065 0.502912 0.352558 0.230464
H50   H     H_    0.702190 0.428366 0.293092 0.204135
H51   H     H_    0.999466 0.515995 0.294764 0.210636
H52   H     H_    0.899449 0.589324 0.350667 0.212455
C83   C     C_1   0.657268 0.734726 0.724453 0.371782
N8    N     N_1   0.731923 0.673902 0.705821 -0.339647
C84   C     C_1   0.616924 0.793973 0.846210 0.339062
N9    N     N_1   0.671174 0.756088 0.876750 -0.338767
C85   C     C_3   0.330941 0.048825 0.813751 -0.368640
C86   C     C_3   0.502185 0.106185 0.831798 -0.303222
C87   C     C_3   0.435363 0.193007 0.847283 -0.703897
H53   H     H_    0.369120 0.208540 0.809199 0.236504
H54   H     H_    0.328734 0.202742 0.882442 0.232155
H55   H     H_    0.560455 0.233097 0.861995 0.236097
H56   H     H_    0.578013 0.093499 0.869508 0.193075
H57   H     H_    0.606719 0.097818 0.795989 0.220791
H58   H     H_    0.247820 0.066837 0.779124 0.194477
H59   H     H_    0.229544 0.054118 0.849940 0.191028

loop_
_geom_bond_atom_site_label_1
_geom_bond_atom_site_label_2
_ccdc_geom_bond_type
C39   H12   S    
C49   C50   A    
C81   H50   S    
C6    C74   S    
C17   H4    S    
C28   C68   S    
C76   H34   S    
C57   H15   S    
C1    O6    A    
C68   N5    T    
C72   H27   S    
C85   C86   S    
C1    C49   S    
C27   C32   A    
C66   H21   S    
C78   H43   S    
C12   C13   A    
C55   C56   A    
C16   C20   A    
C54   C55   A    
C14   C15   A    
C2    C59   S    
C86   H56   S    
C55   C62   S    
O5    C3    A    
C16   C17   A    
C59   H16   S    
C7    C11   A    
C6    C63   S    
C31   C32   A    
C36   C41   A    
N3    C58   S    
C81   H49   S    
V4    O28   S    
O20   V3    S    
N2    C20   A    
C56   C85   S    
C9    C12   A    
C74   H38   S    
C65   C66   S    
O23   C63   A    
O24   V4    S    
C83   N8    T    
O8    V2    S    
C33   C37   A    
C56   C57   A    
N3    C34   A    
C17   C18   A    
C21   C22   A    
C39   C40   A    
C24   C25   A    
C9    C10   A    
O19   C62   A    
C41   C42   A    
O1    V2    S    
O7    V1    S    
C51   C80   S    
C75   H35   S    
N4    C52   S    
C87   H55   S    
O22   V3    S    
C11   C18   A    
C71   H28   S    
O9    C4    A    
C82   H47   S    
C4    C5    S    
C40   C41   A    
C21   C26   A    
O4    V1    S    
O26   C63   A    
C87   H54   S    
C43   C70   S    
C76   H33   S    
C44   C73   S    
C48   C49   A    
C22   C23   A    
C19   O13   S    
C45   N4    A    
C34   C35   A    
C38   C39   A    
C35   C38   A    
C30   C69   S    
C40   C45   A    
C38   H11   S    
C10   C11   A    
N1    C32   S    
C13   H3    S    
C53   C54   A    
O4    C2    A    
C70   C71   S    
C72   H26   S    
C31   H10   S    
C48   H14   S    
C37   C44   A    
C54   C84   S    
O25   V3    S    
C53   C83   S    
C25   C26   A    
C7    O11   S    
O2    C1    A    
N4    C46   A    
C15   C16   A    
O21   C64   A    
C77   H45   S    
C47   H13   S    
C66   C67   S    
C7    N1    A    
C28   C29   A    
C57   C58   A    
C5    H1    S    
C60   C61   S    
C80   H52   S    
O20   C61   A    
C3    C29   S    
C53   C58   A    
C71   H29   S    
C77   C78   S    
C75   H36   S    
O3    C4    A    
C82   H48   S    
C23   C64   S    
C85   H59   S    
C66   H22   S    
C84   N9    T    
C47   C48   A    
C14   C19   A    
C36   C37   A    
O6    V2    S    
C33   O15   S    
O9    V2    S    
C71   C72   S    
C80   H51   S    
C65   H24   S    
C45   O17   S    
C46   O18   S    
O2    V1    S    
O25   V4    S    
C75   C76   S    
O26   V4    S    
C67   H18   S    
C67   H19   S    
C76   H32   S    
C70   H31   S    
C29   C30   A    
C47   C52   A    
C61   O24   A    
C27   C28   A    
C80   C81   S    
C79   H39   S    
C78   H42   S    
O1    C2    A    
O23   V3    S    
C77   H44   S    
C79   H41   S    
C12   H2    S    
C21   H6    S    
C43   C44   A    
C42   C46   A    
O5    V1    S    
O21   V3    S    
O27   V4    S    
O8    C3    A    
C67   H20   S    
O27   C64   A    
C72   H25   S    
C86   H57   S    
C70   H30   S    
C59   C60   D    
V3    O28   S    
C74   C75   S    
C35   C36   A    
C27   C65   S    
C69   N6    T    
O7    V2    S    
C25   H9    S    
C74   H37   S    
O3    V1    S    
V1    O10   S    
C8    O12   S    
C30   C31   A    
C82   H46   S    
O22   C62   A    
C23   C24   A    
C79   H40   S    
C60   H17   S    
C5    C6    D    
C18   H5    S    
C19   N2    A    
C8    C9    A    
C33   N3    A    
C20   O14   S    
C22   H7    S    
O19   V4    S    
C86   C87   S    
C85   H58   S    
C81   C82   S    
C10   C15   A    
C42   C43   A    
C50   C51   A    
N2    C26   S    
C24   H8    S    
C78   C79   S    
C73   N7    T    
C65   H23   S    
C51   C52   A    
N1    C8    A    
C87   H53   S    
V2    O10   S    
C50   C77   S    
C13   C14   A    
C34   O16   S    
