data_mof_unit_20292.cif
_audit_creation_date              2012-12-10T17:25:29-0500
_audit_creation_method            fapswitch 2.2
_symmetry_space_group_name_H-M    P1
_symmetry_Int_Tables_number       1
_space_group_crystal_system       triclinic
_cell_length_a                    10.11929
_cell_length_b                    10.779872
_cell_length_c                    23.202362
_cell_angle_alpha                 91.041598
_cell_angle_beta                  81.85129
_cell_angle_gamma                 96.976637
_cell_volume                      2486.91486874

loop_
_atom_site_label
_atom_site_type_symbol
_atom_type_description
_atom_site_fract_x
_atom_site_fract_y
_atom_site_fract_z
_atom_type_partial_charge
C1    C     C_R   0.557746 0.732679 0.498098 0.932038
C2    C     C_R   0.437096 0.433838 0.293033 0.003111
C3    C     C_R   0.634513 0.630730 0.744941 0.446069
C4    C     C_R   0.446385 0.455504 0.233141 0.459247
C5    C     C_R   0.560768 0.548185 0.786795 0.048055
C6    C     C_R   0.530603 0.559338 0.207781 0.017625
C7    C     C_2   0.593473 0.865419 0.493556 -0.481706
C8    C     C_2   0.409426 0.133621 0.507948 -0.528643
C9    C     C_2   0.503424 0.940408 0.516303 0.414048
C10   C     C_2   0.505439 0.060947 0.488919 0.400751
C11   C     C_2   0.919695 0.459807 0.517802 0.424813
C12   C     C_R   0.442561 0.267028 0.502575 0.930439
C13   C     C_2   0.072905 0.462128 0.505008 0.447191
C14   C     C_R   0.501718 0.502449 0.610433 0.929268
C15   C     C_R   0.500000 0.502141 0.389532 0.935123
C16   C     C_R   0.630932 0.496542 0.113695 0.565825
C17   C     C_R   0.508180 0.650460 0.878147 0.623980
C18   C     C_R   0.489693 0.659960 0.121240 0.558472
C19   C     C_R   0.659391 0.495378 0.870271 0.532484
C20   C     C_R   0.499390 0.667746 0.060017 -0.048482
C21   C     C_R   0.663069 0.498547 0.930903 -0.034826
C22   C     C_R   0.577744 0.584551 0.026007 -0.056046
C23   C     C_R   0.463957 0.452639 0.771953 0.454474
C24   C     C_R   0.585004 0.581984 0.964879 -0.055685
C25   C     C_R   0.646589 0.501464 0.053146 -0.066390
C26   C     C_R   0.511362 0.661111 0.937895 -0.080498
C27   C     C_R   0.432159 0.752195 0.031449 0.177595
C28   C     C_R   0.737631 0.420036 0.959128 0.168881
C29   C     C_R   0.438838 0.746662 0.970923 -0.156876
C30   C     C_R   0.727356 0.422634 0.019771 -0.156126
C31   C     C_3   0.350662 0.847711 0.063091 -0.785119
C32   C     C_3   0.826116 0.330157 0.927187 -0.778803
C33   C     C_3   0.109895 0.644182 0.564596 -0.701193
C34   C     C_R   0.598566 0.647019 0.241847 0.477990
C35   C     C_3   0.908146 0.459391 0.416292 -0.697189
C36   C     C_3   0.446168 0.259732 0.813973 0.099462
C37   C     C_3   0.418260 0.202525 0.874585 -0.782627
C38   C     C_3   0.811192 0.724961 0.203671 0.079215
C39   C     C_3   0.897400 0.838250 0.174589 -0.794700
C40   C     C_3   0.322787 0.348723 0.698248 -0.854062
C41   C     C_3   0.642511 0.732828 0.340311 -0.846349
C42   C     C_3   0.681719 0.714592 0.642369 -0.809226
C43   C     C_3   0.356786 0.314815 0.318186 -0.789361
C44   C     C_3   0.854613 0.695222 0.752086 0.070490
C45   C     C_R   0.435320 0.442788 0.714372 -0.011197
C46   C     C_3   0.951025 0.801758 0.771656 -0.797914
C47   C     C_3   0.259215 0.404998 0.189642 0.092594
C48   C     C_3   0.185054 0.303624 0.155772 -0.791012
C49   C     C_3   0.577560 0.093033 0.392217 0.107081
C50   C     C_3   0.696040 0.143906 0.347793 -0.787918
C51   C     C_3   0.431765 0.944209 0.614060 0.061757
C52   C     C_3   0.343497 0.867676 0.662579 -0.799431
C53   C     C_3   0.066891 0.250601 0.483660 0.059223
C54   C     C_3   0.117354 0.157791 0.438034 -0.804274
C55   C     C_3   0.887610 0.364086 0.606746 0.051246
C56   C     C_R   0.581539 0.631901 0.302427 -0.002096
C57   C     C_3   0.807020 0.361312 0.667317 -0.772821
C58   C     C_R   0.513174 0.522958 0.671761 -0.183048
C59   C     C_R   0.505347 0.522341 0.327476 -0.176233
C60   C     C_R   0.609372 0.620110 0.687102 0.022604
H1    H     H_    0.384831 0.808827 0.949423 0.185950
H2    H     H_    0.764682 0.258838 0.903922 0.262510
H3    H     H_    0.194403 0.717050 0.569674 0.281479
H4    H     H_    0.029529 0.690132 0.548578 0.197666
H5    H     H_    0.073305 0.601185 0.607916 0.210917
H6    H     H_    0.984149 0.543445 0.410231 0.192677
H7    H     H_    0.954223 0.373699 0.402364 0.226602
H8    H     H_    0.835334 0.469333 0.386288 0.240646
H9    H     H_    0.556776 0.268532 0.799688 0.175176
H10   H     H_    0.397310 0.193842 0.783839 0.147283
H11   H     H_    0.308213 0.187539 0.889320 0.255664
H12   H     H_    0.781709 0.360714 0.041231 0.189817
H13   H     H_    0.458839 0.111216 0.873897 0.217949
H14   H     H_    0.467108 0.265642 0.905783 0.254576
H15   H     H_    0.820738 0.643908 0.173629 0.163440
H16   H     H_    0.851016 0.705212 0.244488 0.146987
H17   H     H_    0.891801 0.920705 0.203862 0.257585
H18   H     H_    0.003737 0.819213 0.164994 0.209902
H19   H     H_    0.861433 0.859145 0.133164 0.261719
H20   H     H_    0.251374 0.397102 0.677281 0.253939
H21   H     H_    0.364864 0.278341 0.667676 0.203617
H22   H     H_    0.262506 0.299583 0.736525 0.265078
H23   H     H_    0.316677 0.097549 0.535026 0.165698
H24   H     H_    0.562792 0.761444 0.374012 0.218716
H25   H     H_    0.721859 0.697339 0.361680 0.240343
H26   H     H_    0.688192 0.818109 0.315525 0.268134
H27   H     H_    0.610999 0.741643 0.613943 0.215919
H28   H     H_    0.723845 0.801825 0.662647 0.252439
H29   H     H_    0.764940 0.673971 0.615159 0.272901
H30   H     H_    0.360506 0.303922 0.365164 0.220092
H31   H     H_    0.249662 0.313543 0.312488 0.239819
H32   H     H_    0.396796 0.232798 0.295461 0.253526
H33   H     H_    0.886496 0.678281 0.705000 0.149112
H34   H     H_    0.682245 0.899275 0.463418 0.169367
H35   H     H_    0.863304 0.610337 0.777090 0.187254
H36   H     H_    0.923768 0.819812 0.818874 0.264226
H37   H     H_    0.055398 0.776800 0.763764 0.218887
H38   H     H_    0.946374 0.887885 0.746829 0.250884
H39   H     H_    0.273502 0.492907 0.164054 0.157098
H40   H     H_    0.195012 0.418990 0.231829 0.135883
H41   H     H_    0.167241 0.214579 0.180583 0.258672
H42   H     H_    0.086677 0.331777 0.148569 0.215411
H43   H     H_    0.245493 0.289134 0.112876 0.259369
H44   H     H_    0.492668 0.147551 0.388497 0.130810
H45   H     H_    0.263116 0.800032 0.092007 0.255364
H46   H     H_    0.547631 0.993345 0.381616 0.136751
H47   H     H_    0.782591 0.090725 0.349980 0.243700
H48   H     H_    0.667319 0.134857 0.303319 0.224834
H49   H     H_    0.726165 0.244138 0.356752 0.261421
H50   H     H_    0.412495 0.043362 0.619611 0.137271
H51   H     H_    0.538873 0.938500 0.618939 0.139727
H52   H     H_    0.360489 0.767860 0.658113 0.267500
H53   H     H_    0.368412 0.902644 0.705530 0.225821
H54   H     H_    0.235827 0.875500 0.660503 0.243517
H55   H     H_    0.955736 0.239687 0.485861 0.135826
H56   H     H_    0.414885 0.911780 0.088529 0.276749
H57   H     H_    0.093396 0.225229 0.526501 0.137999
H58   H     H_    0.228174 0.162341 0.433473 0.247718
H59   H     H_    0.072625 0.061489 0.451130 0.212843
H60   H     H_    0.087866 0.178998 0.395298 0.244583
H61   H     H_    0.996065 0.372247 0.611787 0.120789
H62   H     H_    0.858272 0.273804 0.585126 0.127045
H63   H     H_    0.697911 0.343979 0.664308 0.244238
H64   H     H_    0.834122 0.284955 0.693202 0.211814
H65   H     H_    0.829249 0.451320 0.689891 0.241976
H66   H     H_    0.310071 0.906742 0.032658 0.205490
H67   H     H_    0.906850 0.382026 0.896254 0.271665
H68   H     H_    0.876560 0.278916 0.957209 0.206734
N1    N     N_R   0.551608 0.573056 0.145986 -0.313138
N2    N     N_R   0.578228 0.566251 0.846405 -0.296574
N3    N     N_2   0.842710 0.448880 0.476480 -0.072167
N4    N     N_2   0.157290 0.551120 0.523520 -0.083260
O1    O     O_R   0.431060 0.692470 0.504730 -0.550509
O2    O     O_2   0.433633 0.721918 0.851820 -0.564836
O3    O     O_2   0.416890 0.735246 0.156353 -0.566725
O4    O     O_2   0.733962 0.421777 0.835043 -0.630523
O5    O     O_3   0.392163 0.375197 0.815447 -0.597276
O6    O     O_3   0.676369 0.750597 0.215476 -0.576365
O7    O     O_3   0.722397 0.728298 0.762326 -0.587499
O8    O     O_3   0.384196 0.367974 0.198206 -0.574890
O9    O     O_3   0.615831 0.104030 0.448445 -0.603056
O10   O     O_3   0.399375 0.897962 0.559731 -0.614806
O11   O     O_3   0.127155 0.373037 0.467575 -0.585036
O12   O     O_R   0.568940 0.307530 0.495270 -0.537303
O13   O     O_3   0.859608 0.466444 0.575099 -0.604797
O14   O     O_R   0.651120 0.659650 0.489640 -0.619048
O15   O     O_R   0.348880 0.340350 0.510360 -0.584842
O16   O     O_R   0.389950 0.516450 0.591390 -0.620599
O17   O     O_R   0.610050 0.483550 0.408610 -0.632738
O18   O     O_R   0.610020 0.483630 0.576300 -0.549939
O19   O     O_R   0.389980 0.516370 0.423700 -0.567303
O20   O     O_2   0.693519 0.415118 0.140498 -0.577697
Zn1   Zn    Zn3+2 0.353060 0.521920 0.510080 0.995189
Zn2   Zn    Zn3+2 0.646940 0.478080 0.489920 0.987322

loop_
_geom_bond_atom_site_label_1
_geom_bond_atom_site_label_2
_ccdc_geom_bond_type
C37   H14   S    
C55   H61   S    
C34   C56   A    
C23   C45   A    
C54   H60   S    
C27   C29   A    
C8    H23   S    
C11   C13   S    
C49   H44   S    
C15   O19   A    
C33   H5    S    
C37   H11   S    
C38   H16   S    
C52   H53   S    
C41   H26   S    
O1    Zn1   S    
C17   C26   A    
C39   H17   S    
C32   H67   S    
C36   C37   S    
C19   C21   A    
C24   C26   A    
C57   H65   S    
C38   C39   S    
C53   H57   S    
C55   O13   S    
C4    O8    S    
C52   H52   S    
C58   C60   A    
C14   O16   A    
C16   C25   A    
C47   H39   S    
C44   H33   S    
C44   C46   S    
C22   C25   A    
O14   Zn2   S    
C47   O8    S    
C40   H20   S    
C9    C10   S    
C8    C12   S    
C3    C60   A    
C19   N2    A    
C13   O11   S    
C46   H38   S    
C55   H62   S    
C54   H59   S    
C50   H48   S    
C31   H45   S    
C1    O14   A    
C6    N1    S    
C1    O1    A    
C36   H10   S    
C38   H15   S    
C40   C45   S    
C14   C58   S    
C29   H1    S    
C45   C58   A    
C43   H30   S    
C27   C31   S    
C51   C52   S    
C39   H18   S    
C40   H22   S    
C28   C32   S    
C4    C6    A    
C42   C60   S    
C2    C59   A    
C11   O13   S    
C42   H28   S    
C35   H6    S    
C19   O4    S    
C53   C54   S    
C48   H43   S    
C34   O6    S    
C50   H49   S    
C43   H31   S    
C47   H40   S    
C6    C34   A    
C49   O9    S    
C53   O11   S    
C10   O9    S    
C39   H19   S    
C2    C4    A    
O17   Zn2   S    
C41   C56   S    
C57   H63   S    
C47   C48   S    
C5    C23   A    
C35   H7    S    
C2    C43   S    
C33   H3    S    
C48   H42   S    
C14   O18   A    
N4    Zn1   S    
C38   O6    S    
C18   O3    S    
C16   O20   S    
C16   N1    A    
C33   N4    S    
C5    N2    S    
C46   H37   S    
C20   C22   A    
C44   O7    S    
C55   C57   S    
C50   H47   S    
C22   C24   A    
C3    O7    S    
O16   Zn1   S    
C35   N3    S    
C31   H56   S    
C15   O17   A    
C36   H9    S    
C12   O15   A    
C36   O5    S    
C51   O10   S    
C25   C30   A    
C7    C9    D    
C7    H34   S    
C37   H13   S    
C51   H51   S    
C17   N2    A    
C1    C7    S    
C15   C59   S    
C40   H21   S    
C21   C28   A    
N3    Zn2   S    
C3    C5    A    
C11   N3    D    
C30   H12   S    
C9    O10   S    
C49   H46   S    
C20   C27   A    
C52   H54   S    
C51   H50   S    
C41   H25   S    
C43   H32   S    
C56   C59   A    
C42   H29   S    
C32   H68   S    
C54   H58   S    
C32   H2    S    
C44   H35   S    
C57   H64   S    
C41   H24   S    
C35   H8    S    
C33   H4    S    
C23   O5    S    
C48   H41   S    
C28   C30   A    
C13   N4    D    
C18   C20   A    
O19   Zn1   S    
O12   Zn2   S    
O15   Zn1   S    
C12   O12   A    
C46   H36   S    
C26   C29   A    
C8    C10   D    
C49   C50   S    
O18   Zn2   S    
C21   C24   A    
C17   O2    S    
C18   N1    A    
C42   H27   S    
C31   H66   S    
C53   H55   S    
