data_mof_unit_20494.cif
_audit_creation_date              2012-12-10T19:49:43-0500
_audit_creation_method            fapswitch 2.2
_symmetry_space_group_name_H-M    P1
_symmetry_Int_Tables_number       1
_space_group_crystal_system       triclinic
_cell_length_a                    10.888266
_cell_length_b                    16.145655
_cell_length_c                    17.260675
_cell_angle_alpha                 99.106592
_cell_angle_beta                  90.008954
_cell_angle_gamma                 93.26862
_cell_volume                      2991.1447685

loop_
_atom_site_label
_atom_site_type_symbol
_atom_type_description
_atom_site_fract_x
_atom_site_fract_y
_atom_site_fract_z
_atom_type_partial_charge
C1    C     C_R   0.497394 0.487724 0.349608 0.786575
C2    C     C_R   0.503657 0.512281 0.650726 0.770387
C3    C     C_R   0.871386 0.496139 0.503818 -0.094270
C4    C     C_R   0.128859 0.501053 0.505513 -0.092329
C5    C     C_R   0.933091 0.421720 0.478926 0.034945
C6    C     C_R   0.066471 0.574959 0.531771 0.049360
C7    C     C_R   0.490272 0.479213 0.264508 -0.030157
C8    C     C_R   0.513256 0.520056 0.736379 -0.050065
C9    C     C_R   0.427528 0.537550 0.230145 -0.213278
C10   C     C_R   0.535853 0.448771 0.769729 -0.203985
C11   C     C_R   0.422519 0.531211 0.149156 -0.192627
C12   C     C_R   0.542447 0.453518 0.850282 -0.189729
C13   C     C_R   0.480952 0.466857 0.101626 0.162446
C14   C     C_R   0.523907 0.529316 0.899900 0.165134
C15   C     C_R   0.544405 0.407429 0.135594 0.122056
C16   C     C_R   0.506641 0.602969 0.867122 0.128364
C17   C     C_R   0.547853 0.414409 0.217425 -0.253613
C18   C     C_R   0.501993 0.597299 0.785187 -0.242002
C19   C     C_2   0.477760 0.464338 0.016734 -0.249323
C20   C     C_2   0.522887 0.530361 0.985406 -0.256585
C21   C     C_R   0.427413 0.743464 0.468982 0.067289
C22   C     C_R   0.516079 0.258407 0.556748 0.063398
C23   C     C_R   0.262563 0.500311 0.501083 0.759262
C24   C     C_R   0.737547 0.499303 0.500709 0.773674
C25   C     C_R   0.415339 0.830764 0.474964 -0.249930
C26   C     C_R   0.493507 0.173498 0.564690 -0.288593
C27   C     C_R   0.489728 0.886932 0.528334 0.153972
C28   C     C_R   0.434650 0.117318 0.503886 0.165145
C29   C     C_R   0.578201 0.853477 0.570081 -0.304484
C30   C     C_R   0.403496 0.147781 0.436355 -0.300352
C31   C     C_R   0.596653 0.767253 0.557220 0.290216
C32   C     C_R   0.434483 0.231368 0.427427 0.293787
C33   C     C_2   0.490487 0.980778 0.538705 -0.209250
C34   C     C_2   0.412398 0.025233 0.504163 -0.210496
C35   C     C_R   0.227710 0.774176 0.647666 0.133167
C36   C     C_R   0.776146 0.227611 0.352987 0.116980
C37   C     C_R   0.186431 0.687890 0.626730 0.093196
C38   C     C_R   0.833272 0.310076 0.374148 0.088040
C39   C     C_R   0.124655 0.661601 0.552976 0.062003
C40   C     C_R   0.868977 0.337886 0.454071 0.064904
C41   C     C_R   0.100967 0.722103 0.503613 0.095299
C42   C     C_R   0.846861 0.284402 0.511006 0.119402
C43   C     C_R   0.135200 0.806657 0.529026 -0.230024
C44   C     C_R   0.791753 0.204064 0.488096 -0.201978
C45   C     C_R   0.197583 0.832063 0.599322 -0.189645
C46   C     C_R   0.756751 0.176328 0.410775 -0.200686
C47   C     C_R   0.939324 0.568996 0.535066 -0.296251
C48   C     C_R   0.060915 0.424821 0.482620 -0.263155
Cu1   Cu    Cu3+1 0.493640 0.415410 0.495980 0.931469
Cu2   Cu    Cu3+1 0.506360 0.584590 0.504020 0.923562
H1    H     H_    0.224556 0.898206 0.615486 0.149544
H2    H     H_    0.713962 0.113545 0.396000 0.145508
H3    H     H_    0.366018 0.700802 0.430719 0.126252
H4    H     H_    0.561112 0.299652 0.604815 0.123219
H5    H     H_    0.338757 0.992545 0.467068 0.139709
H6    H     H_    0.565794 0.015281 0.573213 0.142550
H7    H     H_    0.115926 0.853858 0.493238 0.135372
H8    H     H_    0.774464 0.162523 0.530920 0.140596
H9    H     H_    0.487281 0.652818 0.759660 0.125704
H10   H     H_    0.597618 0.370555 0.244588 0.120987
N1    N     N_R   0.515930 0.711660 0.510070 -0.183088
N2    N     N_R   0.484070 0.288340 0.489930 -0.175827
O1    O     O_R   0.494030 0.420280 0.382610 -0.595991
O2    O     O_R   0.505970 0.579720 0.617390 -0.596139
O3    O     O_R   0.504770 0.563150 0.389400 -0.586430
O4    O     O_R   0.495230 0.436850 0.610600 -0.594159
O5    O     O_R   0.314270 0.428570 0.496610 -0.581138
O6    O     O_R   0.685730 0.571430 0.503390 -0.594894
O7    O     O_R   0.325020 0.571440 0.503400 -0.591942
O8    O     O_R   0.674980 0.428560 0.496600 -0.577820
C49   C     C_3   0.613995 0.339444 0.086653 -0.430066
C50   C     C_3   0.734480 0.376185 0.056373 -0.323656
C51   C     C_3   0.811030 0.307501 0.013114 -0.876248
H11   H     H_    0.839892 0.265376 0.053823 0.258655
H12   H     H_    0.757323 0.270163 0.963540 0.253431
H13   H     H_    0.894917 0.336554 0.989453 0.244978
H14   H     H_    0.714881 0.420584 0.015622 0.231485
H15   H     H_    0.789231 0.411311 0.106518 0.221931
H16   H     H_    0.635918 0.290600 0.122406 0.193095
H17   H     H_    0.555545 0.307335 0.036847 0.186390
C52   C     C_3   0.492446 0.687440 0.917766 -0.428091
C53   C     C_3   0.365688 0.692081 0.956872 -0.334410
C54   C     C_3   0.364565 0.764651 0.025207 -0.867164
H18   H     H_    0.427279 0.753331 0.072738 0.249108
H19   H     H_    0.394312 0.824899 0.005760 0.257266
H20   H     H_    0.270038 0.769597 0.048954 0.241001
H21   H     H_    0.295499 0.700891 0.912732 0.218466
H22   H     H_    0.338775 0.633053 0.979485 0.225362
H23   H     H_    0.567793 0.699646 0.962189 0.192435
H24   H     H_    0.503557 0.738783 0.881909 0.185354
H25   H     H_    0.562522 0.397296 0.873614 0.135017
H26   H     H_    0.373431 0.576802 0.123334 0.145384
C55   C     C_3   0.428340 0.247430 0.343725 -0.360743
C56   C     C_3   0.302170 0.275371 0.321646 -0.325550
C57   C     C_3   0.285265 0.262587 0.232496 -0.888168
H27   H     H_    0.357619 0.299207 0.205357 0.271474
H28   H     H_    0.289461 0.195059 0.207490 0.248455
H29   H     H_    0.194630 0.283176 0.216878 0.250280
H30   H     H_    0.227810 0.237400 0.346212 0.196840
H31   H     H_    0.291765 0.342307 0.346161 0.240214
H32   H     H_    0.507361 0.287076 0.329090 0.207040
H33   H     H_    0.445051 0.187693 0.304167 0.156009
C58   C     C_3   0.719979 0.744680 0.584402 -0.386337
C59   C     C_3   0.715180 0.708176 0.661452 -0.284714
C60   C     C_3   0.826744 0.738900 0.714012 -0.940631
H34   H     H_    0.913153 0.726318 0.681248 0.259746
H35   H     H_    0.824641 0.807507 0.734885 0.258573
H36   H     H_    0.825247 0.705886 0.765800 0.250039
H37   H     H_    0.631316 0.727097 0.694671 0.211385
H38   H     H_    0.714196 0.638772 0.648689 0.236823
H39   H     H_    0.763577 0.706058 0.535342 0.190723
H40   H     H_    0.784191 0.801699 0.592877 0.175194
H41   H     H_    0.639931 0.895852 0.609253 0.126179
H42   H     H_    0.362470 0.104253 0.387603 0.127233
H43   H     H_    0.520567 0.152741 0.618478 0.124857
H44   H     H_    0.347109 0.852951 0.438964 0.123911
C61   C     C_3   0.302631 0.809130 0.720861 -0.409263
C62   C     C_3   0.221049 0.824021 0.793618 -0.347593
C63   C     C_3   0.287696 0.881849 0.860918 -0.867884
H45   H     H_    0.377628 0.857276 0.872997 0.257184
H46   H     H_    0.303588 0.945938 0.845798 0.250198
H47   H     H_    0.230813 0.885908 0.914628 0.247193
H48   H     H_    0.135472 0.853286 0.779520 0.223667
H49   H     H_    0.194957 0.763427 0.813245 0.218418
H50   H     H_    0.378492 0.768531 0.729548 0.172112
H51   H     H_    0.350302 0.870066 0.713010 0.202652
C64   C     C_3   0.735798 0.190108 0.270048 -0.430588
C65   C     C_3   0.845958 0.162826 0.218840 -0.327238
C66   C     C_3   0.803681 0.113537 0.139602 -0.878849
H52   H     H_    0.754281 0.053450 0.147741 0.253831
H53   H     H_    0.741358 0.150594 0.109548 0.254836
H54   H     H_    0.884831 0.099167 0.101944 0.242505
H55   H     H_    0.904389 0.218478 0.208787 0.229368
H56   H     H_    0.902914 0.122375 0.249038 0.219075
H57   H     H_    0.672287 0.133826 0.271232 0.193702
H58   H     H_    0.680763 0.233910 0.243249 0.167569
C67   C     C_3   0.207321 0.624688 0.681838 -0.383037
C68   C     C_3   0.090671 0.601782 0.725544 -0.386221
C69   C     C_3   0.119451 0.545644 0.785764 -0.854082
H59   H     H_    0.164130 0.488784 0.756966 0.260890
H60   H     H_    0.182071 0.580176 0.832158 0.250840
H61   H     H_    0.032968 0.525930 0.813583 0.242589
H62   H     H_    0.051065 0.659520 0.756503 0.218787
H63   H     H_    0.020459 0.567828 0.684012 0.239341
H64   H     H_    0.243348 0.566811 0.649107 0.197892
H65   H     H_    0.278877 0.648586 0.726116 0.199362
C70   C     C_3   0.853055 0.369175 0.313661 -0.414228
C71   C     C_3   0.989763 0.384353 0.294579 -0.356799
C72   C     C_3   0.008002 0.403146 0.211209 -0.886221
H66   H     H_    0.980310 0.347065 0.167586 0.255934
H67   H     H_    0.952612 0.456128 0.201279 0.257756
H68   H     H_    0.106510 0.420690 0.202307 0.253410
H69   H     H_    0.030044 0.439261 0.335127 0.237229
H70   H     H_    0.040945 0.328576 0.301898 0.218496
H71   H     H_    0.802911 0.345052 0.258440 0.208938
H72   H     H_    0.813182 0.430223 0.335686 0.179309
C73   C     C_3   0.035436 0.699751 0.424497 -0.407538
C74   C     C_3   0.117283 0.653104 0.361879 -0.333273
C75   C     C_3   0.046699 0.626064 0.284920 -0.869721
H73   H     H_    0.964554 0.584946 0.294282 0.263666
H74   H     H_    0.016682 0.681947 0.261481 0.252117
H75   H     H_    0.107099 0.590872 0.241145 0.245672
H76   H     H_    0.197164 0.695359 0.350824 0.200766
H77   H     H_    0.151802 0.596508 0.381633 0.222367
H78   H     H_    0.948051 0.662594 0.429662 0.207854
H79   H     H_    0.007963 0.757662 0.403290 0.184411
C76   C     C_3   0.878447 0.311117 0.597220 -0.406764
C77   C     C_3   0.997044 0.272814 0.618642 -0.341328
C78   C     C_3   0.024437 0.294474 0.706402 -0.850158
H80   H     H_    0.031110 0.363602 0.724766 0.259271
H81   H     H_    0.950477 0.266598 0.740229 0.248212
H82   H     H_    0.113162 0.268928 0.719850 0.242965
H83   H     H_    0.988368 0.203297 0.602275 0.213722
H84   H     H_    0.075444 0.297184 0.585918 0.229244
H85   H     H_    0.888624 0.380503 0.613276 0.207038
H86   H     H_    0.801121 0.290244 0.633015 0.180928
H87   H     H_    0.893821 0.623506 0.560810 0.160762
H88   H     H_    0.107222 0.367453 0.463663 0.151067
H89   H     H_    0.381873 0.587775 0.265988 0.143657
H90   H     H_    0.549078 0.388803 0.733639 0.142648
H91   H     H_    0.556894 0.586596 0.024169 0.166202
H92   H     H_    0.441990 0.407028 0.980357 0.153336

loop_
_geom_bond_atom_site_label_1
_geom_bond_atom_site_label_2
_ccdc_geom_bond_type
C30   C32   A    
C55   C56   S    
Cu1   O1    S    
C27   C29   A    
C61   C62   S    
Cu2   O2    S    
C51   H11   S    
C23   O7    A    
C12   H25   S    
C57   H27   S    
C65   C66   S    
C48   H88   S    
C52   C53   S    
C57   H29   S    
C24   O8    A    
C39   C41   A    
C27   C33   S    
C77   H84   S    
C60   H35   S    
C73   C74   S    
C71   H70   S    
C54   H18   S    
C73   H78   S    
C67   H64   S    
C35   C37   A    
Cu2   O7    S    
C64   H57   S    
C68   H62   S    
C72   H67   S    
C4    C48   A    
C59   H37   S    
C69   H61   S    
C45   H1    S    
C53   H21   S    
C46   H2    S    
C58   H39   S    
C78   H80   S    
C23   O5    A    
C31   N1    A    
C26   H43   S    
C49   H17   S    
C50   H15   S    
C70   C71   S    
C62   C63   S    
C11   H26   S    
C19   C20   D    
C44   C46   A    
C7    C17   A    
C1    O3    A    
C75   H74   S    
C36   C46   A    
C70   H71   S    
C61   H51   S    
C41   C43   A    
C21   N1    A    
C9    H89   S    
C74   H77   S    
C66   H54   S    
C52   H23   S    
C33   H6    S    
C40   C42   A    
C32   C55   S    
C67   C68   S    
C28   C34   S    
C34   H5    S    
C38   C40   A    
C37   C67   S    
C29   C31   A    
C51   H12   S    
C3    C24   S    
C42   C44   A    
C1    O1    A    
C19   H92   S    
C49   H16   S    
C59   C60   S    
C60   H36   S    
C2    O2    A    
C63   H46   S    
C77   H83   S    
C5    C48   A    
Cu1   O4    S    
C13   C19   S    
C69   H60   S    
C14   C20   S    
C67   H65   S    
C64   H58   S    
C4    C6    A    
C6    C47   A    
C25   H44   S    
C44   H8    S    
C76   C77   S    
C4    C23   S    
C24   O6    A    
C3    C5    A    
C8    C18   A    
C58   H40   S    
C31   C58   S    
C73   H79   S    
C50   H14   S    
C65   H56   S    
C22   N2    A    
C9    C11   A    
C75   H73   S    
C56   H31   S    
C63   H45   S    
C33   C34   D    
C75   H75   S    
C16   C18   A    
C62   H49   S    
C71   C72   S    
C70   H72   S    
C43   C45   A    
C10   C12   A    
C74   H76   S    
C41   C73   S    
C52   H24   S    
C8    C10   A    
C77   C78   S    
C54   H19   S    
C12   C14   A    
Cu1   Cu2   S    
C22   H4    S    
C13   C15   A    
C74   C75   S    
C78   H82   S    
C14   C16   A    
C72   H68   S    
C36   C64   S    
C71   H69   S    
C55   H32   S    
C64   C65   S    
C35   C45   A    
C42   C76   S    
C76   H85   S    
C66   H52   S    
C30   H42   S    
C63   H47   S    
C15   C17   A    
C21   C25   A    
Cu1   N2    S    
Cu1   O5    S    
C1    C7    S    
C2    C8    S    
C50   C51   S    
C2    O4    A    
C55   H33   S    
C69   H59   S    
C57   H28   S    
C25   C27   A    
C15   C49   S    
C60   H34   S    
C26   C28   A    
Cu1   O8    S    
C10   H90   S    
C28   C30   A    
C32   N2    A    
C49   C50   S    
C37   C39   A    
C68   H63   S    
C65   H55   S    
C36   C38   A    
C59   H38   S    
C11   C13   A    
Cu2   O6    S    
C56   H30   S    
C53   H22   S    
C21   H3    S    
C3    C47   A    
C16   C52   S    
C51   H13   S    
C62   H48   S    
C56   C57   S    
Cu2   O3    S    
C38   C70   S    
C35   C61   S    
C68   C69   S    
C43   H7    S    
C17   H10   S    
C7    C9    A    
C18   H9    S    
C54   H20   S    
C47   H87   S    
C53   C54   S    
C22   C26   A    
C5    C40   S    
C29   H41   S    
C58   C59   S    
Cu2   N1    S    
C6    C39   S    
C76   H86   S    
C72   H66   S    
C61   H50   S    
C20   H91   S    
C66   H53   S    
C78   H81   S    
