data_mof_unit_67181.cif
_audit_creation_date              2012-12-11T17:48:52-0500
_audit_creation_method            fapswitch 2.2
_symmetry_space_group_name_H-M    P1
_symmetry_Int_Tables_number       1
_space_group_crystal_system       triclinic
_cell_length_a                    8.314018
_cell_length_b                    13.145292
_cell_length_c                    14.86745
_cell_angle_alpha                 96.802714
_cell_angle_beta                  97.732007
_cell_angle_gamma                 98.62232
_cell_volume                      1575.88084164

loop_
_atom_site_label
_atom_site_type_symbol
_atom_type_description
_atom_site_fract_x
_atom_site_fract_y
_atom_site_fract_z
_atom_type_partial_charge
Ba1   Ba    Ba6+2 0.843750 0.550210 0.455600 1.624085
Ba2   Ba    Ba6+2 0.346090 0.449880 0.544410 1.621118
C1    C     C_3   0.589323 0.902832 0.202547 -0.026890
C2    C     C_R   0.900279 0.440450 0.920354 -0.056936
C3    C     C_R   0.044942 0.430189 0.103101 -0.035690
C4    C     C_3   0.991579 0.782269 0.191431 0.500512
C5    C     C_R   0.882582 0.378224 0.066765 0.068963
C6    C     C_R   0.808213 0.396084 0.982001 -0.087782
C7    C     C_R   0.114257 0.441356 0.197998 0.047323
C8    C     C_R   0.280506 0.484253 0.224954 -0.294946
C9    C     C_R   0.088489 0.528464 0.794864 0.058730
C10   C     C_R   0.160036 0.532854 0.888525 -0.037608
C11   C     C_R   0.067695 0.482791 0.949807 0.004920
C12   C     C_3   0.617705 0.805445 0.243317 0.322063
C13   C     C_R   0.321792 0.582255 0.922542 -0.042911
C14   C     C_R   0.397520 0.571087 0.009447 -0.078085
C15   C     C_R   0.308989 0.521294 0.070992 -0.031700
C16   C     C_3   0.029782 0.831350 0.105815 -0.445567
C17   C     C_R   0.140674 0.477987 0.041477 -0.010290
C18   C     C_R   0.379871 0.522000 0.163450 0.009514
C19   C     C_R   0.930966 0.470758 0.765204 -0.275067
C20   C     C_R   0.759933 0.177008 0.540700 -0.277449
C21   C     C_R   0.421888 0.812086 0.463470 -0.289254
C22   C     C_R   0.390406 0.981035 0.419222 0.112713
C23   C     C_3   0.421799 0.288688 0.268448 0.321619
C24   C     C_R   0.323887 0.876800 0.422133 -0.008159
C25   C     C_R   0.582352 0.849233 0.510033 0.049663
C26   C     C_R   0.646469 0.959108 0.516150 -0.070151
C27   C     C_R   0.548220 0.026420 0.471470 -0.049538
C28   C     C_3   0.231499 0.779217 0.652592 0.309321
C29   C     C_R   0.609906 0.137120 0.484932 0.052973
C30   C     C_R   0.863049 0.112650 0.575111 -0.003501
C31   C     C_R   0.805258 0.004528 0.565314 -0.082195
C32   C     C_3   0.190034 0.886861 0.674461 -0.338437
C33   C     C_3   0.940485 0.235316 0.365480 0.289739
C34   C     C_3   0.374163 0.251429 0.165391 -0.450061
C35   C     C_3   0.883917 0.118826 0.348154 -0.418044
C36   C     C_3   0.670381 0.741889 0.748488 0.338330
C37   C     C_3   0.696933 0.809850 0.844522 -0.025387
C38   C     C_3   0.737099 0.642723 0.759135 -0.279496
C39   C     C_3   0.873355 0.871310 0.871621 -0.329834
C40   C     C_3   0.570791 0.882666 0.849234 -0.440329
C41   C     C_3   0.689391 0.025051 0.104555 -0.283089
C42   C     C_3   0.529705 0.105176 0.710589 -0.293695
C43   C     C_3   0.801647 0.282437 0.099849 -0.374979
C44   C     C_3   0.285967 0.029532 0.271018 -0.180175
C45   C     C_3   0.146467 0.230356 0.795639 0.360635
C46   C     C_3   0.248334 0.718554 0.214953 -0.177782
C47   C     C_3   0.190306 0.202857 0.891565 -0.384950
C48   C     C_3   0.648884 0.188589 0.776299 0.391794
C49   C     C_3   0.739374 0.141658 0.852931 -0.404313
C50   C     C_R   0.831856 0.435478 0.827805 -0.017836
H1    H     H_    0.742069 0.815995 0.282372 0.098778
H2    H     H_    0.538241 0.723440 0.721610 0.064525
H3    H     H_    0.611818 0.965568 0.260447 0.040389
H4    H     H_    0.676064 0.759369 0.898386 0.059514
H5    H     H_    0.538831 0.794639 0.296413 -0.044246
H6    H     H_    0.460574 0.893216 0.167521 0.059362
H7    H     H_    0.309486 0.303631 0.297086 0.019612
H8    H     H_    0.514242 0.360986 0.279005 0.060043
H9    H     H_    0.244393 0.211035 0.149509 0.095994
H10   H     H_    0.386829 0.317617 0.125823 0.081143
H11   H     H_    0.454703 0.197136 0.141340 0.130530
H12   H     H_    0.268086 0.927002 0.738584 0.106930
H13   H     H_    0.966202 0.778780 0.042975 0.081457
H14   H     H_    0.239749 0.296458 0.786473 0.118623
H15   H     H_    0.023839 0.254707 0.789868 -0.058506
H16   H     H_    0.315567 0.182237 0.900633 0.149063
H17   H     H_    0.187331 0.270261 0.943562 0.078259
H18   H     H_    0.101126 0.135531 0.902742 0.105419
H19   H     H_    0.742532 0.223433 0.736780 -0.029318
H20   H     H_    0.803520 0.080467 0.823834 0.092050
H21   H     H_    0.651701 0.109046 0.896283 0.118321
H22   H     H_    0.861991 0.751114 0.175430 0.106180
H23   H     H_    0.208822 0.932268 0.617290 0.106561
H24   H     H_    0.832986 0.202529 0.896879 0.101590
H25   H     H_    0.679720 0.363523 0.961609 0.116225
H26   H     H_    0.526621 0.603494 0.027564 0.111183
H27   H     H_    0.394984 0.627052 0.881720 0.092944
H28   H     H_    0.332368 0.494138 0.296875 0.058271
H29   H     H_    0.878683 0.461851 0.693472 0.073496
H30   H     H_    0.885603 0.956960 0.595790 0.114244
H31   H     H_    0.803998 0.259982 0.551258 0.044299
H32   H     H_    0.369106 0.731510 0.462675 0.066817
H33   H     H_    0.987628 0.907365 0.106359 0.140542
H34   H     H_    0.060852 0.880568 0.686608 0.144042
H35   H     H_    0.162876 0.845547 0.101171 0.098974
H36   H     H_    0.355248 0.787102 0.632458 -0.074953
H37   H     H_    0.140622 0.737335 0.593744 0.098997
H38   H     H_    0.873173 0.661338 0.773486 0.050600
H39   H     H_    0.691276 0.607710 0.816862 0.060453
H40   H     H_    0.698238 0.586049 0.695891 0.123735
H41   H     H_    0.964222 0.817529 0.875208 0.106474
H42   H     H_    0.903620 0.924721 0.821617 0.148884
H43   H     H_    0.887148 0.918363 0.940137 0.094512
H44   H     H_    0.567492 0.926433 0.790237 0.130876
H45   H     H_    0.852683 0.274016 0.401130 0.022949
H46   H     H_    0.447307 0.837446 0.849038 0.146709
H47   H     H_    0.600392 0.937051 0.914170 0.119712
H48   H     H_    0.687846 0.867014 0.083521 0.224266
H49   H     H_    0.710230 0.088599 0.163050 0.150658
H50   H     H_    0.566497 0.023363 0.063800 0.099776
H51   H     H_    0.785701 0.041209 0.060772 0.105921
H52   H     H_    0.478087 0.139681 0.651084 0.147941
H53   H     H_    0.591915 0.041059 0.685783 0.035603
H54   H     H_    0.428279 0.074774 0.746030 0.138496
H55   H     H_    0.895954 0.234331 0.118958 0.127717
H56   H     H_    0.062309 0.252510 0.408427 0.103677
H57   H     H_    0.729804 0.301354 0.154732 0.163183
H58   H     H_    0.711647 0.231812 0.044590 0.076266
H59   H     H_    0.176088 0.039360 0.388330 0.227085
H60   H     H_    0.203143 0.079208 0.240587 0.110232
H61   H     H_    0.245271 0.950857 0.238641 0.102564
H62   H     H_    0.408267 0.047491 0.251801 0.127589
H63   H     H_    0.025535 0.630600 0.153715 0.178981
H64   H     H_    0.291098 0.705912 0.148076 0.109047
H65   H     H_    0.298525 0.675224 0.268003 0.079889
H66   H     H_    0.291255 0.799876 0.242970 0.050982
H67   H     H_    0.748824 0.105109 0.331708 0.104336
H68   H     H_    0.921688 0.082247 0.408794 0.093952
H69   H     H_    0.936079 0.082282 0.289982 0.156810
N1    N     N_2   0.698216 0.926434 0.137037 -0.410669
N2    N     N_2   0.290840 0.041004 0.369612 -0.390130
N3    N     N_2   0.073351 0.694611 0.201810 -0.407937
O1    O     O_2   0.827880 0.435260 0.277750 -0.458857
O2    O     O_2   0.194169 0.121718 0.561813 -0.489561
O3    O     O_3   0.146174 0.143585 0.730530 -0.610355
O4    O     O_3   0.100280 0.438960 0.391170 -0.500831
O5    O     O_3   0.587780 0.631850 0.546230 -0.497981
O6    O     O_2   0.332590 0.233690 0.456160 -0.462837
O7    O     O_3   0.491413 0.211935 0.309470 -0.641706
O8    O     O_2   0.493470 0.445752 0.825078 -0.498899
O9    O     O_3   0.556458 0.258490 0.815586 -0.602080
O10   O     O_3   0.625580 0.634130 0.333250 -0.485304
O11   O     O_2   0.728334 0.560695 0.178119 -0.495248
O12   O     O_3   0.756463 0.795176 0.688761 -0.642663
O13   O     O_3   0.948268 0.268519 0.280568 -0.652282
O14   O     O_3   0.586973 0.721780 0.171473 -0.656156
O15   O     O_2   0.857130 0.766340 0.543890 -0.457278
O16   O     O_3   0.056550 0.691050 0.379010 -0.454445
O17   O     O_2   0.999189 0.874912 0.444717 -0.494659
O18   O     O_3   0.019409 0.859196 0.271011 -0.620314
O19   O     O_2   0.361830 0.564780 0.722310 -0.485180
O20   O     O_3   0.089430 0.561130 0.608830 -0.499708
O21   O     O_3   0.564130 0.365960 0.666760 -0.469869
O22   O     O_3   0.232652 0.732114 0.732589 -0.657281
O23   O     O_3   0.601940 0.368240 0.453770 -0.482831
O24   O     O_3   0.133170 0.309040 0.621000 -0.490578
P1    P     P_3+3 0.998730 0.403530 0.291970 0.977448
P2    P     P_3+3 0.687380 0.751030 0.571310 0.961281
P3    P     P_3+3 0.100996 0.824513 0.377943 0.955709
P4    P     P_3+3 0.190990 0.596560 0.708040 0.951933
P5    P     P_3+3 0.081074 0.173071 0.621029 0.922774
P6    P     P_3+3 0.581790 0.603184 0.213986 0.919146
P7    P     P_3+3 0.510435 0.236416 0.428444 0.968086
P8    P     P_3+3 0.613206 0.380777 0.784573 0.930144

loop_
_geom_bond_atom_site_label_1
_geom_bond_atom_site_label_2
_ccdc_geom_bond_type
C47   H16   S    
C44   H60   S    
O9    P8    S    
Ba2   O20   S    
Ba1   O4    S    
C4    N3    S    
C2    C6    A    
O3    P5    S    
C42   H52   S    
C5    C6    A    
C45   C47   S    
C39   H42   S    
O10   P6    S    
C42   H53   S    
C16   H13   S    
C7    P1    S    
O11   P6    D    
C20   C30   A    
C2    C50   A    
C40   H44   S    
C5    C43   S    
C26   C27   A    
C33   C35   S    
Ba1   O1    S    
Ba1   O5    S    
C40   H46   S    
C36   C37   S    
C43   H57   S    
Ba2   O24   S    
C13   C14   A    
C15   C18   A    
Ba1   Ba2   S    
C32   H34   S    
C21   C24   A    
C2    C11   A    
C22   C27   A    
C33   H56   S    
Ba2   O6    S    
O21   P8    S    
C1    H3    S    
C13   H27   S    
C12   O14   S    
C8    C18   A    
C14   C15   A    
C35   H67   S    
C28   O22   S    
O6    P7    D    
C23   H8    S    
C21   C25   A    
C4    O18   S    
C34   H11   S    
O23   P7    S    
C31   H30   S    
C45   H14   S    
H48   N1    S    
Ba1   O15   S    
C1    N1    S    
C32   H23   S    
C46   H64   S    
O14   P6    S    
C47   H17   S    
Ba2   O19   S    
O13   P1    S    
C28   H37   S    
C34   H10   S    
C45   H15   S    
C4    H22   S    
C37   C40   S    
Ba2   P4    S    
C4    C16   S    
C39   H41   S    
C16   H33   S    
C21   H32   S    
C28   C32   S    
H59   N2    S    
C49   H24   S    
C37   C39   S    
C20   C29   A    
C3    C5    A    
C8    H28   S    
C43   H58   S    
C11   C17   A    
C46   H66   S    
Ba2   O23   S    
C9    C19   A    
C22   N2    S    
Ba2   O21   S    
O18   P3    S    
C48   H19   S    
C41   H49   S    
C3    C7    A    
C1    H6    S    
O4    P1    S    
C29   P7    S    
C37   H4    S    
C36   H2    S    
C10   C13   A    
C32   H12   S    
C48   C49   S    
Ba1   P2    S    
C38   H40   S    
Ba1   P1    S    
Ba1   O16   S    
C41   N1    S    
C1    C12   S    
C18   P6    S    
O22   P4    S    
O19   P4    D    
C19   H29   S    
C26   C31   A    
C25   P2    S    
C36   O12   S    
C47   H18   S    
C6    H25   S    
O8    P8    D    
C35   H69   S    
C44   N2    S    
Ba1   O23   S    
C49   H20   S    
C28   H36   S    
C34   H9    S    
C23   O7    S    
C25   C26   A    
O17   P3    D    
C7    C8    A    
C42   C48   S    
C12   H5    S    
C24   P3    S    
H63   N3    S    
C44   H61   S    
C49   H21   S    
C44   H62   S    
C22   C24   A    
C48   O9    S    
C46   N3    S    
O12   P2    S    
C9    C10   A    
C45   O3    S    
C46   H65   S    
C3    C17   A    
C42   H54   S    
C50   P8    S    
O15   P2    D    
C16   H35   S    
C30   C31   A    
O7    P7    S    
C41   H50   S    
O5    P2    S    
O20   P4    S    
Ba1   O20   S    
C40   H47   S    
C20   H31   S    
C36   C38   S    
C39   H43   S    
C35   H68   S    
O16   P3    S    
C15   C17   A    
C14   H26   S    
C38   H39   S    
O1    P1    D    
C41   H51   S    
C23   C34   S    
C30   P5    S    
O2    P5    D    
C43   H55   S    
C9    P4    S    
C12   H1    S    
C10   C11   A    
C27   C29   A    
O24   P5    S    
Ba2   O5    S    
C23   H7    S    
C38   H38   S    
C33   H45   S    
C19   C50   A    
C33   O13   S    
Ba1   O10   S    
Ba2   O4    S    
