data_mof_unit_21913.cif
_audit_creation_date              2013-03-05T15:45:11-0500
_audit_creation_method            fapswitch 2.2
_symmetry_space_group_name_H-M    P1
_symmetry_Int_Tables_number       1
_space_group_crystal_system       triclinic
_cell_length_a                    10.820085
_cell_length_b                    11.029043
_cell_length_c                    9.92254
_cell_angle_alpha                 110.438469
_cell_angle_beta                  98.845594
_cell_angle_gamma                 91.574044
_cell_volume                      1092.14834193

loop_
_atom_site_label
_atom_site_type_symbol
_atom_site_description
_atom_site_fract_x
_atom_site_fract_y
_atom_site_fract_z
_atom_type_partial_charge
O1    O     O_R   0.511700 0.332330 0.577400 -0.519273
O2    O     O_R   0.474680 0.295500 0.332650 -0.604407
C1    C     C_R   0.487549 0.255445 0.441865 0.934527
O3    O     O_R   0.338160 0.518420 0.622400 -0.573889
O4    O     O_R   0.301140 0.481590 0.377650 -0.557362
C2    C     C_R   0.262284 0.505745 0.502236 0.843057
Cu1   Cu    Cu3+1 0.521920 0.521810 0.644910 1.048104
Cu2   Cu    Cu3+1 0.478080 0.478190 0.355090 1.089716
O5    O     O_R   0.525320 0.704500 0.667350 -0.557894
O6    O     O_R   0.488300 0.667670 0.422600 -0.539209
O7    O     O_R   0.698860 0.518410 0.622350 -0.598677
O8    O     O_R   0.661840 0.481580 0.377600 -0.514702
C3    C     C_R   0.510884 0.745859 0.558615 0.912260
C4    C     C_R   0.735567 0.483216 0.496498 0.867742
H1    H     H_    0.081686 0.421405 0.268758 0.238934
C5    C     C_R   0.151420 0.597160 0.776902 -0.166744
H2    H     H_    0.238469 0.654257 0.791529 0.150250
C6    C     C_R   0.111877 0.590763 0.902156 0.028640
C7    C     C_R   0.996353 0.524369 0.888547 -0.037834
H3    H     H_    0.965732 0.513268 0.982647 0.225612
C8    C     C_R   0.917757 0.474235 0.753501 -0.109559
H4    H     H_    0.831091 0.419961 0.747662 0.196010
C9    C     C_R   0.953535 0.488644 0.628255 0.032216
C10   C     C_R   0.078827 0.531836 0.636540 0.104229
C11   C     C_R   0.126818 0.504324 0.504541 -0.133311
C12   C     C_R   0.045118 0.450425 0.369993 -0.206060
C13   C     C_R   0.916794 0.427088 0.363182 0.342865
C14   C     C_R   0.868977 0.459628 0.494627 -0.185967
C15   C     C_2   0.452125 0.121317 0.415031 -0.238469
C16   C     C_2   0.529808 0.045730 0.461709 -0.074768
C17   C     C_2   0.529101 0.885763 0.586933 -0.206641
C18   C     C_2   0.473013 0.931215 0.483965 -0.108624
H5    H     H_    0.351379 0.096667 0.388002 0.104829
N1    N     N_2   0.445130 0.445430 0.137370 -0.296853
C19   C     C_2   0.510398 0.508341 0.077299 0.303758
H6    H     H_    0.605304 0.638635 0.934629 0.244131
N2    N     N_2   0.554930 0.554500 0.862630 -0.331580
C20   C     C_2   0.497165 0.479170 0.914288 0.303202
N3    N     N_R   0.428418 0.361180 0.814733 0.121618
O9    O     O_R   0.477856 0.251691 0.796945 -0.414257
O10   O     O_R   0.309806 0.359636 0.764738 -0.353280
N4    N     N_R   0.599681 0.613406 0.170982 0.129039
O11   O     O_R   0.718658 0.596297 0.180582 -0.323838
O12   O     O_R   0.566305 0.731291 0.205380 -0.415637
C21   C     C_2   0.350701 0.343483 0.055843 0.648062
H7    H     H_    0.375926 0.244954 0.008404 0.083555
O13   O     O_2   0.240292 0.364779 0.045884 -0.525009
C22   C     C_2   0.195071 0.647814 0.045122 0.430326
H8    H     H_    0.286572 0.695098 0.053026 0.037378
O14   O     O_2   0.163237 0.640779 0.155152 -0.479399
N5    N     N_R   0.838909 0.358759 0.223558 0.163726
O15   O     O_R   0.753127 0.268529 0.211008 -0.297332
O16   O     O_R   0.868740 0.368077 0.105226 -0.340326
C23   C     C_2   0.350959 0.866679 0.389444 0.530335
H9    H     H_    0.326357 0.872174 0.281803 0.064497
O17   O     O_2   0.275147 0.812949 0.434364 -0.513333
C24   C     C_2   0.669622 0.067336 0.480032 0.445918
H10   H     H_    0.728322 0.996114 0.502510 0.099209
O18   O     O_2   0.720718 0.161467 0.466443 -0.539195
C25   C     C_2   0.619649 0.969646 0.717932 0.373853
H11   H     H_    0.629175 0.073977 0.746173 0.149298
O19   O     O_2   0.684878 0.922972 0.795850 -0.483464

loop_
_geom_bond_atom_site_label_1
_geom_bond_atom_site_label_2
_geom_bond_distance
_ccdc_geom_bond_type
C17   C25   1.491321 S    
O1    C1    1.295862 A    
O4    Cu2   1.961308 S    
C16   C18   1.488442 S    
C9    C10   1.405139 A    
C15   C16   1.343288 D    
C7    H3    1.081350 S    
Cu2   O8    1.964211 S    
C22   O14   1.220652 D    
O2    C1    1.296251 A    
Cu1   N2    2.033778 S    
Cu1   Cu2   2.707047 S    
C5    C10   1.416841 A    
N1    C21   1.417752 S    
Cu2   N1    2.033621 S    
C21   H7    1.084202 S    
Cu1   O7    1.961308 S    
C24   H10   1.084603 S    
N2    C20   1.308076 D    
N4    O12   1.300417 A    
O3    Cu1   1.964211 S    
O1    Cu1   1.953200 S    
O4    C2    1.308406 A    
C8    H4    1.081318 S    
H6    N2    1.028585 S    
C7    C8    1.389527 A    
C13   N5    1.440270 S    
N1    C19   1.314082 D    
Cu1   O5    1.947001 S    
C21   O13   1.219590 D    
C8    C9    1.414945 A    
C12   C13   1.392126 A    
C20   N3    1.430250 S    
Cu2   O6    1.953200 S    
O7    C4    1.300126 A    
C23   O17   1.221845 D    
C24   O18   1.220983 D    
O3    C2    1.300554 A    
C5    H2    1.079958 S    
N4    O11   1.300046 A    
N5    O15   1.301724 A    
C2    C11   1.469187 S    
C16   C24   1.497914 S    
C15   H5    1.084903 S    
C13   C14   1.410110 A    
C19   C20   1.517582 S    
C10   C11   1.420373 A    
N3    O10   1.300216 A    
C25   O19   1.221042 D    
C6    C7    1.394862 A    
C18   C23   1.493829 S    
N3    O9    1.300443 A    
C1    C15   1.438233 S    
C19   N4    1.431832 S    
O5    C3    1.300911 A    
C23   H9    1.083496 S    
C22   H8    1.085121 S    
H1    C12   1.082910 S    
C4    C14   1.475550 S    
C11   C12   1.403960 A    
C9    C14   1.418468 A    
C3    C17   1.470419 S    
C5    C6    1.398499 A    
O2    Cu2   1.947001 S    
C17   C18   1.359115 D    
O8    C4    1.312804 A    
C25   H11   1.082871 S    
N5    O16   1.300916 A    
O6    C3    1.303454 A    
C6    C22   1.473557 S    
