data_mof_unit_58010.cif
_audit_creation_date              2012-12-10T16:56:34-0500
_audit_creation_method            fapswitch 2.2
_symmetry_space_group_name_H-M    P1
_symmetry_Int_Tables_number       1
_space_group_crystal_system       triclinic
_cell_length_a                    7.784089
_cell_length_b                    8.581915
_cell_length_c                    15.714379
_cell_angle_alpha                 91.250578
_cell_angle_beta                  85.569988
_cell_angle_gamma                 93.657846
_cell_volume                      1044.3390736

loop_
_atom_site_label
_atom_site_type_symbol
_atom_type_description
_atom_site_fract_x
_atom_site_fract_y
_atom_site_fract_z
_atom_type_partial_charge
C1    C     C_R   0.545731 0.794693 0.497848 0.963757
C2    C     C_3   0.374817 0.398570 0.028835 0.526172
C3    C     C_1   0.505128 0.504580 0.750630 -0.172710
C4    C     C_1   0.494972 0.495255 0.249342 -0.154768
C5    C     C_3   0.344482 0.545934 0.978530 -0.496616
C6    C     C_3   0.657229 0.452460 0.021893 -0.503559
C7    C     C_3   0.501202 0.505104 0.916805 -0.092814
C8    C     C_3   0.500433 0.493881 0.083067 -0.068586
C9    C     C_1   0.504536 0.506542 0.825918 0.073927
C10   C     C_1   0.496048 0.493004 0.174023 0.110512
C11   C     C_3   0.861415 0.768919 0.995678 -0.303326
C12   C     C_R   0.454272 0.205309 0.502193 0.962581
C13   C     C_3   0.136719 0.235278 0.005481 -0.336764
C14   C     C_3   0.397734 0.891957 0.017556 -0.202775
C15   C     C_3   0.713814 0.188593 0.898819 -0.317373
C16   C     C_R   0.501841 0.501336 0.661900 0.892597
C17   C     C_R   0.498167 0.498669 0.338093 0.896923
C18   C     C_2   0.569771 0.958177 0.496623 -0.368920
C19   C     C_2   0.430235 0.041828 0.503485 -0.367733
C20   C     C_3   0.473783 0.640522 0.032628 0.466164
C21   C     C_3   0.528419 0.358476 0.967025 0.483918
C22   C     C_3   0.627945 0.600303 0.971228 0.480466
H1    H     H_    0.780958 0.415041 0.042671 0.183274
H2    H     H_    0.206821 0.178385 0.950108 0.194076
H3    H     H_    0.061838 0.330716 0.983513 0.162599
H4    H     H_    0.043625 0.145797 0.035539 0.180968
H5    H     H_    0.262524 0.861841 0.002395 0.136202
H6    H     H_    0.484610 0.898989 0.957946 0.207114
H7    H     H_    0.401728 0.009113 0.048635 0.247403
H8    H     H_    0.791501 0.168062 0.953276 0.163809
H9    H     H_    0.771879 0.288979 0.860479 0.177081
H10   H     H_    0.716853 0.082907 0.856951 0.207294
H11   H     H_    0.220165 0.583360 0.958413 0.179488
H12   H     H_    0.701582 0.009177 0.490067 0.181931
H13   H     H_    0.298425 0.990829 0.510049 0.181848
H14   H     H_    0.013294 0.381616 0.436240 0.198025
H15   H     H_    0.986705 0.618377 0.563764 0.194659
H16   H     H_    0.934829 0.676518 0.022032 0.170691
H17   H     H_    0.786482 0.830132 0.047867 0.205936
H18   H     H_    0.956374 0.856415 0.965214 0.167225
N1    N     N_2   0.950320 0.457950 0.477300 -0.170409
N2    N     N_2   0.049680 0.542050 0.522700 -0.172052
O1    O     O_R   0.389250 0.738570 0.505570 -0.612607
O2    O     O_3   0.249220 0.290685 0.066839 -0.591750
O3    O     O_3   0.451184 0.784991 0.075071 -0.616469
O4    O     O_3   0.541496 0.209206 0.928543 -0.631845
O5    O     O_R   0.610750 0.261430 0.494430 -0.613399
O6    O     O_R   0.678390 0.711630 0.491020 -0.628841
O7    O     O_R   0.321610 0.288370 0.508980 -0.630305
O8    O     O_R   0.355460 0.513480 0.630490 -0.611919
O9    O     O_R   0.644540 0.486520 0.369510 -0.609067
O10   O     O_R   0.644600 0.486540 0.615950 -0.620254
O11   O     O_R   0.355400 0.513460 0.384050 -0.613635
O12   O     O_3   0.754678 0.707253 0.933201 -0.607430
Zn1   Zn    Zn3+2 0.306940 0.517990 0.509710 0.959552
Zn2   Zn    Zn3+2 0.693060 0.482010 0.490290 0.959734

loop_
_geom_bond_atom_site_label_1
_geom_bond_atom_site_label_2
_ccdc_geom_bond_type
C11   H16   S    
C16   O10   A    
N1    Zn2   S    
C15   H9    S    
C3    C9    T    
C14   H5    S    
C7    C22   S    
N1    N2    D    
C20   O3    S    
C17   O9    A    
C2    C21   S    
C12   O7    A    
C1    C18   S    
C15   H10   S    
C1    O6    A    
C5    C20   S    
C19   H13   S    
C13   O2    S    
C11   H17   S    
C18   H12   S    
C13   H3    S    
H14   N1    S    
C8    C20   S    
C11   O12   S    
O10   Zn2   S    
C12   O5    A    
C6    H1    S    
C12   C19   S    
O1    Zn1   S    
C16   O8    A    
C21   O4    S    
C14   O3    S    
C7    C9    S    
C22   O12   S    
O11   Zn1   S    
C11   H18   S    
N2    Zn1   S    
C13   H4    S    
C2    C5    S    
C4    C17   S    
C14   H7    S    
C4    C10   T    
C6    C22   S    
C17   O11   A    
C2    O2    S    
C15   H8    S    
C5    C7    S    
O9    Zn2   S    
C7    C21   S    
H15   N2    S    
O6    Zn2   S    
C18   C19   D    
C6    C8    S    
C15   O4    S    
C14   H6    S    
O7    Zn1   S    
C6    C21   S    
C1    O1    A    
C8    C10   S    
C2    C8    S    
C3    C16   S    
O8    Zn1   S    
C13   H2    S    
C20   C22   S    
O5    Zn2   S    
C5    H11   S    
