data_mof_unit_33081.cif
_audit_creation_date              2012-12-10T17:35:33-0500
_audit_creation_method            fapswitch 2.2
_symmetry_space_group_name_H-M    P1
_symmetry_Int_Tables_number       1
_space_group_crystal_system       triclinic
_cell_length_a                    10.906283
_cell_length_b                    12.463088
_cell_length_c                    13.931589
_cell_angle_alpha                 118.34035
_cell_angle_beta                  73.437105
_cell_angle_gamma                 102.852016
_cell_volume                      1589.00137213

loop_
_atom_site_label
_atom_site_type_symbol
_atom_type_description
_atom_site_fract_x
_atom_site_fract_y
_atom_site_fract_z
_atom_type_partial_charge
C1    C     C_R   0.506071 0.852807 0.289048 0.845487
C2    C     C_3   0.119565 0.004856 0.507380 0.013426
C3    C     C_3   0.038306 0.059739 0.630841 -0.126831
C4    C     C_3   0.054798 0.871857 0.439560 0.337210
C5    C     C_R   0.508727 0.261200 0.008349 -0.152122
C6    C     C_R   0.501907 0.226523 0.825219 -0.091292
C7    C     C_R   0.501382 0.809414 0.093683 0.158523
C8    C     C_R   0.465727 0.732523 0.992229 -0.150911
C9    C     C_R   0.435689 0.607775 0.959492 0.117459
C10   C     C_R   0.454167 0.555671 0.024101 0.024406
C11   C     C_R   0.451759 0.633363 0.138986 -0.059887
C12   C     C_R   0.738795 0.005595 0.504833 0.809595
C13   C     C_R   0.472861 0.429841 0.979893 0.065942
C14   C     C_R   0.476884 0.381343 0.052222 0.017105
C15   C     C_R   0.439384 0.449817 0.166796 0.082140
C16   C     C_R   0.415420 0.572271 0.209459 0.165584
C17   C     C_R   0.494915 0.351985 0.865273 -0.229949
C18   C     C_R   0.517455 0.182408 0.896515 0.164591
C19   C     C_R   0.485185 0.764683 0.174024 -0.155090
C20   C     C_R   0.738463 0.361274 0.366542 -0.226404
C21   C     C_R   0.312431 0.753511 0.632783 0.093412
C22   C     C_R   0.258448 0.647844 0.644847 -0.254507
C23   C     C_R   0.493303 0.144808 0.709698 0.830701
C24   C     C_R   0.324756 0.543360 0.589331 0.235530
C25   C     C_R   0.455914 0.550097 0.533383 -0.025146
C26   C     C_R   0.501750 0.654970 0.510900 0.234401
C27   C     C_R   0.536935 0.451189 0.485974 -0.051641
C28   C     C_R   0.660465 0.458361 0.418096 0.122177
C29   C     C_R   0.700427 0.553974 0.389487 0.051789
C30   C     C_R   0.618598 0.644736 0.427055 0.130552
C31   C     C_R   0.501013 0.341885 0.498974 0.132867
C32   C     C_R   0.691308 0.254042 0.374463 0.093662
C33   C     C_R   0.259275 0.001808 0.503752 0.803931
C34   C     C_3   0.966126 0.109612 0.473035 -0.399158
C35   C     C_3   0.108251 0.097658 0.462219 -0.017553
C36   C     C_3   0.892045 0.040695 0.626471 -0.033050
C37   C     C_3   0.925927 0.885210 0.420801 -0.105603
C38   C     C_3   0.877585 0.011906 0.507173 0.017764
Cu1   Cu    Cu3+1 0.529690 0.098270 0.475420 0.983352
Cu2   Cu    Cu3+1 0.470310 0.901730 0.524580 0.996067
H1    H     H_    0.941833 0.203449 0.535135 0.157516
H2    H     H_    0.844692 0.959870 0.642129 0.218470
H3    H     H_    0.524599 0.225254 0.060104 0.211523
H4    H     H_    0.506734 0.387580 0.805996 0.195345
H5    H     H_    0.458969 0.770654 0.938633 0.205266
H6    H     H_    0.950788 0.099109 0.393414 0.223265
H7    H     H_    0.749523 0.178260 0.334188 0.139433
H8    H     H_    0.834106 0.365219 0.316406 0.190593
H9    H     H_    0.418406 0.331402 0.559239 0.171162
H10   H     H_    0.257301 0.831308 0.671894 0.144910
H11   H     H_    0.160332 0.643998 0.690815 0.158771
H12   H     H_    0.150401 0.189971 0.515672 0.150971
H13   H     H_    0.069223 0.159923 0.672240 0.141302
H14   H     H_    0.854617 0.815851 0.438749 0.139981
N1    N     N_R   0.574690 0.246280 0.438200 -0.195178
N2    N     N_R   0.426100 0.754320 0.561190 -0.177068
O1    O     O_R   0.537340 0.972510 0.318130 -0.543457
O2    O     O_R   0.487200 0.806530 0.359650 -0.534491
O3    O     O_R   0.707380 0.082980 0.479220 -0.606191
O4    O     O_R   0.657240 0.917000 0.520740 -0.569446
O5    O     O_R   0.512800 0.193470 0.640350 -0.602806
O6    O     O_R   0.462660 0.027490 0.681870 -0.565338
O7    O     O_R   0.342760 0.083000 0.479260 -0.574343
O8    O     O_R   0.292620 0.917020 0.520780 -0.574170
N3    N     N_3   0.021463 0.801503 0.506058 -0.573299
H15   H     H_    0.100127 0.796668 0.531249 0.289762
H16   H     H_    0.987294 0.711004 0.459298 0.221942
N4    N     N_3   0.058498 0.006366 0.698441 -0.569309
H17   H     H_    0.149875 0.039977 0.716970 0.217605
H18   H     H_    0.994038 0.039383 0.775413 0.242529
I1    I     I_    0.561070 0.001679 0.845387 -0.343369
I2    I     I_    0.393648 0.356511 0.270402 -0.314195
I3    I     I_    0.572587 0.990773 0.111912 -0.284685
I4    I     I_    0.316299 0.519197 0.840965 -0.475025
I5    I     I_    0.265924 0.622278 0.353446 -0.350720
N5    N     N_3   0.813411 0.543254 0.301812 -0.607563
H19   H     H_    0.787735 0.523173 0.227851 0.229827
H20   H     H_    0.875907 0.622888 0.324775 0.205905
N6    N     N_3   0.250789 0.428106 0.574103 -0.607758
H21   H     H_    0.186992 0.411052 0.523691 0.250802
H22   H     H_    0.195009 0.434750 0.650937 0.230366
N7    N     N_3   0.635760 0.696360 0.352941 -0.498525
H23   H     H_    0.728169 0.733793 0.335044 0.187208
H24   H     H_    0.619796 0.626058 0.276525 0.204612
I6    I     I_    0.216599 0.073735 0.298127 -0.267546
N8    N     N_3   0.825231 0.146985 0.713687 -0.602736
H25   H     H_    0.873725 0.227746 0.710174 0.220703
H26   H     H_    0.827147 0.154996 0.791434 0.245910
N9    N     N_3   0.935935 0.864617 0.305299 -0.578052
H27   H     H_    0.937981 0.771160 0.251719 0.210359
H28   H     H_    0.854252 0.888981 0.298415 0.214454
N10   N     N_3   0.141261 0.803463 0.333333 -0.558378
H29   H     H_    0.095487 0.716602 0.290567 0.232740
H30   H     H_    0.164764 0.844459 0.280039 0.271884

loop_
_geom_bond_atom_site_label_1
_geom_bond_atom_site_label_2
_ccdc_geom_bond_type
C2    C35   S    
Cu2   O4    S    
C16   I5    S    
C3    H13   S    
C36   H2    S    
C3    N4    S    
C7    C8    A    
C7    I3    S    
C29   N5    S    
C15   I2    S    
C11   C19   A    
C29   C30   A    
C28   C29   A    
N5    H20   S    
C4    N3    S    
N8    H26   S    
N3    H16   S    
C15   C16   A    
Cu1   O1    S    
Cu2   O6    S    
C34   C35   S    
C8    H5    S    
C12   O3    A    
C23   O6    A    
Cu1   N1    S    
N4    H17   S    
Cu2   N2    S    
C34   H6    S    
N9    H28   S    
C9    C10   A    
C32   N1    A    
C5    H3    S    
C21   C22   A    
C34   H1    S    
C31   H9    S    
Cu1   O5    S    
C21   H10   S    
C6    C18   A    
C1    C19   S    
Cu2   O2    S    
C27   C31   A    
N5    H19   S    
Cu1   Cu2   S    
N6    H22   S    
N8    H25   S    
C8    C9    A    
C5    C18   A    
C20   C28   A    
C36   N8    S    
C25   C26   A    
C30   N7    S    
C2    C4    S    
C37   C38   S    
C1    O1    A    
C11   C16   A    
C24   N6    S    
C33   O7    A    
Cu1   O3    S    
N10   H30   S    
C24   C25   A    
C5    C14   A    
C20   H8    S    
C37   H14   S    
C2    C33   S    
C26   C30   A    
N7    H24   S    
C32   H7    S    
C22   C24   A    
C9    I4    S    
C35   H12   S    
C20   C32   A    
C18   I1    S    
C6    C17   A    
C34   C38   S    
C10   C13   A    
C26   N2    A    
C21   N2    A    
C37   N9    S    
C25   C27   A    
Cu1   O7    S    
C7    C19   A    
Cu2   O8    S    
C13   C17   A    
C36   C38   S    
C2    C3    S    
C17   H4    S    
C1    O2    A    
C35   I6    S    
C3    C36   S    
C33   O8    A    
C6    C23   S    
N10   H29   S    
N3    H15   S    
C12   C38   S    
C10   C11   A    
N6    H21   S    
C12   O4    A    
C23   O5    A    
C4    C37   S    
N4    H18   S    
N7    H23   S    
C27   C28   A    
C14   C15   A    
C31   N1    A    
N9    H27   S    
C13   C14   A    
C22   H11   S    
C4    N10   S    
