data_mof_unit_20313.cif
_audit_creation_date              2012-12-10T16:56:31-0500
_audit_creation_method            fapswitch 2.2
_symmetry_space_group_name_H-M    P1
_symmetry_Int_Tables_number       1
_space_group_crystal_system       triclinic
_cell_length_a                    7.774396
_cell_length_b                    8.579425
_cell_length_c                    15.695857
_cell_angle_alpha                 90.864916
_cell_angle_beta                  85.887189
_cell_angle_gamma                 93.634248
_cell_volume                      1042.05681319

loop_
_atom_site_label
_atom_site_type_symbol
_atom_type_description
_atom_site_fract_x
_atom_site_fract_y
_atom_site_fract_z
_atom_type_partial_charge
C1    C     C_R   0.545758 0.794715 0.497808 0.960839
C2    C     C_3   0.402603 0.374709 0.029702 -0.167362
C3    C     C_1   0.506417 0.499592 0.750833 -0.181020
C4    C     C_1   0.493583 0.500408 0.249167 -0.181021
C5    C     C_3   0.338277 0.505778 0.975761 -0.163988
C6    C     C_3   0.661723 0.494222 0.024239 -0.163988
C7    C     C_3   0.504057 0.499674 0.917239 0.212281
C8    C     C_3   0.495943 0.500326 0.082761 0.212282
C9    C     C_1   0.506929 0.499484 0.826212 -0.084671
C10   C     C_1   0.493071 0.500516 0.173788 -0.084671
C11   C     C_R   0.454241 0.205284 0.502192 0.960839
C12   C     C_R   0.502166 0.500031 0.661982 0.904381
C13   C     C_R   0.497834 0.499969 0.338018 0.904380
C14   C     C_2   0.569827 0.958196 0.496557 -0.379247
C15   C     C_2   0.430173 0.041804 0.503443 -0.379247
C16   C     C_3   0.431605 0.631396 0.030635 -0.165441
C17   C     C_3   0.568395 0.368604 0.969365 -0.165440
C18   C     C_3   0.597397 0.625291 0.970298 -0.167362
H1    H     H_    0.375501 0.738666 0.057898 0.131849
H2    H     H_    0.322805 0.272459 0.056211 0.131207
H3    H     H_    0.624499 0.261333 0.942102 0.131849
H4    H     H_    0.793850 0.489528 0.046267 0.132115
H5    H     H_    0.206150 0.510472 0.953733 0.132115
H6    H     H_    0.701738 0.009227 0.489987 0.180879
H7    H     H_    0.298262 0.990773 0.510012 0.180879
H8    H     H_    0.013357 0.381983 0.436420 0.192559
H9    H     H_    0.986643 0.618017 0.563580 0.192559
H10   H     H_    0.677195 0.727541 0.943789 0.131207
N1    N     N_2   0.950320 0.457950 0.477300 -0.172941
N2    N     N_2   0.049680 0.542050 0.522700 -0.172941
O1    O     O_R   0.389250 0.738570 0.505570 -0.613101
O2    O     O_R   0.610750 0.261430 0.494430 -0.613101
O3    O     O_R   0.678390 0.711630 0.491020 -0.630931
O4    O     O_R   0.321610 0.288370 0.508980 -0.630932
O5    O     O_R   0.355460 0.513480 0.630490 -0.611990
O6    O     O_R   0.644540 0.486520 0.369510 -0.611990
O7    O     O_R   0.644600 0.486540 0.615950 -0.621753
O8    O     O_R   0.355400 0.513460 0.384050 -0.621752
Zn1   Zn    Zn3+2 0.306940 0.517990 0.509710 0.946336
Zn2   Zn    Zn3+2 0.693060 0.482010 0.490290 0.946336

loop_
_geom_bond_atom_site_label_1
_geom_bond_atom_site_label_2
_ccdc_geom_bond_type
N2    Zn1   S    
O5    Zn1   S    
N1    N2    D    
C3    C9    T    
C1    C14   S    
C5    H5    S    
O6    Zn2   S    
C12   O5    A    
C7    C18   S    
C1    O3    A    
C8    C16   S    
C2    C17   S    
C13   O8    A    
C11   C15   S    
H8    N1    S    
C16   H1    S    
N1    Zn2   S    
C16   C18   S    
O1    Zn1   S    
C11   O2    A    
O7    Zn2   S    
O2    Zn2   S    
O8    Zn1   S    
C6    C18   S    
C2    C8    S    
C15   H7    S    
C2    C5    S    
C4    C10   T    
O4    Zn1   S    
O3    Zn2   S    
C7    C9    S    
C1    O1    A    
C18   H10   S    
C13   O6    A    
C8    C10   S    
C12   O7    A    
C14   H6    S    
C4    C13   S    
C5    C7    S    
C6    C17   S    
C14   C15   D    
C5    C16   S    
C6    C8    S    
C3    C12   S    
C7    C17   S    
C2    H2    S    
C11   O4    A    
C17   H3    S    
H9    N2    S    
C6    H4    S    
