data_mof_unit_42533.cif
_audit_creation_date              2012-12-10T17:48:38-0500
_audit_creation_method            fapswitch 2.2
_symmetry_space_group_name_H-M    P1
_symmetry_Int_Tables_number       1
_space_group_crystal_system       triclinic
_cell_length_a                    15.748635
_cell_length_b                    10.698464
_cell_length_c                    9.967023
_cell_angle_alpha                 91.212114
_cell_angle_beta                  89.724658
_cell_angle_gamma                 93.607477
_cell_volume                      1675.5931877

loop_
_atom_site_label
_atom_site_type_symbol
_atom_type_description
_atom_site_fract_x
_atom_site_fract_y
_atom_site_fract_z
_atom_type_partial_charge
C1    C     C_R   0.510406 0.262231 0.498946 0.953008
C2    C     C_R   0.563775 0.076396 0.862508 0.573229
C3    C     C_R   0.515120 0.964086 0.873362 -0.171020
C4    C     C_R   0.338559 0.499677 0.500302 0.876821
C5    C     C_R   0.487381 0.898109 0.758115 -0.182211
C6    C     C_R   0.506518 0.945467 0.629029 0.016269
C7    C     C_R   0.538336 0.070097 0.620689 -0.075663
C8    C     C_R   0.526733 0.131066 0.497919 -0.199871
C9    C     C_R   0.512564 0.061824 0.378587 0.625416
C10   C     C_R   0.499615 0.934610 0.383375 -0.238826
C11   C     C_R   0.495581 0.875059 0.506967 -0.169456
C12   C     C_3   0.947111 0.422160 0.623718 0.753039
C13   C     C_R   0.397509 0.324323 0.144398 -0.087106
C14   C     C_R   0.353323 0.224886 0.082101 -0.220870
C15   C     C_R   0.351461 0.216775 0.944862 0.538097
C16   C     C_R   0.495886 0.740185 0.502159 0.912779
C17   C     C_R   0.391915 0.312010 0.866862 0.402905
C18   C     C_R   0.447939 0.409310 0.928275 -0.022565
C19   C     C_R   0.449075 0.411811 0.072850 -0.026438
C20   C     C_R   0.548932 0.584042 0.073857 0.682598
C21   C     C_R   0.549761 0.584451 0.931807 0.330046
C22   C     C_R   0.661452 0.500527 0.499709 0.907350
C23   C     C_3   0.917105 0.498525 0.501375 -0.242741
C24   C     C_3   0.046619 0.423787 0.621397 0.191701
C25   C     C_3   0.047431 0.434835 0.370968 0.400811
C26   C     C_3   0.949335 0.439696 0.366676 0.077914
C27   C     C_1   0.750234 0.499712 0.499369 -0.071916
C28   C     C_3   0.082954 0.501656 0.501283 -0.301515
C29   C     C_3   0.955102 0.636641 0.508394 0.273193
C30   C     C_3   0.054447 0.640309 0.507953 0.734138
C31   C     C_1   0.825464 0.499006 0.499953 0.215038
C32   C     C_1   0.174515 0.500367 0.501255 0.188023
C33   C     C_1   0.249752 0.499803 0.500949 -0.110157
C34   C     C_R   0.577393 0.129944 0.735631 0.380856
F1    F     F_    0.082440 0.465347 0.742492 -0.605719
F2    F     F_    0.509902 0.116227 0.256909 -0.614707
F3    F     F_    0.595845 0.133958 0.975633 -0.611625
F4    F     F_    0.599531 0.669777 0.143084 -0.596075
F5    F     F_    0.304392 0.119275 0.887423 -0.643940
F6    F     F_    0.083486 0.488941 0.257100 -0.583232
F7    F     F_    0.923209 0.702689 0.616767 -0.607224
H1    H     H_    0.933438 0.685247 0.418050 0.174634
H2    H     H_    0.927682 0.253233 0.692386 0.379807
H3    H     H_    0.948874 0.548198 0.772216 0.399588
H4    H     H_    0.653943 0.265168 0.808408 0.388784
H5    H     H_    0.329262 0.243294 0.708874 0.365127
H6    H     H_    0.603831 0.657292 0.775711 0.388377
H7    H     H_    0.856131 0.327335 0.299880 0.370171
H8    H     H_    0.060764 0.676090 0.703257 0.401868
H9    H     H_    0.145246 0.723800 0.401062 0.376340
H10   H     H_    0.501057 0.925804 0.971289 0.212212
H11   H     H_    0.448333 0.812937 0.772848 0.208696
H12   H     H_    0.491432 0.883167 0.288994 0.216917
H13   H     H_    0.066030 0.325941 0.607460 0.152103
H14   H     H_    0.389402 0.329352 0.249827 0.223755
H15   H     H_    0.317514 0.155765 0.141117 0.202063
H16   H     H_    0.064775 0.335437 0.369448 0.164274
H17   H     H_    0.933001 0.500468 0.281866 0.183400
N1    N     N_R   0.499210 0.498800 0.142780 -0.184951
N2    N     N_R   0.499180 0.498720 0.857170 -0.175139
O1    O     O_R   0.500000 0.316780 0.614690 -0.541037
O2    O     O_3   0.915343 0.470450 0.745970 -0.651933
O3    O     O_3   0.632035 0.235012 0.719728 -0.715599
O4    O     O_3   0.370081 0.313806 0.734769 -0.710560
O5    O     O_3   0.603616 0.673501 0.872823 -0.693087
O6    O     O_3   0.912037 0.318213 0.343001 -0.650518
O7    O     O_3   0.089292 0.707144 0.620866 -0.662229
O8    O     O_3   0.083032 0.704195 0.392239 -0.675826
O9    O     O_R   0.499990 0.316750 0.385360 -0.595688
O10   O     O_R   0.377150 0.500020 0.614720 -0.530596
O11   O     O_R   0.377140 0.499990 0.385380 -0.654386
O12   O     O_R   0.500010 0.683250 0.614640 -0.662393
O13   O     O_R   0.500000 0.683220 0.385310 -0.577551
O14   O     O_R   0.622860 0.500010 0.614620 -0.603912
O15   O     O_R   0.622850 0.499980 0.385280 -0.572663
O16   O     O_3   0.913799 0.297291 0.609303 -0.669438
Zn1   Zn    Zn3+2 0.500010 0.500020 0.653130 1.023613
Zn2   Zn    Zn3+2 0.499990 0.499980 0.346870 1.045422

loop_
_geom_bond_atom_site_label_1
_geom_bond_atom_site_label_2
_ccdc_geom_bond_type
C14   H15   S    
C29   H1    S    
C1    C8    S    
C16   O12   A    
C4    O10   A    
C7    C8    A    
C25   C28   S    
C12   C23   S    
C29   C30   S    
C23   C29   S    
C25   F6    S    
C5    C6    A    
C24   H13   S    
C20   F4    S    
C18   C19   A    
C23   C26   S    
C10   H12   S    
O1    Zn1   S    
C8    C9    A    
O14   Zn1   S    
C9    F2    S    
O13   Zn2   S    
C5    H11   S    
C9    C10   A    
C30   O7    S    
C29   F7    S    
C2    C34   A    
C13   C14   A    
O10   Zn1   S    
O9    Zn2   S    
C25   H16   S    
C22   O15   A    
N1    Zn2   S    
N2    Zn1   S    
C24   F1    S    
C13   C19   A    
C27   C31   T    
C16   O13   A    
C26   O6    S    
C28   C32   S    
C21   N2    A    
C6    C11   A    
C3    H10   S    
H3    O2    S    
C25   C26   S    
H4    O3    S    
C1    O9    A    
H5    O4    S    
C23   C31   S    
O12   Zn1   S    
C12   O2    S    
C11   C16   S    
C17   C18   A    
C20   N1    A    
C26   H17   S    
C15   F5    S    
C18   N2    A    
C22   C27   S    
C12   O16   S    
C7    C34   A    
C22   O14   A    
H2    O16   S    
C15   C17   A    
C4    C33   S    
H8    O7    S    
C21   O5    S    
C24   C28   S    
C3    C5    A    
C1    O1    A    
C6    C7    A    
C12   C24   S    
C19   N1    A    
C32   C33   T    
C28   C30   S    
C2    C3    A    
C17   O4    S    
C2    F3    S    
C34   O3    S    
O11   Zn2   S    
O15   Zn2   S    
C10   C11   A    
C20   C21   A    
C14   C15   A    
H7    O6    S    
H9    O8    S    
H6    O5    S    
C4    O11   A    
C30   O8    S    
C13   H14   S    
