data_mof_unit_15247.cif
_audit_creation_date              2012-12-11T15:06:45-0500
_audit_creation_method            fapswitch 2.2
_symmetry_space_group_name_H-M    P1
_symmetry_Int_Tables_number       1
_space_group_crystal_system       triclinic
_cell_length_a                    7.212791
_cell_length_b                    15.081065
_cell_length_c                    22.479383
_cell_angle_alpha                 89.976272
_cell_angle_beta                  89.686582
_cell_angle_gamma                 89.974159
_cell_volume                      2445.19313637

loop_
_atom_site_label
_atom_site_type_symbol
_atom_type_description
_atom_site_fract_x
_atom_site_fract_y
_atom_site_fract_z
_atom_type_partial_charge
O1    O     O_R   0.390810 0.844810 0.447340 -0.535344
O2    O     O_R   0.109190 0.155190 0.947340 -0.535937
O3    O     O_R   0.890810 0.655190 0.552660 -0.535065
O4    O     O_R   0.609190 0.344810 0.052660 -0.534641
O5    O     O_R   0.720550 0.655820 0.440420 -0.545710
O6    O     O_R   0.779450 0.344180 0.940420 -0.550840
O7    O     O_R   0.220550 0.844180 0.559580 -0.548671
O8    O     O_R   0.279450 0.155820 0.059580 -0.546420
C1    C     C_R   0.551607 0.626706 0.426290 0.773172
C2    C     C_R   0.949436 0.373379 0.926420 0.783820
C3    C     C_R   0.050670 0.873491 0.573523 0.780086
C4    C     C_R   0.448624 0.126494 0.073592 0.770337
O9    O     O_R   0.720530 0.844130 0.440420 -0.536940
O10   O     O_R   0.779470 0.155870 0.940420 -0.541336
O11   O     O_R   0.220530 0.655870 0.559580 -0.541478
O12   O     O_R   0.279470 0.344130 0.059580 -0.534028
O13   O     O_R   0.890830 0.844810 0.552660 -0.526608
O14   O     O_R   0.609170 0.155190 0.052660 -0.529839
O15   O     O_R   0.390830 0.655190 0.447340 -0.530130
O16   O     O_R   0.109170 0.344810 0.947340 -0.523445
C5    C     C_R   0.551786 0.873818 0.426399 0.696953
C6    C     C_R   0.948865 0.125964 0.926585 0.695479
C7    C     C_R   0.051140 0.625959 0.573392 0.697136
C8    C     C_R   0.447826 0.373822 0.073568 0.697439
O17   O     O_3   0.557310 0.749980 0.536820 -0.383024
O18   O     O_3   0.942690 0.250020 0.036820 -0.380796
O19   O     O_3   0.057310 0.750020 0.463180 -0.381831
O20   O     O_3   0.442690 0.249980 0.963180 -0.383825
V1    V     V_3+5 0.832160 0.749980 0.493170 1.447576
V2    V     V_3+5 0.667840 0.250020 0.993170 1.437788
V3    V     V_3+5 0.332160 0.750020 0.506830 1.436511
V4    V     V_3+5 0.167840 0.249980 0.006830 1.455547
C9    C     C_R   0.102569 0.589559 0.861079 -0.243725
C10   C     C_R   0.454167 0.402911 0.361348 -0.240731
C11   C     C_R   0.557792 0.903741 0.138498 -0.243353
C12   C     C_R   0.905065 0.090827 0.639070 -0.238182
H1    H     H_    0.256967 0.690721 0.777513 0.122680
H2    H     H_    0.305209 0.295304 0.280655 0.122648
H3    H     H_    0.710027 0.797572 0.219968 0.119530
H4    H     H_    0.747190 0.191648 0.722280 0.124106
H5    H     H_    0.160508 0.650566 0.878165 0.153851
H6    H     H_    0.425584 0.337366 0.378639 0.159377
H7    H     H_    0.591002 0.838816 0.121139 0.176819
H8    H     H_    0.852038 0.152957 0.622039 0.157192
C13   C     C_R   0.970472 0.444700 0.881527 -0.225878
C14   C     C_R   0.536063 0.555888 0.380895 -0.229935
C15   C     C_R   0.465821 0.055639 0.119000 -0.229995
C16   C     C_R   0.030489 0.944613 0.618607 -0.229556
C17   C     C_R   0.919738 0.478987 0.591856 -0.137464
C18   C     C_R   0.548523 0.527129 0.090068 -0.128850
C19   C     C_R   0.433225 0.023579 0.408437 -0.132239
C20   C     C_R   0.079360 0.978654 0.908259 -0.141692
C21   C     C_R   0.839245 0.417079 0.630017 0.294495
C22   C     C_R   0.617811 0.594291 0.126882 0.308380
C23   C     C_R   0.361165 0.088441 0.370864 0.293826
C24   C     C_R   0.158351 0.916147 0.870209 0.293132
C25   C     C_R   0.874906 0.420992 0.690871 -0.210954
C26   C     C_R   0.592829 0.587380 0.188551 -0.208086
C27   C     C_R   0.397089 0.084547 0.309819 -0.215282
C28   C     C_R   0.121848 0.919723 0.809384 -0.210708
C29   C     C_R   0.994570 0.485617 0.714891 0.070883
C30   C     C_R   0.496667 0.515621 0.214541 0.068576
C31   C     C_R   0.503484 0.015280 0.284948 0.069486
C32   C     C_R   0.003420 0.984845 0.785257 0.071123
C33   C     C_R   0.071991 0.550598 0.675487 0.039918
C34   C     C_R   0.431808 0.446649 0.176372 0.040108
C35   C     C_R   0.571069 0.947314 0.323634 0.040685
C36   C     C_R   0.927227 0.050297 0.824561 0.040270
C37   C     C_R   0.021960 0.493459 0.777816 0.062245
C38   C     C_R   0.480770 0.505807 0.277909 0.063673
C39   C     C_R   0.523506 0.005808 0.221827 0.063821
C40   C     C_R   0.976932 0.992935 0.722288 0.062398
C41   C     C_R   0.101521 0.572651 0.799863 -0.007534
C42   C     C_R   0.432240 0.421418 0.300731 -0.012488
C43   C     C_R   0.577464 0.922223 0.199199 -0.011499
C44   C     C_R   0.900869 0.072911 0.700175 -0.011806
C45   C     C_R   0.185032 0.632919 0.760707 -0.145283
C46   C     C_R   0.357598 0.357176 0.262941 -0.133738
C47   C     C_R   0.654003 0.858847 0.237372 -0.130657
C48   C     C_R   0.817110 0.133299 0.739188 -0.144450
C49   C     C_R   0.178015 0.619585 0.699498 -0.191902
C50   C     C_R   0.347108 0.372206 0.201962 -0.184671
C51   C     C_R   0.660896 0.873848 0.298460 -0.189257
C52   C     C_R   0.822287 0.119617 0.800408 -0.191744
C53   C     C_R   0.977164 0.425185 0.819731 0.140072
C54   C     C_R   0.508648 0.576087 0.319709 0.140390
C55   C     C_R   0.493288 0.075912 0.180159 0.140628
C56   C     C_R   0.020490 0.924573 0.680321 0.140849
C57   C     C_R   0.032634 0.527559 0.901233 0.567901
C58   C     C_R   0.513385 0.468452 0.400509 0.583548
C59   C     C_R   0.494240 0.968548 0.099349 0.581871
C60   C     C_R   0.975701 0.028801 0.599025 0.584556
C61   C     C_R   0.030388 0.548128 0.613635 -0.160055
C62   C     C_R   0.462566 0.451703 0.113898 -0.138362
C63   C     C_R   0.534287 0.951466 0.385901 -0.149954
C64   C     C_R   0.969298 0.048013 0.886403 -0.157101
H9    H     H_    0.882961 0.477360 0.545138 0.170502
H10   H     H_    0.569705 0.530577 0.042439 0.133872
H11   H     H_    0.397797 0.025944 0.455371 0.157658
H12   H     H_    0.116612 0.977162 0.954940 0.167674
H13   H     H_    0.794610 0.377342 0.718938 0.158372
H14   H     H_    0.660997 0.636050 0.215847 0.152391
H15   H     H_    0.325738 0.131646 0.281960 0.154626
H16   H     H_    0.200934 0.875493 0.781377 0.158847
H17   H     H_    0.250664 0.665696 0.671017 0.122684
H18   H     H_    0.278246 0.323617 0.174621 0.114464
H19   H     H_    0.729047 0.825363 0.326136 0.115630
H20   H     H_    0.749860 0.165884 0.828816 0.122421
F1    F     F_    0.044582 0.544698 0.960284 -0.720469
F2    F     F_    0.532977 0.448062 0.458914 -0.705257
F3    F     F_    0.476663 0.948089 0.040904 -0.706366
F4    F     F_    0.973904 0.048020 0.540096 -0.708824
N1    N     N_2   0.974172 0.334974 0.801180 -0.535732
H21   H     H_    0.893382 0.294584 0.827351 0.238440
C65   C     C_3   0.155665 0.297842 0.788972 -0.522361
H22   H     H_    0.141316 0.229003 0.772327 0.204543
H23   H     H_    0.239968 0.296600 0.830200 0.194977
H24   H     H_    0.228911 0.337193 0.754297 0.203675
N2    N     N_2   0.482014 0.666040 0.302209 -0.532709
H25   H     H_    0.541534 0.711560 0.330050 0.236687
C66   C     C_3   0.292546 0.689366 0.288112 -0.506006
H26   H     H_    0.286907 0.759478 0.273097 0.198580
H27   H     H_    0.202733 0.681867 0.328138 0.194923
H28   H     H_    0.238700 0.647020 0.251701 0.206260
N3    N     N_2   0.519069 0.165849 0.197811 -0.531654
H29   H     H_    0.463890 0.211299 0.169026 0.236628
C67   C     C_3   0.707294 0.188742 0.213835 -0.510331
H30   H     H_    0.712616 0.259166 0.228130 0.199077
H31   H     H_    0.801353 0.179942 0.174943 0.195256
H32   H     H_    0.756470 0.147147 0.251329 0.201743
N4    N     N_2   0.021935 0.834233 0.698708 -0.534799
H33   H     H_    0.101548 0.793521 0.672383 0.239027
C68   C     C_3   0.840122 0.797794 0.711212 -0.522855
H34   H     H_    0.853903 0.728810 0.727741 0.203594
H35   H     H_    0.755109 0.797048 0.670131 0.195837
H36   H     H_    0.768094 0.837291 0.746065 0.203023
N5    N     N_2   0.708150 0.355417 0.607582 -0.503227
H37   H     H_    0.706467 0.296077 0.630365 0.240539
C69   C     C_3   0.523443 0.391629 0.601202 -0.422614
H38   H     H_    0.433226 0.342329 0.578859 0.220922
H39   H     H_    0.526367 0.452976 0.573857 0.246527
H40   H     H_    0.463276 0.407223 0.645640 0.153980
N6    N     N_2   0.716611 0.668612 0.103050 -0.546651
H41   H     H_    0.771494 0.710569 0.134540 0.235894
C70   C     C_3   0.844012 0.652608 0.054283 -0.399589
H42   H     H_    0.924397 0.713873 0.044781 0.201574
H43   H     H_    0.767446 0.635579 0.013200 0.221802
H44   H     H_    0.942622 0.598885 0.066171 0.230688
N7    N     N_2   0.237128 0.153144 0.394095 -0.514843
H45   H     H_    0.238780 0.212081 0.370943 0.241290
C71   C     C_3   0.049853 0.120937 0.402510 -0.427797
H46   H     H_    0.965843 0.172136 0.425755 0.226323
H47   H     H_    0.049184 0.059601 0.429833 0.251989
H48   H     H_    0.985292 0.106590 0.358744 0.156461
N8    N     N_2   0.288864 0.854155 0.892691 -0.507239
H49   H     H_    0.290137 0.794863 0.869902 0.239287
C72   C     C_3   0.473894 0.889881 0.899104 -0.427483
H50   H     H_    0.563493 0.840399 0.921594 0.216416
H51   H     H_    0.471453 0.951325 0.926316 0.248619
H52   H     H_    0.534433 0.905177 0.854666 0.155242

loop_
_geom_bond_atom_site_label_1
_geom_bond_atom_site_label_2
_ccdc_geom_bond_type
O17   V3    S    
C39   C43   A    
C26   C30   A    
C72   H50   S    
C23   C27   A    
O19   V1    S    
O13   V1    S    
O1    C5    A    
O3    C7    A    
C10   H6    S    
C40   C44   A    
C32   C40   A    
O15   V3    S    
C10   C58   A    
C70   H42   S    
C14   C54   A    
C11   C59   A    
O7    C3    A    
N5    C69   S    
C11   C43   A    
C36   C64   A    
C21   N5    S    
C32   C36   A    
O9    V1    S    
C9    C57   A    
N7    C71   S    
O16   V4    S    
O4    C8    A    
C69   H40   S    
C24   N8    S    
C25   H13   S    
C65   H22   S    
C57   F1    S    
O1    V3    S    
C30   C38   A    
O2    V4    S    
C71   H48   S    
C59   F3    S    
O3    V1    S    
C38   C42   A    
C66   H28   S    
C12   C44   A    
C40   C56   A    
C1    O15   A    
C2    O16   A    
C65   H23   S    
C19   C63   A    
O2    C6    A    
C68   H36   S    
C71   H46   S    
C16   C56   A    
C37   C41   A    
C54   N2    S    
C26   H14   S    
C11   H7    S    
O5    V1    S    
C48   C52   A    
C34   C62   A    
C12   C60   A    
O11   C7    A    
C22   N6    S    
C1    C14   S    
O12   C8    A    
C71   H47   S    
C35   C63   A    
C3    C16   S    
C15   C59   A    
O10   V2    S    
C4    C15   S    
C70   H43   S    
C23   N7    S    
C49   H17   S    
N2    C66   S    
C19   H11   S    
C31   C35   A    
C18   H10   S    
O7    V3    S    
C30   C34   A    
C36   C52   A    
C21   C25   A    
O18   V4    S    
C18   C62   A    
H2    C46   S    
H1    C45   S    
C20   H12   S    
C7    C61   S    
O8    V4    S    
C13   C53   A    
C67   H31   S    
O5    C1    A    
C8    C62   S    
C34   C50   A    
C46   C50   A    
C33   C49   A    
C45   C49   A    
O8    C4    A    
C65   H24   S    
C2    C13   S    
H4    C48   S    
O9    C5    A    
C18   C22   A    
C35   C51   A    
N2    H25   S    
C25   C29   A    
N8    C72   S    
C66   H26   S    
C10   C42   A    
C39   C55   A    
C9    C41   A    
O6    V2    S    
C31   C39   A    
C72   H52   S    
C16   C60   A    
C68   H34   S    
C12   H8    S    
C58   F2    S    
C67   H30   S    
C38   C54   A    
C55   N3    S    
C70   H44   S    
C37   C53   A    
N3    C67   S    
N1    H21   S    
C22   C26   A    
C29   C37   A    
N6    C70   S    
C3    O13   A    
C13   C57   A    
C6    C64   S    
C60   F4    S    
C44   C48   A    
N4    C68   S    
O6    C2    A    
C69   H38   S    
O11   V3    S    
C14   C58   A    
O12   V4    S    
C5    C63   S    
N5    H37   S    
C27   C31   A    
C28   C32   A    
C27   H15   S    
O10   C6    A    
C53   N1    S    
C67   H32   S    
C9    H5    S    
N7    H45   S    
C47   C51   A    
C69   H39   S    
N3    H29   S    
C17   C21   A    
O20   V2    S    
C33   C61   A    
C52   H20   S    
C51   H19   S    
C20   C64   A    
C19   C23   A    
C50   H18   S    
C29   C33   A    
N4    H33   S    
C66   H27   S    
O14   V2    S    
C17   H9    S    
C20   C24   A    
C24   C28   A    
C72   H51   S    
C42   C46   A    
C4    O14   A    
N8    H49   S    
C68   H35   S    
C41   C45   A    
C56   N4    S    
C17   C61   A    
C28   H16   S    
C43   C47   A    
O4    V2    S    
N6    H41   S    
H3    C47   S    
N1    C65   S    
C15   C55   A    
