data_mof_unit_44342.cif
_audit_creation_date              2012-12-11T16:49:19-0500
_audit_creation_method            fapswitch 2.2
_symmetry_space_group_name_H-M    P1
_symmetry_Int_Tables_number       1
_space_group_crystal_system       triclinic
_cell_length_a                    6.929106
_cell_length_b                    25.923916
_cell_length_c                    28.90397
_cell_angle_alpha                 89.784233
_cell_angle_beta                  90.062713
_cell_angle_gamma                 89.812076
_cell_volume                      5191.93954531

loop_
_atom_site_label
_atom_site_type_symbol
_atom_type_description
_atom_site_fract_x
_atom_site_fract_y
_atom_site_fract_z
_atom_type_partial_charge
O1    O     O_R   0.601010 0.796750 0.202520 -0.539014
O2    O     O_R   0.398990 0.203250 0.797480 -0.546077
O3    O     O_R   0.271260 0.802890 0.297300 -0.546450
O4    O     O_R   0.728740 0.197110 0.702700 -0.545102
O5    O     O_R   0.100940 0.703200 0.297630 -0.520975
O6    O     O_R   0.899060 0.296800 0.702370 -0.509202
C1    C     C_R   0.440161 0.815526 0.313227 0.678125
C2    C     C_R   0.559869 0.184558 0.686710 0.712416
O7    O     O_R   0.271300 0.802890 0.202860 -0.544823
O8    O     O_R   0.728700 0.197110 0.797140 -0.547031
O9    O     O_R   0.100980 0.703210 0.202520 -0.527940
O10   O     O_R   0.899020 0.296790 0.797480 -0.543153
C3    C     C_R   0.439912 0.815399 0.186938 0.716950
C4    C     C_R   0.560000 0.184466 0.813219 0.699543
O11   O     O_R   0.600970 0.796740 0.297640 -0.545113
O12   O     O_R   0.399030 0.203260 0.702360 -0.538731
O13   O     O_3   0.434500 0.717270 0.250080 -0.351454
O14   O     O_3   0.565500 0.282730 0.749920 -0.338119
V1    V     V_3+5 0.159650 0.756040 0.250080 1.447240
V2    V     V_3+5 0.840350 0.243960 0.749920 1.442117
O15   O     O_R   0.771260 0.697060 0.202850 -0.541520
O16   O     O_R   0.228740 0.302940 0.797150 -0.539319
C5    C     C_R   0.940546 0.684570 0.186762 0.738500
C6    C     C_R   0.059501 0.315642 0.813021 0.693338
O17   O     O_R   0.771230 0.697050 0.297300 -0.546351
O18   O     O_R   0.228770 0.302950 0.702700 -0.518995
C7    C     C_R   0.940847 0.683352 0.312389 0.771367
C8    C     C_R   0.059015 0.315090 0.685999 0.737010
V3    V     V_3+5 0.659640 0.743910 0.250080 1.439267
V4    V     V_3+5 0.340360 0.256090 0.749920 1.474971
O19   O     O_3   0.934660 0.782680 0.250080 -0.378939
O20   O     O_3   0.065340 0.217320 0.749920 -0.383804
C9    C     C_R   0.095954 0.604441 0.350854 -0.005651
C10   C     C_R   0.885611 0.357077 0.616568 0.005476
C11   C     C_R   0.108238 0.571238 0.389388 -0.320567
C12   C     C_R   0.883054 0.394180 0.581046 -0.239599
H1    H     H_    0.217619 0.541252 0.389848 0.146573
H2    H     H_    0.760057 0.395792 0.557822 0.171406
C13   C     C_R   0.977462 0.574558 0.426368 -0.057699
C14   C     C_R   0.036471 0.428543 0.574395 -0.081988
C15   C     C_R   0.829572 0.612110 0.424384 0.481015
C16   C     C_R   0.197182 0.425285 0.604309 0.468459
C17   C     C_R   0.820634 0.646670 0.386637 -0.283937
C18   C     C_R   0.200820 0.388178 0.640099 -0.222516
H3    H     H_    0.713832 0.677285 0.386908 0.131051
H4    H     H_    0.325590 0.386698 0.662625 0.185749
C19   C     C_R   0.952060 0.643634 0.349751 -0.119683
C20   C     C_R   0.046164 0.353913 0.647355 -0.158872
N1    N     N_R   0.834902 0.521572 0.489279 -0.231089
N2    N     N_R   0.182869 0.483553 0.513154 -0.219722
N3    N     N_R   0.849185 0.487313 0.523660 -0.266116
N4    N     N_R   0.168284 0.517520 0.478478 -0.313167
C21   C     C_R   0.023434 0.467629 0.536481 0.534166
C22   C     C_R   0.994041 0.537485 0.465878 0.535061
C23   C     C_R   0.123791 0.642371 0.122129 -0.129908
C24   C     C_R   0.877271 0.383391 0.857285 -0.137782
H5    H     H_    0.243979 0.667577 0.129814 0.157787
H6    H     H_    0.755900 0.377390 0.834275 0.161798
C25   C     C_R   0.141036 0.606448 0.085848 0.020152
C26   C     C_R   0.862163 0.420063 0.893070 0.033019
C27   C     C_R   0.984643 0.573149 0.075965 -0.022614
C28   C     C_R   0.020850 0.427619 0.923264 0.054760
C29   C     C_R   0.814961 0.577225 0.102346 -0.085706
C30   C     C_R   0.189281 0.398201 0.916920 -0.049905
H7    H     H_    0.693693 0.552253 0.095086 0.120948
H8    H     H_    0.311339 0.403288 0.939887 0.114323
C31   C     C_R   0.799102 0.613479 0.137990 -0.098535
C32   C     C_R   0.203524 0.362613 0.880759 -0.110662
H9    H     H_    0.666131 0.615488 0.157569 0.137448
H10   H     H_    0.336016 0.340795 0.876782 0.119682
C33   C     C_R   0.953739 0.646304 0.148504 -0.099632
C34   C     C_R   0.047455 0.354583 0.850660 -0.100379
C35   C     C_R   0.996337 0.481155 0.045345 0.001504
C36   C     C_R   0.016389 0.520010 0.953759 -0.008939
C37   C     C_R   0.005842 0.447389 0.007292 -0.169030
C38   C     C_R   0.001374 0.553595 0.991681 -0.224205
H11   H     H_    0.006777 0.406049 0.013062 0.164459
H12   H     H_    0.000416 0.594936 0.985781 0.129897
C39   C     C_R   0.015049 0.465947 0.961640 -0.010904
C40   C     C_R   0.993000 0.535050 0.037353 -0.020357
C41   C     C_R   0.369497 0.127164 0.633791 -0.160669
C42   C     C_R   0.630699 0.873073 0.365986 -0.157485
H13   H     H_    0.236944 0.139716 0.650123 0.117620
H14   H     H_    0.763229 0.860389 0.349725 0.120227
C43   C     C_R   0.358144 0.091536 0.597678 -0.142027
C44   C     C_R   0.642172 0.908835 0.401991 -0.138801
H15   H     H_    0.217573 0.077273 0.587648 0.099572
H16   H     H_    0.782815 0.923057 0.412007 0.100710
C45   C     C_R   0.525976 0.073961 0.575315 0.095419
C46   C     C_R   0.474391 0.926569 0.424277 0.094922
C47   C     C_R   0.705773 0.092779 0.590296 -0.138540
C48   C     C_R   0.294507 0.907809 0.409292 -0.137169
H17   H     H_    0.837781 0.080689 0.573457 0.099526
H18   H     H_    0.162513 0.920025 0.426065 0.099573
C49   C     C_R   0.717249 0.128322 0.626576 -0.165544
C50   C     C_R   0.282910 0.872144 0.373110 -0.157137
H19   H     H_    0.857905 0.142271 0.636912 0.114902
H20   H     H_    0.142180 0.858253 0.362770 0.116456
C51   C     C_R   0.549134 0.146084 0.648730 -0.062261
C52   C     C_R   0.450990 0.854171 0.351076 -0.051617
C53   C     C_R   0.651315 0.996788 0.531721 -0.150307
C54   C     C_R   0.349239 0.003814 0.467820 -0.147730
H21   H     H_    0.767793 0.992710 0.556478 0.111016
H22   H     H_    0.232752 0.007894 0.443067 0.113376
C55   C     C_R   0.638587 0.961301 0.495473 -0.148729
C56   C     C_R   0.361951 0.039295 0.504074 -0.149149
H23   H     H_    0.745732 0.930913 0.493356 0.111423
H24   H     H_    0.254775 0.069676 0.506206 0.111453
C57   C     C_R   0.487401 0.964326 0.463006 0.080788
C58   C     C_R   0.513118 0.036262 0.536543 0.079894
C59   C     C_R   0.375140 0.137471 0.875035 -0.193151
C60   C     C_R   0.319193 0.851315 0.111795 -0.183781
H25   H     H_    0.246233 0.158928 0.865841 0.138355
H26   H     H_    0.209273 0.821717 0.110864 0.132131
C61   C     C_R   0.365169 0.102146 0.911573 -0.165131
C62   C     C_R   0.332102 0.886452 0.075046 -0.176095
H27   H     H_    0.229695 0.097172 0.929661 0.188649
H28   H     H_    0.230802 0.883619 0.046623 0.138485
C63   C     C_R   0.527587 0.073176 0.924660 0.048645
C64   C     C_R   0.471892 0.925556 0.075296 0.062808
C65   C     C_R   0.702771 0.079884 0.900619 0.474889
C66   C     C_R   0.602685 0.928335 0.112645 0.479109
C67   C     C_R   0.713597 0.117198 0.864891 -0.262566
C68   C     C_R   0.591011 0.892318 0.149080 -0.246245
H29   H     H_    0.850385 0.124240 0.848027 0.131764
H30   H     H_    0.691022 0.895061 0.177803 0.134753
C69   C     C_R   0.549578 0.145711 0.851332 -0.105679
C70   C     C_R   0.449460 0.853673 0.148923 -0.102171
C71   C     C_R   0.539010 0.982717 0.954908 -0.273852
C72   C     C_R   0.455387 0.015745 0.044614 -0.256030
H31   H     H_    0.575334 0.970204 0.920305 0.142112
H32   H     H_    0.422577 0.028901 0.079271 0.167471
C73   C     C_R   0.520216 0.946027 0.990824 0.464306
C74   C     C_R   0.471013 0.052065 0.008662 0.461467
C75   C     C_R   0.482503 0.962924 0.036241 -0.050379
C76   C     C_R   0.511949 0.035514 0.963345 -0.022327
C77   C     C_2   0.232194 0.594862 0.312223 0.384487
H33   H     H_    0.367759 0.575091 0.318994 0.041453
O21   O     O_2   0.191661 0.606309 0.272371 -0.529501
C78   C     C_2   0.721878 0.320762 0.617537 0.379030
H34   H     H_    0.694266 0.296515 0.587754 0.023779
O22   O     O_2   0.608854 0.320292 0.649834 -0.514545
O23   O     O_3   0.865605 0.053539 0.915826 -0.557355
C79   C     C_3   0.947242 0.024987 0.879221 -0.292357
H35   H     H_    0.836364 0.003080 0.859504 0.128949
H36   H     H_    0.031192 0.050353 0.855698 0.141231
H37   H     H_    0.049716 0.996437 0.894127 0.171640
O24   O     O_3   0.736299 0.967734 0.114616 -0.556696
C80   C     C_3   0.915566 0.948485 0.099415 -0.232918
H38   H     H_    0.905914 0.933309 0.063485 0.145436
H39   H     H_    0.971588 0.918253 0.123366 0.140684
H40   H     H_    0.021231 0.980546 0.099123 0.172117
O25   O     O_3   0.555758 0.894088 0.983158 -0.546603
C81   C     C_3   0.426771 0.874985 0.949544 -0.243279
H41   H     H_    0.474765 0.885670 0.914150 0.133176
H42   H     H_    0.275542 0.888142 0.955551 0.124433
H43   H     H_    0.427053 0.832256 0.951683 0.177520
O26   O     O_3   0.441069 0.103748 0.017763 -0.553718
C82   C     C_3   0.616283 0.124948 0.033472 -0.193755
H44   H     H_    0.732078 0.121169 0.006990 0.150494
H45   H     H_    0.662962 0.106949 0.066693 0.150306
H46   H     H_    0.594004 0.166709 0.039847 0.167696
O27   O     O_3   0.707936 0.618759 0.461856 -0.547528
C83   C     C_3   0.518130 0.605850 0.448753 -0.156714
H47   H     H_    0.511495 0.566360 0.433817 0.146484
H48   H     H_    0.425885 0.606134 0.480087 0.191050
H49   H     H_    0.456863 0.634598 0.424129 0.110052
O28   O     O_3   0.355073 0.456861 0.597536 -0.537696
C84   C     C_3   0.346660 0.497528 0.629700 -0.173262
H50   H     H_    0.362418 0.483047 0.665798 0.130014
H51   H     H_    0.210650 0.520185 0.625921 0.127806
H52   H     H_    0.468649 0.524078 0.622845 0.180688
C85   C     C_2   0.323867 0.603690 0.059172 0.323030
H53   H     H_    0.352294 0.571636 0.036138 0.068844
O29   O     O_2   0.445383 0.637498 0.062432 -0.530703
C86   C     C_2   0.680522 0.449968 0.898568 0.373934
H54   H     H_    0.656409 0.473329 0.929078 0.048740
O30   O     O_2   0.555571 0.449250 0.868755 -0.508339
C87   C     C_2   0.995089 0.459650 0.093066 0.371009
H55   H     H_    0.001179 0.484897 0.122840 0.063256
O31   O     O_2   0.988267 0.413161 0.099829 -0.515123
C88   C     C_2   0.036915 0.543609 0.907095 0.403269
H56   H     H_    0.012474 0.584714 0.902628 0.043829
O32   O     O_2   0.085788 0.518391 0.873494 -0.495896

loop_
_geom_bond_atom_site_label_1
_geom_bond_atom_site_label_2
_ccdc_geom_bond_type
V4    O20   S    
C29   H7    S    
C23   C25   A    
O13   V3    S    
C84   H50   S    
C65   O23   S    
C11   C13   A    
O27   C83   S    
O4    C2    A    
V1    O19   S    
N1    N3    A    
C60   H26   S    
C83   H48   S    
C13   C15   A    
C85   H53   S    
C71   H31   S    
C77   O21   D    
O9    V1    S    
C36   C38   A    
C73   O25   S    
C30   C32   A    
C83   H47   S    
C11   H1    S    
C2    C51   S    
C38   H12   S    
O5    V1    S    
O3    C1    A    
C80   H39   S    
V2    O20   S    
C44   H16   S    
C67   H29   S    
C13   C22   S    
C27   C40   S    
O12   V4    S    
N1    C22   A    
C48   C50   A    
C26   C28   A    
C10   C78   S    
C27   C29   A    
O7    C3    A    
C88   H56   S    
C28   C30   A    
O13   V1    S    
O5    C7    A    
C3    C70   S    
C46   C48   A    
O7    V1    S    
O6    C8    A    
C72   C75   A    
C16   O28   S    
C24   C34   A    
C50   H20   S    
N2    N4    A    
C82   H45   S    
O3    V1    S    
O14   V4    S    
C66   O24   S    
O18   C8    A    
C45   C47   A    
C17   C19   A    
C15   C17   A    
O14   V2    S    
C68   C70   A    
C56   H24   S    
C14   C16   A    
C53   H21   S    
O17   V3    S    
C35   C37   A    
C8    C20   S    
C72   C74   A    
C16   C18   A    
C79   H37   S    
O1    V3    S    
C6    C34   S    
C41   H13   S    
N4    C22   A    
O11   V3    S    
C63   C65   A    
O15   C5    A    
C53   C55   A    
C29   C31   A    
C25   C27   A    
N2    C21   A    
C60   C70   A    
C1    C52   S    
C43   H15   S    
C5    C33   S    
C28   C39   S    
C12   C14   A    
O24   C80   S    
C81   H43   S    
C79   H36   S    
O8    C4    A    
C80   H40   S    
C9    C77   S    
C43   C45   A    
C74   C76   A    
C1    O11   A    
C41   C51   A    
C61   H27   S    
C53   C58   A    
C42   C44   A    
C24   H6    S    
O15   V3    S    
C45   C58   S    
C4    C69   S    
C24   C26   A    
C31   H9    S    
O4    V2    S    
C23   C33   A    
C72   H32   S    
C47   H17   S    
C71   C76   A    
C55   H23   S    
C67   C69   A    
C82   H44   S    
C32   C34   A    
O10   V2    S    
C48   H18   S    
C82   H46   S    
C59   H25   S    
C78   H34   S    
C54   H22   S    
C17   H3    S    
C81   H41   S    
C85   O29   D    
C71   C73   A    
C32   H10   S    
C86   H54   S    
C74   O26   S    
O18   V4    S    
C61   C63   A    
C36   C39   A    
C15   O27   S    
C44   C46   A    
O26   C82   S    
C9    C19   A    
C84   H52   S    
O16   C6    A    
O1    C3    A    
C66   C68   A    
C12   H2    S    
C60   C62   A    
C64   C66   A    
C68   H30   S    
C56   C58   A    
C7    C19   S    
C55   C57   A    
O28   C84   S    
O16   V4    S    
C81   H42   S    
C83   H49   S    
C49   C51   A    
C38   C40   A    
C78   O22   D    
C79   H35   S    
C25   C85   S    
C49   H19   S    
C36   C88   S    
O17   C7    A    
O6    V2    S    
C77   H33   S    
O10   C6    A    
C42   H14   S    
C63   C76   S    
O2    V4    S    
C42   C52   A    
C64   C75   S    
C23   H5    S    
V3    O19   S    
C18   C20   A    
C80   H38   S    
C59   C69   A    
O8    V2    S    
C26   C86   S    
C50   C52   A    
O9    C5    A    
C9    C11   A    
C35   C40   A    
C62   H28   S    
C54   C56   A    
C31   C33   A    
O2    C4    A    
C88   O32   D    
C65   C67   A    
C47   C49   A    
C87   H55   S    
C35   C87   S    
C62   C64   A    
C10   C20   A    
C10   C12   A    
C2    O12   A    
C14   C21   S    
C37   H11   S    
C73   C75   A    
C54   C57   A    
C59   C61   A    
C46   C57   S    
N3    C21   A    
O25   C81   S    
C37   C39   A    
C18   H4    S    
C41   C43   A    
O23   C79   S    
C30   H8    S    
C86   O30   D    
C87   O31   D    
C84   H51   S    
