data_mof_unit_34225.cif
_audit_creation_date              2012-10-26T21:20:09-0400
_audit_creation_method            fapswitch 2.2
_symmetry_space_group_name_H-M    P1
_symmetry_Int_Tables_number       1
_space_group_crystal_system       triclinic
_cell_length_a                    12.994379
_cell_length_b                    10.879652
_cell_length_c                    9.515495
_cell_angle_alpha                 90.899743
_cell_angle_beta                  96.469119
_cell_angle_gamma                 90.529693
_cell_volume                      1336.43415542

loop_
_atom_site_label
_atom_site_type_symbol
_atom_type_description
_atom_site_fract_x
_atom_site_fract_y
_atom_site_fract_z
_atom_type_partial_charge
C1    C     C_R   0.499692 0.262057 0.498641 0.564423
C2    C     C_R   0.699606 0.499808 0.526563 0.542400
C3    C     C_R   0.812448 0.497807 0.541816 0.005656
C4    C     C_R   0.187552 0.502192 0.458184 0.005656
C5    C     C_R   0.023840 0.529831 0.314485 -0.142823
C6    C     C_R   0.976160 0.470167 0.685515 -0.142823
C7    C     C_R   0.131381 0.525275 0.326745 -0.138694
C8    C     C_R   0.868619 0.474723 0.673255 -0.138694
C9    C     C_R   0.135537 0.483439 0.577477 -0.126213
C10   C     C_R   0.864463 0.516560 0.422523 -0.126213
C11   C     C_R   0.028135 0.488292 0.566271 0.049855
C12   C     C_R   0.500307 0.737943 0.501359 0.564423
C13   C     C_R   0.971865 0.511706 0.433728 0.049855
C14   C     C_R   0.514222 0.060185 0.373215 0.247749
C15   C     C_R   0.485778 0.939815 0.626785 0.247749
C16   C     C_R   0.517382 0.932599 0.379334 -0.174439
C17   C     C_R   0.482619 0.067401 0.620666 -0.174439
C18   C     C_3   0.450015 0.094611 0.144501 -0.079730
C19   C     C_3   0.549987 0.905390 0.855499 -0.079729
C20   C     C_3   0.259820 0.351044 0.049784 -0.167606
C21   C     C_3   0.740181 0.648952 0.950214 -0.167604
C22   C     C_R   0.500831 0.871852 0.503525 -0.017420
C23   C     C_R   0.499169 0.128148 0.496475 -0.017420
C24   C     C_R   0.427495 0.432114 0.063026 0.389271
C25   C     C_R   0.572505 0.567886 0.936974 0.389271
C26   C     C_R   0.429613 0.431022 0.912926 -0.038336
C27   C     C_R   0.570387 0.568978 0.087074 -0.038335
C28   C     C_R   0.300394 0.500191 0.473437 0.542400
Cu1   Cu    Cu3+1 0.500000 0.500020 0.640660 1.016466
Cu2   Cu    Cu3+1 0.500000 0.499980 0.359340 1.016466
H1    H     H_    0.533604 0.881101 0.286142 0.136937
H2    H     H_    0.374345 0.118663 0.181669 0.151717
H3    H     H_    0.448431 0.997213 0.107623 0.089465
H4    H     H_    0.625657 0.881335 0.818330 0.151720
H5    H     H_    0.551572 0.002789 0.892374 0.089464
H6    H     H_    0.539633 0.847719 0.948064 0.150797
H7    H     H_    0.259263 0.278273 0.966526 0.094112
H8    H     H_    0.233512 0.440452 0.003649 0.096600
H9    H     H_    0.202943 0.322616 0.121954 0.145185
H10   H     H_    0.766488 0.559542 0.996347 0.096599
H11   H     H_    0.740742 0.721723 0.033475 0.094111
H12   H     H_    0.466397 0.118899 0.713858 0.136937
H13   H     H_    0.797058 0.677379 0.878044 0.145184
H14   H     H_    0.375973 0.374457 0.844450 0.107955
H15   H     H_    0.624027 0.625543 0.155549 0.107956
H16   H     H_    0.821557 0.534843 0.320624 0.112291
H17   H     H_    0.178443 0.465156 0.679376 0.112291
H18   H     H_    0.829487 0.458639 0.765969 0.132567
H19   H     H_    0.170513 0.541358 0.234031 0.132569
H20   H     H_    0.981464 0.548058 0.212318 0.094281
H21   H     H_    0.018536 0.451939 0.787682 0.094281
H22   H     H_    0.460368 0.152283 0.051936 0.150796
N1    N     N_R   0.500030 0.500030 0.852080 -0.235220
N2    N     N_R   0.499970 0.499970 0.147920 -0.235220
O1    O     O_R   0.499990 0.319660 0.618740 -0.542115
O2    O     O_3   0.466607 0.881622 0.749786 -0.539317
O3    O     O_3   0.358418 0.360357 0.128641 -0.534987
O4    O     O_3   0.641581 0.639644 0.871359 -0.534987
O5    O     O_R   0.500010 0.680340 0.381260 -0.542114
O6    O     O_R   0.499990 0.319630 0.381170 -0.403955
O7    O     O_R   0.500010 0.680370 0.618830 -0.403954
O8    O     O_R   0.349000 0.499990 0.599490 -0.524705
O9    O     O_R   0.651000 0.500010 0.400510 -0.524705
O10   O     O_R   0.348990 0.499960 0.361920 -0.462168
O11   O     O_R   0.651010 0.500040 0.638080 -0.462170
O12   O     O_3   0.533394 0.118378 0.250214 -0.539317

loop_
_geom_bond_atom_site_label_1
_geom_bond_atom_site_label_2
_ccdc_geom_bond_type
C14   C23   A    
C10   H16   S    
C6    C8    A    
C8    H18   S    
C1    C23   S    
Cu1   Cu2   S    
C20   H7    S    
Cu2   O10   S    
C6    H21   S    
C18   O12   S    
Cu2   N2    S    
C5    C13   A    
C19   O2    S    
C4    C9    A    
C2    O11   A    
C15   O2    S    
C27   H15   S    
C2    C3    S    
C14   O12   S    
C27   N2    A    
C26   H14   S    
C21   O4    S    
C3    C10   A    
C19   H5    S    
Cu2   O9    S    
Cu2   O5    S    
C16   H1    S    
C12   O7    A    
C9    C11   A    
C17   C23   A    
C21   H10   S    
Cu1   N1    S    
C4    C7    A    
Cu1   O11   S    
C28   O10   A    
Cu2   O6    S    
C4    C28   S    
C25   N1    A    
C18   H2    S    
C9    H17   S    
Cu1   O7    S    
C19   H6    S    
C1    O1    A    
C18   H3    S    
C14   C16   A    
C5    H20   S    
C25   C27   A    
C25   O4    S    
C18   H22   S    
C26   N1    A    
C12   C22   S    
C11   C13   A    
C20   H8    S    
C2    O9    A    
C7    H19   S    
C5    C7    A    
C3    C8    A    
C21   H11   S    
C1    O6    A    
C6    C11   A    
C15   C17   A    
C20   H9    S    
C17   H12   S    
C16   C22   A    
Cu1   O1    S    
C20   O3    S    
Cu1   O8    S    
C12   O5    A    
C24   N2    A    
C10   C13   A    
C15   C22   A    
C21   H13   S    
C24   C26   A    
C24   O3    S    
C19   H4    S    
C28   O8    A    
