data_mof_unit_45847.cif
_audit_creation_date              2012-12-11T16:06:23-0500
_audit_creation_method            fapswitch 2.2
_symmetry_space_group_name_H-M    P1
_symmetry_Int_Tables_number       1
_space_group_crystal_system       triclinic
_cell_length_a                    7.201205
_cell_length_b                    14.466376
_cell_length_c                    15.782536
_cell_angle_alpha                 90.0
_cell_angle_beta                  89.999126
_cell_angle_gamma                 89.999966
_cell_volume                      1644.15104078

loop_
_atom_site_label
_atom_site_type_symbol
_atom_type_description
_atom_site_fract_x
_atom_site_fract_y
_atom_site_fract_z
_atom_type_partial_charge
O1    O     O_R   0.388780 0.834790 0.412340 -0.538130
O2    O     O_R   0.111220 0.165210 0.912340 -0.536950
O3    O     O_R   0.888780 0.665210 0.587660 -0.536977
O4    O     O_R   0.611220 0.334790 0.087660 -0.537034
O5    O     O_R   0.059040 0.845930 0.587040 -0.540313
O6    O     O_R   0.440960 0.154070 0.087040 -0.541580
O7    O     O_R   0.559040 0.654070 0.412960 -0.540427
O8    O     O_R   0.940960 0.345930 0.912960 -0.540429
C1    C     C_R   0.228056 0.867990 0.615391 0.643236
C2    C     C_R   0.272339 0.132003 0.115330 0.643402
C3    C     C_R   0.728068 0.632013 0.384608 0.643011
C4    C     C_R   0.771941 0.367991 0.884610 0.643029
O9    O     O_R   0.059070 0.845930 0.412970 -0.540396
O10   O     O_R   0.440930 0.154070 0.912970 -0.541665
O11   O     O_R   0.559070 0.654070 0.587030 -0.541547
O12   O     O_R   0.940930 0.345930 0.087030 -0.541547
O13   O     O_R   0.888760 0.665210 0.412340 -0.538128
O14   O     O_R   0.611240 0.334790 0.912340 -0.538186
O15   O     O_R   0.388760 0.834790 0.587660 -0.538213
O16   O     O_R   0.111240 0.165210 0.087660 -0.537032
C5    C     C_R   0.228086 0.867985 0.384610 0.643138
C6    C     C_R   0.272311 0.132005 0.884673 0.643308
C7    C     C_R   0.727686 0.632003 0.615326 0.643517
C8    C     C_R   0.772320 0.367997 0.115326 0.643518
O17   O     O_3   0.222280 0.690700 0.500000 -0.372163
O18   O     O_3   0.277720 0.309300 0.000000 -0.372299
O19   O     O_3   0.722280 0.809300 0.500000 -0.372347
O20   O     O_3   0.777720 0.190700 0.000000 -0.372123
V1    V     V_3+5 0.947430 0.761000 0.500000 1.358475
V2    V     V_3+5 0.552570 0.239000 0.000000 1.357340
V3    V     V_3+5 0.447430 0.739000 0.500000 1.357098
V4    V     V_3+5 0.052570 0.261000 0.000000 1.358726
C9    C     C_3   0.832853 0.604172 0.766429 -0.320201
C10   C     C_3   0.667279 0.395825 0.266445 -0.320448
C11   C     C_3   0.445648 0.956479 0.286487 -0.305177
C12   C     C_3   0.167104 0.104169 0.733573 -0.320217
H1    H     H_    0.975040 0.628488 0.750085 0.136273
H2    H     H_    0.525097 0.371492 0.250122 0.136034
H3    H     H_    0.526119 0.982604 0.341757 0.137942
H4    H     H_    0.024920 0.128484 0.749923 0.136278
C13   C     C_3   0.845625 0.532524 0.839711 -0.326309
C14   C     C_3   0.654500 0.467473 0.339725 -0.326430
C15   C     C_3   0.458171 0.027592 0.213735 -0.318331
C16   C     C_3   0.154313 0.032517 0.660293 -0.326157
H5    H     H_    0.771660 0.559633 0.896416 0.115047
H6    H     H_    0.728518 0.440380 0.396420 0.115137
H7    H     H_    0.529903 0.995389 0.158660 0.134971
H8    H     H_    0.228226 0.059630 0.603577 0.115101
H9    H     H_    0.993742 0.522892 0.857783 0.138175
H10   H     H_    0.506388 0.477083 0.357816 0.138184
H11   H     H_    0.544176 0.087317 0.234711 0.133821
H12   H     H_    0.006190 0.022873 0.642238 0.138299
H13   H     H_    0.014022 0.391385 0.748857 0.137030
H14   H     H_    0.485984 0.608580 0.248882 0.136805
H15   H     H_    0.247557 0.165562 0.288124 0.114948
H16   H     H_    0.985989 0.891363 0.751158 0.137020
C17   C     C_3   0.852577 0.475334 0.659775 -0.321206
C18   C     C_3   0.647415 0.524651 0.159786 -0.321369
C19   C     C_3   0.154573 0.032538 0.339742 -0.326227
C20   C     C_3   0.147419 0.975332 0.840231 -0.321100
C21   C     C_3   0.541865 0.527665 0.713795 -0.318354
C22   C     C_3   0.958176 0.472362 0.213769 -0.318304
C23   C     C_3   0.134481 0.903813 0.233152 -0.325346
C24   C     C_3   0.458117 0.027677 0.786196 -0.318366
C25   C     C_3   0.738172 0.561466 0.686983 0.125586
C26   C     C_3   0.761869 0.438537 0.186982 0.125830
C27   C     C_3   0.240084 0.938513 0.312860 0.124529
C28   C     C_3   0.261811 0.061468 0.813016 0.125600
H17   H     H_    0.470021 0.495477 0.658744 0.135127
H18   H     H_    0.029983 0.504550 0.158706 0.135082
H19   H     H_    0.985894 0.891460 0.248919 0.136803
H20   H     H_    0.529982 0.995491 0.841242 0.135012
H21   H     H_    0.455965 0.587419 0.734787 0.133524
H22   H     H_    0.044108 0.412617 0.234760 0.133781
H23   H     H_    0.193797 0.836662 0.211920 0.115398
H24   H     H_    0.544001 0.087436 0.765200 0.133539
C29   C     C_3   0.759959 0.438521 0.812863 0.124424
C30   C     C_3   0.740086 0.561484 0.312860 0.124701
C31   C     C_3   0.261868 0.061461 0.186984 0.125744
C32   C     C_3   0.240024 0.938521 0.687138 0.124269
C33   C     C_3   0.865429 0.403779 0.733130 -0.325126
C34   C     C_3   0.634574 0.596206 0.233138 -0.325348
C35   C     C_3   0.167375 0.104191 0.266465 -0.320445
C36   C     C_3   0.134581 0.903772 0.766878 -0.325167
C37   C     C_3   0.554388 0.456559 0.786551 -0.305167
C38   C     C_3   0.945654 0.543480 0.286520 -0.305115
C39   C     C_3   0.147303 0.975374 0.159802 -0.321161
C40   C     C_3   0.445594 0.956573 0.713441 -0.305200
H25   H     H_    0.474038 0.482721 0.841845 0.137965
H26   H     H_    0.026060 0.517340 0.341804 0.138039
H27   H     H_    0.212797 0.942486 0.103499 0.114059
H28   H     H_    0.525926 0.982740 0.658143 0.137888
H29   H     H_    0.488207 0.390775 0.765825 0.131827
H30   H     H_    0.011767 0.609276 0.265776 0.132011
H31   H     H_    0.004667 0.996672 0.140948 0.141967
H32   H     H_    0.511798 0.890792 0.734162 0.131837
H33   H     H_    0.786931 0.442457 0.603504 0.114145
H34   H     H_    0.713018 0.557532 0.103505 0.114103
H35   H     H_    0.006461 0.022954 0.357847 0.138262
H36   H     H_    0.213057 0.942462 0.896507 0.114057
H37   H     H_    0.806043 0.336635 0.711923 0.115528
H38   H     H_    0.693949 0.663350 0.211923 0.115389
H39   H     H_    0.025205 0.128564 0.250167 0.136008
H40   H     H_    0.193996 0.836635 0.788085 0.115511
H41   H     H_    0.752832 0.665587 0.788103 0.114785
H42   H     H_    0.747381 0.334432 0.288110 0.114947
H43   H     H_    0.511696 0.890669 0.265735 0.132011
H44   H     H_    0.247115 0.165584 0.711891 0.114814
H45   H     H_    0.995209 0.496582 0.640867 0.141870
H46   H     H_    0.504784 0.503386 0.140898 0.141826
H47   H     H_    0.228619 0.059615 0.396437 0.115137
H48   H     H_    0.004785 0.996575 0.859140 0.141959

loop_
_geom_bond_atom_site_label_1
_geom_bond_atom_site_label_2
_ccdc_geom_bond_type
O17   V3    S    
C40   H32   S    
O1    C5    A    
C39   H27   S    
O19   V1    S    
C19   H35   S    
O3    C7    A    
C10   C14   S    
C32   C36   S    
O15   V3    S    
C10   C26   S    
C31   C39   S    
C9    C25   S    
C33   H37   S    
O7    C3    A    
C22   C38   S    
C35   H39   S    
C24   C28   S    
O2    V4    S    
O9    V1    S    
C19   C35   S    
C18   C34   S    
C13   C29   S    
O4    C8    A    
C12   H44   S    
C15   C31   S    
O1    V3    S    
O13   V1    S    
C22   H18   S    
H13   C33   S    
C14   H6    S    
O3    V1    S    
C38   H30   S    
C19   C27   S    
C37   H29   S    
C18   C26   S    
C17   H45   S    
C40   H28   S    
C2    O16   A    
C39   H31   S    
O2    C6    A    
C19   H47   S    
O14   V2    S    
C29   C33   S    
C11   C15   S    
C8    C26   S    
C16   H12   S    
O11   C7    A    
C29   C37   S    
O12   C8    A    
C10   H2    S    
C5    C27   S    
O10   V2    S    
C13   H9    S    
C1    O15   A    
H16   C36   S    
O5    V1    S    
C34   H38   S    
C23   C27   S    
O7    V3    S    
C22   C26   S    
C10   H42   S    
C12   H4    S    
C9    H41   S    
C38   H26   S    
C37   H25   S    
O18   V4    S    
C21   H21   S    
C9    H1    S    
C1    C32   S    
O8    V4    S    
C11   H3    S    
O5    C1    A    
C20   H48   S    
C3    C30   S    
C30   C34   S    
C16   C32   S    
O8    C4    A    
C17   H33   S    
C4    C29   S    
C24   H24   S    
O9    C5    A    
C6    C28   S    
C21   C37   S    
C14   H10   S    
O6    V2    S    
C23   H19   S    
C14   C30   S    
C36   H40   S    
C17   C33   S    
C12   C16   S    
H15   C35   S    
H14   C34   S    
O16   V4    S    
C21   H17   S    
C3    O13   A    
C23   C39   S    
C18   H46   S    
C17   C25   S    
C20   H36   S    
O6    C2    A    
C2    C31   S    
C12   C28   S    
O11   V3    S    
C18   H34   S    
O12   V4    S    
C9    C13   S    
C7    C25   S    
O20   V2    S    
C32   C40   S    
C31   C35   S    
C20   C36   S    
O10   C6    A    
C23   H23   S    
C15   H11   S    
C24   H20   S    
C11   H43   S    
C11   C27   S    
C21   C25   S    
C20   C28   S    
C30   C38   S    
C4    O14   A    
C13   H5    S    
C22   H22   S    
C15   H7    S    
C24   C40   S    
O4    V2    S    
C16   H8    S    
