data_mof_unit_43240.cif
_audit_creation_date              2012-12-10T17:27:54-0500
_audit_creation_method            fapswitch 2.2
_symmetry_space_group_name_H-M    P1
_symmetry_Int_Tables_number       1
_space_group_crystal_system       triclinic
_cell_length_a                    10.629357
_cell_length_b                    12.002617
_cell_length_c                    12.877655
_cell_angle_alpha                 93.270589
_cell_angle_beta                  90.237254
_cell_angle_gamma                 86.448308
_cell_volume                      1637.10585255

loop_
_atom_site_label
_atom_site_type_symbol
_atom_type_description
_atom_site_fract_x
_atom_site_fract_y
_atom_site_fract_z
_atom_type_partial_charge
C1    C     C_R   0.499663 0.521977 0.700389 0.883312
C2    C     C_R   0.458380 0.636665 0.862536 -0.168608
C3    C     C_R   0.537039 0.442153 0.867345 -0.215468
C4    C     C_R   0.739481 0.499922 0.496886 0.863646
C5    C     C_R   0.527636 0.447853 0.974343 0.130532
C6    C     C_R   0.482632 0.549947 0.025508 0.093711
C7    C     C_R   0.471148 0.556961 0.131847 -0.257579
C8    C     C_R   0.549231 0.362708 0.138856 -0.342185
C9    C     C_R   0.560815 0.353407 0.030770 0.439805
C10   C     C_R   0.384505 0.955309 0.403482 -0.424704
C11   C     C_R   0.394091 0.838420 0.411791 0.623984
C12   C     C_R   0.938017 0.435542 0.409804 0.094695
C13   C     C_R   0.550370 0.857162 0.543140 -0.109151
C14   C     C_R   0.541754 0.975594 0.539949 0.059751
C15   C     C_R   0.458439 0.024065 0.466915 0.022101
C16   C     C_R   0.501509 0.477973 0.299609 0.887143
C17   C     C_R   0.450620 0.140930 0.458386 -0.014397
C18   C     C_R   0.603811 0.163558 0.590479 -0.064547
C19   C     C_R   0.614145 0.047721 0.604593 -0.090660
C20   C     C_R   0.260516 0.499279 0.497126 0.873113
C21   C     C_R   0.876530 0.375321 0.328844 -0.177428
C22   C     C_R   0.945989 0.314357 0.250851 -0.128019
C23   C     C_R   0.871632 0.499820 0.489327 -0.096638
C24   C     C_R   0.076999 0.313259 0.251454 -0.135197
C25   C     C_R   0.139005 0.373233 0.329974 -0.182826
C26   C     C_R   0.069976 0.434543 0.410347 0.098196
C27   C     C_2   0.699145 0.009456 0.688877 0.386422
C28   C     C_R   0.931508 0.565351 0.564523 -0.203795
C29   C     C_R   0.060070 0.564447 0.565017 -0.193195
C30   C     C_R   0.128313 0.498062 0.490295 -0.090540
C31   C     C_R   0.505665 0.464448 0.188362 -0.098921
C32   C     C_R   0.499900 0.535092 0.811720 -0.093263
C33   C     C_R   0.449743 0.644079 0.969781 -0.175076
H1    H     H_    0.878503 0.615153 0.624318 0.162125
H2    H     H_    0.130737 0.266738 0.190320 0.142264
H3    H     H_    0.240636 0.372287 0.325984 0.144923
H4    H     H_    0.106829 0.613872 0.625015 0.154801
H5    H     H_    0.436114 0.635335 0.170654 0.195624
H6    H     H_    0.576415 0.291704 0.184126 0.159388
H7    H     H_    0.415924 0.722518 0.008952 0.147360
H8    H     H_    0.623258 0.197309 0.031033 0.337067
H9    H     H_    0.778015 0.058462 0.712347 0.073649
H10   H     H_    0.266974 0.814756 0.305280 0.307251
H11   H     H_    0.429840 0.708988 0.819492 0.176190
H12   H     H_    0.571408 0.364623 0.826856 0.209326
H13   H     H_    0.386806 0.178944 0.402922 0.126293
H14   H     H_    0.658507 0.219681 0.638551 0.135144
H15   H     H_    0.319748 0.992223 0.347988 0.146356
H16   H     H_    0.616197 0.814821 0.593653 0.202510
H17   H     H_    0.774933 0.376101 0.323987 0.147853
H18   H     H_    0.897926 0.268753 0.189225 0.144089
N1    N     N_R   0.523130 0.207800 0.519340 -0.101665
N2    N     N_R   0.476870 0.792180 0.480660 -0.126293
O1    O     O_R   0.506170 0.421690 0.658830 -0.622266
O2    O     O_2   0.678678 0.927999 0.737267 -0.576247
O3    O     O_3   0.321547 0.768917 0.351182 -0.748455
O4    O     O_R   0.491330 0.609320 0.646410 -0.623684
O5    O     O_R   0.690660 0.406170 0.506210 -0.626515
O6    O     O_R   0.675810 0.593790 0.493790 -0.620739
O7    O     O_R   0.508670 0.390680 0.353590 -0.648893
O8    O     O_R   0.493830 0.578310 0.341170 -0.574757
O9    O     O_R   0.324190 0.406210 0.506210 -0.626807
O10   O     O_R   0.309340 0.593830 0.493790 -0.565839
O11   O     O_3   0.604467 0.254297 0.979399 -0.785484
Zn1   Zn    Zn3+2 0.509910 0.374720 0.508290 0.942295
Zn2   Zn    Zn3+2 0.490090 0.625280 0.491710 0.998925

loop_
_geom_bond_atom_site_label_1
_geom_bond_atom_site_label_2
_ccdc_geom_bond_type
C2    H11   S    
C1    O1    A    
C5    C9    A    
C6    C7    A    
C8    H6    S    
C1    O4    A    
C9    O11   S    
C19   C27   S    
O5    Zn1   S    
C27   H9    S    
C6    C33   A    
O4    Zn2   S    
C18   H14   S    
C20   O10   A    
O10   Zn2   S    
C18   N1    A    
O1    Zn1   S    
C20   C30   S    
C21   C22   A    
C24   C25   A    
C16   C31   S    
C10   H15   S    
N2    Zn2   S    
C8    C31   A    
C12   C23   A    
C29   C30   A    
C12   C21   A    
C13   H16   S    
C5    C6    A    
C14   C19   A    
C17   N1    A    
C28   C29   A    
O9    Zn1   S    
C7    H5    S    
O7    Zn1   S    
C26   C30   A    
C13   N2    A    
C10   C15   A    
O6    Zn2   S    
C20   O9    A    
C3    C32   A    
C22   C24   A    
C22   H18   S    
C33   H7    S    
C7    C31   A    
C16   O8    A    
C27   O2    D    
C25   H3    S    
C28   H1    S    
C24   H2    S    
H10   O3    S    
N1    Zn1   S    
C17   H13   S    
C4    O6    A    
C2    C32   A    
C18   C19   A    
C10   C11   A    
C12   C26   A    
C29   H4    S    
C15   C17   A    
C4    C23   S    
C14   C15   A    
C21   H17   S    
H8    O11   S    
C4    O5    A    
C25   C26   A    
C13   C14   A    
C16   O7    A    
O8    Zn2   S    
C3    H12   S    
C1    C32   S    
C23   C28   A    
C11   O3    S    
C2    C33   A    
C8    C9    A    
C3    C5    A    
C11   N2    A    
