data_mof_unit_20513.cif
_audit_creation_date              2012-12-11T15:35:21-0500
_audit_creation_method            fapswitch 2.2
_symmetry_space_group_name_H-M    P1
_symmetry_Int_Tables_number       1
_space_group_crystal_system       triclinic
_cell_length_a                    17.282623
_cell_length_b                    24.441759
_cell_length_c                    14.877488
_cell_angle_alpha                 89.258451
_cell_angle_beta                  125.205587
_cell_angle_gamma                 90.916982
_cell_volume                      5134.29484534

loop_
_atom_site_label
_atom_site_type_symbol
_atom_type_description
_atom_site_fract_x
_atom_site_fract_y
_atom_site_fract_z
_atom_type_partial_charge
C1    C     C_R   0.343457 0.148785 0.907057 -0.010284
C2    C     C_R   0.353247 0.848273 0.905693 -0.099866
C3    C     C_R   0.843457 0.648785 0.907057 -0.010285
C4    C     C_R   0.853247 0.348273 0.905693 -0.099865
C5    C     C_R   0.687248 0.128848 0.091086 0.496493
C6    C     C_R   0.684169 0.869403 0.088697 0.541791
C7    C     C_R   0.187248 0.628848 0.091086 0.496493
C8    C     C_R   0.184169 0.369403 0.088697 0.541791
C9    C     C_R   0.592662 0.873331 0.904925 -0.163075
C10   C     C_R   0.597578 0.124609 0.907528 -0.128388
C11   C     C_R   0.092662 0.373331 0.904925 -0.163079
C12   C     C_R   0.097578 0.624609 0.907528 -0.128388
C13   C     C_R   0.434977 0.999979 0.632215 0.027627
C14   C     C_R   0.934977 0.499979 0.632215 0.027628
C15   C     C_R   0.793609 0.002023 0.374282 0.028397
C16   C     C_R   0.293609 0.502023 0.374282 0.028396
C17   C     C_R   0.687538 0.137818 0.997562 0.013550
C18   C     C_R   0.678200 0.856968 0.993684 0.081537
C19   C     C_R   0.187538 0.637818 0.997562 0.013550
C20   C     C_R   0.178201 0.356968 0.993684 0.081538
C21   C     C_3   0.014810 0.948565 0.647960 0.387763
C22   C     C_3   0.021693 0.055514 0.644265 0.331923
C23   C     C_3   0.514810 0.448565 0.647960 0.387762
C24   C     C_3   0.521693 0.555514 0.644266 0.331924
C25   C     C_3   0.906441 0.954781 0.558134 0.352192
C26   C     C_3   0.917754 0.058598 0.538445 0.379550
C27   C     C_3   0.406441 0.454781 0.558134 0.352194
C28   C     C_3   0.417754 0.558598 0.538446 0.379550
C29   C     C_3   0.059440 0.998840 0.535135 -0.616097
C30   C     C_3   0.559440 0.498840 0.535135 -0.616098
C31   C     C_3   0.069514 0.000475 0.646203 -0.148284
C32   C     C_3   0.569514 0.500475 0.646203 -0.148284
C33   C     C_3   0.890641 0.002391 0.477417 -0.008020
C34   C     C_3   0.390641 0.502391 0.477417 -0.008020
C35   C     C_R   0.440611 0.846424 0.087920 -0.047334
C36   C     C_R   0.437219 0.149730 0.091550 -0.015674
C37   C     C_R   0.940612 0.346424 0.087920 -0.047334
C38   C     C_R   0.937219 0.649730 0.091550 -0.015673
C39   C     C_3   0.956147 0.994057 0.438972 -0.517518
C40   C     C_3   0.456147 0.494057 0.438972 -0.517518
C41   C     C_R   0.276499 0.733040 0.887330 0.420252
C42   C     C_R   0.348625 0.275241 0.978955 0.404779
C43   C     C_R   0.776499 0.233040 0.887330 0.420251
C44   C     C_R   0.848625 0.775241 0.978955 0.404778
C45   C     C_R   0.740469 0.181946 0.889153 0.385692
C46   C     C_R   0.797633 0.821111 0.970219 0.355830
C47   C     C_R   0.240469 0.681946 0.889153 0.385693
C48   C     C_R   0.297633 0.321111 0.970219 0.355828
C49   C     C_R   0.761635 0.163108 0.990150 -0.141868
C50   C     C_R   0.724078 0.812937 0.982987 -0.169139
C51   C     C_R   0.261635 0.663109 0.990150 -0.141868
C52   C     C_R   0.224078 0.312937 0.982987 -0.169140
C53   C     C_R   0.850100 0.176711 0.084359 -0.166884
C54   C     C_R   0.694137 0.761316 0.992021 -0.247664
C55   C     C_R   0.350100 0.676711 0.084359 -0.166884
C56   C     C_R   0.194137 0.261317 0.992021 -0.247663
C57   C     C_R   0.401018 0.720765 0.081835 0.472309
C58   C     C_R   0.247276 0.216598 0.008274 0.603262
C59   C     C_R   0.901018 0.220765 0.081835 0.472310
C60   C     C_R   0.747277 0.716598 0.008274 0.603263
C61   C     C_R   0.355284 0.755450 0.987615 -0.261483
C62   C     C_R   0.322767 0.223898 0.998402 -0.369419
C63   C     C_R   0.855284 0.255450 0.987615 -0.261482
C64   C     C_R   0.822767 0.723898 0.998402 -0.369419
C65   C     C_R   0.391207 0.949775 0.465054 -0.152617
C66   C     C_R   0.391441 0.048887 0.462624 -0.099666
C67   C     C_R   0.891207 0.449775 0.465054 -0.152618
C68   C     C_R   0.891441 0.548887 0.462624 -0.099666
C69   C     C_R   0.392233 0.949509 0.372785 -0.127730
C70   C     C_R   0.392045 0.048544 0.370122 -0.095820
C71   C     C_R   0.892233 0.449510 0.372785 -0.127730
C72   C     C_R   0.892045 0.548544 0.370122 -0.095820
C73   C     C_R   0.403690 0.998962 0.333021 0.102345
C74   C     C_R   0.903690 0.498962 0.333021 0.102345
C75   C     C_R   0.480056 0.045052 0.248817 -0.082402
C76   C     C_R   0.478780 0.953768 0.247918 -0.111170
C77   C     C_R   0.980056 0.545052 0.248817 -0.082402
C78   C     C_R   0.978780 0.453768 0.247918 -0.111171
C79   C     C_R   0.400852 0.999548 0.516803 0.099157
C80   C     C_R   0.900852 0.499548 0.516803 0.099157
C81   C     C_R   0.230019 0.953677 0.751924 -0.099188
C82   C     C_R   0.231299 0.045590 0.754257 -0.102544
C83   C     C_R   0.730019 0.453677 0.751924 -0.099189
C84   C     C_R   0.731299 0.545590 0.754257 -0.102544
C85   C     C_R   0.369206 0.177174 0.999202 0.197582
C86   C     C_R   0.381315 0.814384 0.994343 0.173320
C87   C     C_R   0.869207 0.677174 0.999202 0.197580
C88   C     C_R   0.881315 0.314384 0.994343 0.173320
C89   C     C_R   0.447742 0.999115 0.273794 0.031929
C90   C     C_R   0.947742 0.499115 0.273794 0.031929
C91   C     C_R   0.174059 0.999560 0.729009 0.262862
C92   C     C_R   0.674059 0.499560 0.729009 0.262862
C93   C     C_R   0.450669 0.045322 0.695574 -0.074237
C94   C     C_R   0.451062 0.954708 0.696696 -0.093190
C95   C     C_R   0.950668 0.545322 0.695574 -0.074236
C96   C     C_R   0.951062 0.454709 0.696696 -0.093193
C97   C     C_R   0.748439 0.956495 0.311077 -0.029644
C98   C     C_R   0.751079 0.046259 0.306834 -0.065845
C99   C     C_R   0.248439 0.456495 0.311077 -0.029643
C100  C     C_R   0.251079 0.546259 0.306834 -0.065845
H1    H     H_    0.299661 0.163122 0.822847 0.096375
H2    H     H_    0.323357 0.836510 0.822222 0.162245
H3    H     H_    0.799662 0.663122 0.822847 0.096375
H4    H     H_    0.823357 0.336510 0.822222 0.162245
H5    H     H_    0.883097 0.915194 0.512660 0.009938
H6    H     H_    0.917698 0.089347 0.481910 0.035909
H7    H     H_    0.383098 0.415194 0.512660 0.009938
H8    H     H_    0.417698 0.589347 0.481910 0.035909
H9    H     H_    0.098152 0.963658 0.532131 0.224960
H10   H     H_    0.090618 0.036512 0.524439 0.227709
H11   H     H_    0.598152 0.463658 0.532131 0.224961
H12   H     H_    0.590618 0.536512 0.524439 0.227710
H13   H     H_    0.943975 0.953031 0.402065 0.263198
H14   H     H_    0.941352 0.024645 0.374770 0.237982
H15   H     H_    0.443975 0.453031 0.402065 0.263198
H16   H     H_    0.441352 0.524645 0.374770 0.237982
H17   H     H_    0.879515 0.153016 0.158851 0.225086
H18   H     H_    0.635652 0.757156 0.999766 0.205358
H19   H     H_    0.379515 0.653016 0.158851 0.225086
H20   H     H_    0.135652 0.257156 0.999766 0.205359
H21   H     H_    0.392328 0.910772 0.500722 0.119441
H22   H     H_    0.393097 0.088040 0.496642 0.144791
H23   H     H_    0.892328 0.410772 0.500722 0.119441
H24   H     H_    0.893098 0.588040 0.496642 0.144791
H25   H     H_    0.482071 0.832918 0.172039 0.179585
H26   H     H_    0.477759 0.164117 0.175507 0.117121
H27   H     H_    0.982071 0.332918 0.172039 0.179585
H28   H     H_    0.977759 0.664117 0.175507 0.117121
H29   H     H_    0.394538 0.910448 0.341197 0.130405
H30   H     H_    0.394189 0.087486 0.336574 0.162886
H31   H     H_    0.894538 0.410448 0.341197 0.130405
H32   H     H_    0.894189 0.587486 0.336575 0.162887
H33   H     H_    0.471450 0.087305 0.260471 0.115893
H34   H     H_    0.467889 0.911121 0.257519 0.106688
H35   H     H_    0.971450 0.587305 0.260471 0.115893
H36   H     H_    0.967889 0.411121 0.257519 0.106688
H37   H     H_    0.207160 0.911373 0.735670 0.108690
H38   H     H_    0.210509 0.087743 0.740462 0.114272
H39   H     H_    0.707160 0.411373 0.735670 0.108690
H40   H     H_    0.710509 0.587743 0.740462 0.114272
H41   H     H_    0.432309 0.087132 0.667432 0.108048
H42   H     H_    0.432738 0.912726 0.670134 0.082310
H43   H     H_    0.932309 0.587132 0.667432 0.108048
H44   H     H_    0.932738 0.412726 0.670134 0.082310
H45   H     H_    0.752467 0.917189 0.345256 0.172419
H46   H     H_    0.759750 0.087571 0.333533 0.195914
H47   H     H_    0.252467 0.417189 0.345256 0.172419
H48   H     H_    0.259750 0.587571 0.333533 0.195914
H49   H     H_    0.561293 0.864875 0.819249 0.134758
H50   H     H_    0.567901 0.129977 0.821891 0.188409
H51   H     H_    0.061293 0.364876 0.819249 0.134757
H52   H     H_    0.067902 0.629976 0.821891 0.188409
H53   H     H_    0.037471 0.913866 0.620576 0.000259
H54   H     H_    0.058310 0.089465 0.632217 -0.001280
H55   H     H_    0.537471 0.413866 0.620575 0.000260
H56   H     H_    0.558310 0.589465 0.632217 -0.001281
N1    N     N_R   0.392140 0.102630 0.941800 -0.054701
N2    N     N_R   0.392140 0.897370 0.941800 -0.052817
N3    N     N_R   0.892140 0.602630 0.941800 -0.054701
N4    N     N_R   0.892140 0.397370 0.941800 -0.052818
N5    N     N_R   0.450890 0.896450 0.057150 -0.060261
N6    N     N_R   0.450890 0.103550 0.057150 -0.048545
N7    N     N_R   0.950890 0.396450 0.057150 -0.060261
N8    N     N_R   0.950890 0.603550 0.057150 -0.048545
N9    N     N_R   0.525160 0.027960 0.206160 -0.045250
N10   N     N_R   0.525160 0.972040 0.206160 -0.053340
N11   N     N_R   0.025160 0.527960 0.206160 -0.045250
N12   N     N_R   0.025160 0.472040 0.206160 -0.053340
N13   N     N_R   0.317870 0.971120 0.792790 -0.062679
N14   N     N_R   0.317870 0.028880 0.792790 -0.064400
N15   N     N_R   0.817870 0.471120 0.792790 -0.062679
N16   N     N_R   0.817870 0.528880 0.792790 -0.064400
N17   N     N_R   0.473480 0.027920 0.793480 -0.039927
N18   N     N_R   0.473480 0.972080 0.793480 -0.033242
N19   N     N_R   0.973480 0.527920 0.793480 -0.039927
N20   N     N_R   0.973480 0.472080 0.793480 -0.033242
N21   N     N_R   0.681610 0.971120 0.207570 -0.060777
N22   N     N_R   0.681610 0.028880 0.207570 -0.068276
N23   N     N_R   0.181610 0.471120 0.207570 -0.060777
N24   N     N_R   0.181610 0.528880 0.207570 -0.068276
N25   N     N_R   0.605410 0.102620 0.056870 -0.096097
N26   N     N_R   0.605410 0.897380 0.056870 -0.111273
N27   N     N_R   0.105410 0.602620 0.056870 -0.096097
N28   N     N_R   0.105410 0.397380 0.056870 -0.111273
N29   N     N_R   0.549680 0.896430 0.944180 -0.084948
N30   N     N_R   0.549680 0.103570 0.944180 -0.090450
N31   N     N_R   0.049680 0.396430 0.944180 -0.084947
N32   N     N_R   0.049680 0.603570 0.944180 -0.090450
Ni1   Ni    Ni4+2 0.433410 0.064680 0.868830 0.235394
Ni2   Ni    Ni4+2 0.433410 0.935320 0.868830 0.225741
Ni3   Ni    Ni4+2 0.933410 0.564680 0.868830 0.235394
Ni4   Ni    Ni4+2 0.933410 0.435320 0.868830 0.225742
Ni5   Ni    Ni4+2 0.565650 0.934380 0.131170 0.288779
Ni6   Ni    Ni4+2 0.565650 0.065620 0.131170 0.285857
Ni7   Ni    Ni4+2 0.065650 0.434380 0.131170 0.288779
Ni8   Ni    Ni4+2 0.065650 0.565620 0.131170 0.285857
S1    S     S_3+6 0.042241 0.923065 0.778779 0.016425
O1    O     O_2   0.008061 0.864715 0.762100 -0.318479
O2    O     O_2   0.147062 0.924193 0.866236 -0.310981
O3    O     O_3   0.987863 0.957909 0.823690 -0.360763
H57   H     H_    0.020907 0.947421 0.902077 0.400117
S2    S     S_3+6 0.038941 0.073237 0.772702 0.062319
O4    O     O_2   0.118771 0.040957 0.865834 -0.197929
O5    O     O_2   0.064959 0.132972 0.792995 -0.304605
O6    O     O_3   0.941728 0.062656 0.771117 -0.373629
H58   H     H_    0.957162 0.078996 0.840317 0.402243
S3    S     S_3+6 0.542241 0.423065 0.778779 0.016425
O7    O     O_2   0.508061 0.364715 0.762100 -0.318479
O8    O     O_2   0.647062 0.424193 0.866236 -0.310981
O9    O     O_3   0.487863 0.457909 0.823690 -0.360763
H59   H     H_    0.520906 0.447421 0.902077 0.400117
S4    S     S_3+6 0.538940 0.573237 0.772702 0.062319
O10   O     O_2   0.618770 0.540957 0.865834 -0.197929
O11   O     O_2   0.564959 0.632972 0.792995 -0.304604
O12   O     O_3   0.441728 0.562655 0.771117 -0.373628
H60   H     H_    0.457162 0.578995 0.840317 0.402243
O13   O     O_3   0.857974 0.966733 0.606736 -0.504098
C101  C     C_3   0.784636 0.928527 0.575584 0.130670
H61   H     H_    0.812142 0.886089 0.598236 0.128773
H62   H     H_    0.727711 0.931682 0.486254 0.042480
H63   H     H_    0.752976 0.938024 0.620535 0.158241
O14   O     O_3   0.850693 0.072818 0.560201 -0.536451
C102  C     C_3   0.838769 0.130174 0.555236 0.019869
H64   H     H_    0.796114 0.144904 0.469004 0.107999
H65   H     H_    0.907403 0.152791 0.602505 0.132519
H66   H     H_    0.799617 0.140135 0.591076 0.206928
O15   O     O_3   0.357974 0.466733 0.606736 -0.504099
C103  C     C_3   0.284636 0.428527 0.575584 0.130671
H67   H     H_    0.312142 0.386089 0.598236 0.128774
H68   H     H_    0.227711 0.431682 0.486254 0.042480
H69   H     H_    0.252976 0.438024 0.620536 0.158242
O16   O     O_3   0.350693 0.572818 0.560201 -0.536451
C104  C     C_3   0.338768 0.630174 0.555236 0.019869
H70   H     H_    0.296114 0.644904 0.469004 0.107999
H71   H     H_    0.407403 0.652791 0.602505 0.132519
H72   H     H_    0.299617 0.640135 0.591075 0.206928
O17   O     O_3   0.237846 0.758441 0.786805 -0.600969
C105  C     C_3   0.152855 0.783825 0.755777 -0.095378
H73   H     H_    0.165656 0.814015 0.818437 0.167801
H74   H     H_    0.098488 0.753417 0.741811 0.173331
H75   H     H_    0.123859 0.806373 0.677495 0.160738
O18   O     O_3   0.420893 0.279560 0.964686 -0.583990
C106  C     C_3   0.507203 0.288318 0.068173 0.034113
H76   H     H_    0.524935 0.253113 0.124658 0.104512
H77   H     H_    0.506051 0.326612 0.106977 0.144550
H78   H     H_    0.564666 0.292656 0.056160 0.189125
O19   O     O_3   0.737846 0.258441 0.786805 -0.600969
C107  C     C_3   0.652855 0.283825 0.755777 -0.095377
H79   H     H_    0.665656 0.314015 0.818437 0.167801
H80   H     H_    0.598488 0.253417 0.741811 0.173331
H81   H     H_    0.623859 0.306373 0.677494 0.160738
O20   O     O_3   0.920893 0.779561 0.964687 -0.583990
C108  C     C_3   0.007203 0.788318 0.068173 0.034114
H82   H     H_    0.024935 0.753113 0.124658 0.104512
H83   H     H_    0.006051 0.826612 0.106978 0.144549
H84   H     H_    0.064666 0.792656 0.056160 0.189125
S5    S     S_3+6 0.695982 0.137403 0.775522 -0.008896
O21   O     O_2   0.598658 0.154662 0.681397 -0.338372
O22   O     O_2   0.760916 0.140459 0.739083 -0.236735
O23   O     O_3   0.692155 0.072441 0.811802 -0.490387
H85   H     H_    0.659825 0.051423 0.742407 0.382463
S6    S     S_3+6 0.826151 0.887616 0.946633 0.017396
O24   O     O_2   0.880557 0.918075 0.053707 -0.229414
O25   O     O_2   0.885387 0.884937 0.902594 -0.224547
O26   O     O_3   0.726970 0.922403 0.856370 -0.493486
H86   H     H_    0.695345 0.901227 0.787225 0.324466
S7    S     S_3+6 0.195982 0.637403 0.775522 -0.008896
O27   O     O_2   0.098658 0.654662 0.681397 -0.338372
O28   O     O_2   0.260916 0.640459 0.739083 -0.236736
O29   O     O_3   0.192155 0.572441 0.811802 -0.490388
H87   H     H_    0.159826 0.551423 0.742407 0.382464
S8    S     S_3+6 0.326151 0.387616 0.946632 0.017396
O30   O     O_2   0.380561 0.418074 0.053708 -0.229416
O31   O     O_2   0.385386 0.384936 0.902591 -0.224546
O32   O     O_3   0.226971 0.422404 0.856373 -0.493482
H88   H     H_    0.195343 0.401227 0.787227 0.324464
S9    S     S_3+6 0.523709 0.723298 0.186258 0.012988
O33   O     O_2   0.542621 0.751745 0.286142 -0.263710
O34   O     O_2   0.560070 0.665781 0.218231 -0.247879
O35   O     O_3   0.579538 0.756007 0.138626 -0.517169
H89   H     H_    0.636314 0.733890 0.164349 0.426371
S10   S     S_3+6 0.227001 0.156151 0.060298 0.009503
O36   O     O_2   0.123877 0.151242 0.015411 -0.214948
O37   O     O_2   0.283497 0.161124 0.183243 -0.321422
O38   O     O_3   0.260289 0.099210 0.029733 -0.497533
H90   H     H_    0.266034 0.070997 0.081621 0.378732
S11   S     S_3+6 0.023709 0.223298 0.186258 0.012988
O39   O     O_2   0.042622 0.251745 0.286142 -0.263711
O40   O     O_2   0.060070 0.165781 0.218231 -0.247879
O41   O     O_3   0.079538 0.256006 0.138626 -0.517168
H91   H     H_    0.136316 0.233891 0.164353 0.426372
S12   S     S_3+6 0.727001 0.656151 0.060297 0.009503
O42   O     O_2   0.623878 0.651242 0.015411 -0.214950
O43   O     O_2   0.783498 0.661123 0.183243 -0.321423
O44   O     O_3   0.760289 0.599210 0.029732 -0.497533
H92   H     H_    0.766034 0.570997 0.081621 0.378732
S13   S     S_3+6 0.740294 0.174675 0.203142 -0.107110
O45   O     O_2   0.839145 0.157200 0.292502 -0.339219
O46   O     O_2   0.744097 0.231028 0.164006 -0.313914
O47   O     O_3   0.674221 0.176564 0.252835 -0.611969
H93   H     H_    0.697331 0.209140 0.300960 0.364745
S14   S     S_3+6 0.765426 0.839477 0.220195 -0.062012
O48   O     O_2   0.849202 0.877093 0.285716 -0.348483
O49   O     O_2   0.718200 0.829955 0.277963 -0.296542
O50   O     O_3   0.807755 0.779440 0.214004 -0.527339
H94   H     H_    0.852311 0.767664 0.291558 0.395694
S15   S     S_3+6 0.240294 0.674675 0.203142 -0.107110
O51   O     O_2   0.339145 0.657200 0.292502 -0.339218
O52   O     O_2   0.244097 0.731028 0.164006 -0.313914
O53   O     O_3   0.174221 0.676564 0.252835 -0.611969
H95   H     H_    0.197331 0.709140 0.300960 0.364745
S16   S     S_3+6 0.265427 0.339477 0.220195 -0.062013
O54   O     O_2   0.349202 0.377093 0.285716 -0.348483
O55   O     O_2   0.218200 0.329955 0.277963 -0.296545
O56   O     O_3   0.307756 0.279440 0.214004 -0.527340
H96   H     H_    0.352312 0.267665 0.291558 0.395693

loop_
_geom_bond_atom_site_label_1
_geom_bond_atom_site_label_2
_ccdc_geom_bond_type
C13   C79   S    
C23   H55   S    
C102  H64   S    
N10   Ni5   S    
C41   C61   A    
C102  H66   S    
C25   H5    S    
N29   Ni2   S    
C55   H19   S    
C44   C64   A    
C66   C79   A    
C9    H49   S    
S10   O36   D    
N21   Ni5   S    
N32   Ni3   S    
C29   H9    S    
C35   C86   A    
C3    H3    S    
S1    O2    D    
C95   N19   A    
O53   H95   S    
S8    O30   D    
C83   N15   A    
S3    O9    S    
C66   H22   S    
C76   N10   A    
C81   N13   A    
N24   Ni8   S    
C27   C34   S    
C15   C97   A    
C103  H68   S    
C103  H67   S    
C44   C46   A    
C72   H32   S    
C105  H74   S    
C11   C20   A    
S2    O4    D    
C43   C63   A    
N4    N7    A    
N23   Ni7   S    
C58   S10   S    
C59   S11   S    
C42   O18   S    
C82   C91   A    
N26   N29   A    
O12   H60   S    
C24   C32   S    
C96   H44   S    
O15   C103  S    
C105  H75   S    
C68   C72   A    
N27   Ni8   S    
C75   N9    A    
N25   Ni6   S    
C7    C19   A    
C55   C57   A    
C1    H1    S    
C14   C95   A    
O47   H93   S    
C47   S7    S    
C99   H47   S    
C23   S3    S    
C97   H45   S    
C36   H26   S    
C21   S1    S    
C67   H23   S    
C40   H16   S    
C38   H28   S    
C57   C61   A    
N28   Ni7   S    
C59   C63   A    
C7    N27   A    
C13   C94   A    
C60   C64   A    
C74   C90   S    
S12   O43   D    
C82   H38   S    
N27   N32   A    
C27   O15   S    
C66   C70   A    
C28   H8    S    
S8    O32   S    
C49   C53   A    
C4    H4    S    
C93   N17   A    
N15   Ni4   S    
C51   C55   A    
C48   C52   A    
S4    O10   D    
C69   H29   S    
C21   H53   S    
S15   O52   D    
N1    N6    A    
C103  H69   S    
C24   H56   S    
O20   C108  S    
C65   C79   A    
C12   H52   S    
C32   C92   S    
C21   C31   S    
C35   N5    A    
C6    N26   A    
S16   O56   S    
N2    Ni2   S    
C108  H82   S    
S7    O29   S    
C2    H2    S    
S16   O54   D    
S5    O21   D    
C35   H25   S    
C16   C34   S    
C43   O19   S    
C39   H13   S    
C26   O14   S    
C98   N22   A    
C104  H70   S    
C42   C62   A    
C64   C87   S    
C76   C89   A    
C7    S15   S    
S9    O33   D    
C3    N3    A    
S13   O46   D    
N6    Ni6   S    
S14   O49   D    
C94   H42   S    
O35   H89   S    
C17   C49   S    
C16   C100  A    
O13   C101  S    
N12   Ni7   S    
C30   H12   S    
C26   C33   S    
C101  H62   S    
S4    O12   S    
C106  H78   S    
C8    S16   S    
S11   O40   D    
C41   C47   A    
N5    Ni5   S    
C42   C48   A    
C43   C45   A    
N31   Ni4   S    
C11   H51   S    
O50   H94   S    
C31   C91   S    
C100  N24   A    
C101  H63   S    
C21   C25   S    
C24   C28   S    
O23   H85   S    
C84   N16   A    
C108  H84   S    
N25   N30   A    
C102  H65   S    
S6    O24   D    
C4    C88   A    
C77   N11   A    
C78   N12   A    
N28   N31   A    
S5    O23   S    
C54   H18   S    
C10   N30   A    
C56   C58   A    
S1    O1    D    
C104  H72   S    
C75   C89   A    
C71   H31   S    
C9    C18   A    
C48   S8    S    
S10   O38   S    
S8    O31   D    
S9    O35   S    
S3    O8    D    
N3    N8    A    
C84   C92   A    
C25   C33   S    
C58   C62   A    
C95   H43   S    
C63   C88   S    
C37   C88   A    
C25   O13   S    
O32   H88   S    
N9    Ni6   S    
C26   H6    S    
S6    O26   S    
C83   H39   S    
C41   O17   S    
C78   C90   A    
C81   H37   S    
N22   Ni6   S    
N14   Ni1   S    
C50   C54   A    
S2    O5    D    
C40   H15   S    
C5    C17   A    
C106  H76   S    
C70   H30   S    
O41   H91   S    
N13   N14   A    
C14   C96   A    
C5    S13   S    
C6    S14   S    
N2    N5    A    
C107  H80   S    
S2    O6    S    
C69   C73   A    
C65   H21   S    
C28   C34   S    
O56   H96   S    
C36   N6    A    
C5    N25   A    
C24   S4    S    
C77   C90   A    
C22   S2    S    
S15   O51   D    
N3    Ni3   S    
C29   H10   S    
N4    Ni4   S    
C72   C74   A    
N11   N12   A    
C76   H34   S    
C47   C51   A    
O6    H58   S    
S3    O7    D    
C13   C93   A    
S1    O3    S    
C99   N23   A    
O38   H90   S    
C97   N21   A    
S11   O39   D    
C27   H7    S    
C2    N2    A    
C70   C73   A    
N8    Ni8   S    
O18   C106  S    
S11   O41   S    
N26   Ni5   S    
C8    C20   A    
N18   Ni2   S    
C60   S12   S    
S4    O11   D    
C11   N31   A    
C15   C98   A    
O44   H92   S    
C93   H41   S    
C107  H79   S    
C18   C50   S    
C105  H73   S    
C96   N20   A    
S10   O37   D    
C67   C80   A    
C71   C74   A    
C75   H33   S    
C45   S5    S    
C36   C85   A    
C38   C87   A    
S7    O27   D    
C23   C32   S    
S15   O53   S    
N30   Ni1   S    
C73   C89   S    
C10   H50   S    
S7    O28   D    
C65   C69   A    
C12   C19   A    
O16   C104  S    
S16   O55   D    
C67   C71   A    
C61   C86   S    
N23   N24   A    
C81   C91   A    
N11   Ni8   S    
C29   C31   S    
N21   N22   A    
C22   C26   S    
O29   H87   S    
C57   S9    S    
C68   C80   A    
N15   N16   A    
C82   N14   A    
N9    N10   A    
S13   O45   D    
C68   H24   S    
C53   C59   A    
C54   C60   A    
N17   N18   A    
C83   C92   A    
S14   O50   S    
C33   C39   S    
C34   C40   S    
S12   O42   D    
C9    N29   A    
N19   Ni3   S    
C53   H17   S    
N20   Ni4   S    
C10   C17   A    
C12   N32   A    
C44   O20   S    
N19   N20   A    
O3    H57   S    
C106  H77   S    
C23   C27   S    
O26   H86   S    
C107  H81   S    
C37   N7    A    
C8    N28   A    
C38   N8    A    
N7    Ni7   S    
C56   H20   S    
N13   Ni2   S    
N16   Ni3   S    
C1    C85   A    
C6    C18   A    
C62   C85   S    
C22   C31   S    
C3    C87   A    
C108  H83   S    
S6    O25   D    
C98   H46   S    
S5    O22   D    
C39   H14   S    
C29   C39   S    
C45   C49   A    
C30   C40   S    
C104  H71   S    
C94   N18   A    
C14   C80   S    
S9    O34   D    
S13   O47   S    
C22   H54   S    
C28   O16   S    
S14   O48   D    
S12   O44   S    
O19   C107  S    
C16   C99   A    
C46   S6    S    
C46   C50   A    
C30   H11   S    
C1    N1    A    
C20   C52   S    
C30   C32   S    
C101  H61   S    
C4    N4    A    
C100  H48   S    
N17   Ni1   S    
C2    C86   A    
O14   C102  S    
N1    Ni1   S    
C19   C51   S    
C84   H40   S    
O9    H59   S    
C77   H35   S    
O17   C105  S    
C78   H36   S    
C15   C33   S    
C52   C56   A    
C37   H27   S    
