data_mof_unit_39674.cif
_audit_creation_date              2012-12-11T20:57:39-0500
_audit_creation_method            fapswitch 2.2
_symmetry_space_group_name_H-M    P1
_symmetry_Int_Tables_number       1
_space_group_crystal_system       triclinic
_cell_length_a                    8.219012
_cell_length_b                    18.809687
_cell_length_c                    22.83206
_cell_angle_alpha                 99.951816
_cell_angle_beta                  89.828747
_cell_angle_gamma                 91.564356
_cell_volume                      3475.35693863

loop_
_atom_site_label
_atom_site_type_symbol
_atom_type_description
_atom_site_fract_x
_atom_site_fract_y
_atom_site_fract_z
_atom_type_partial_charge
Ba1   Ba    Ba6+2 0.157800 0.534120 0.474430 1.652374
Ba2   Ba    Ba6+2 0.652390 0.465870 0.525520 1.647098
C1    C     C_3   0.359777 0.699699 0.261530 -0.301838
C2    C     C_R   0.073874 0.904717 0.560939 -0.097628
C3    C     C_R   0.207394 0.049298 0.553706 -0.098954
C4    C     C_3   0.924693 0.727723 0.354089 0.854288
C5    C     C_R   0.054405 0.024253 0.529048 0.045699
C6    C     C_R   0.263698 0.119732 0.554397 -0.083233
C7    C     C_R   0.171032 0.168934 0.530337 -0.002187
C8    C     C_R   0.021554 0.144674 0.501855 -0.004780
C9    C     C_R   0.962984 0.071994 0.500865 -0.036446
C10   C     C_R   0.223860 0.241698 0.533554 -0.015455
C11   C     C_R   0.124887 0.289972 0.511164 -0.290066
C12   C     C_3   0.380447 0.681560 0.323336 0.306920
C13   C     C_R   0.982769 0.266719 0.479593 0.063132
C14   C     C_R   0.932279 0.192736 0.473455 -0.121076
C15   C     C_R   0.842625 0.928905 0.502216 0.014251
C16   C     C_3   0.966591 0.802884 0.341419 -0.275292
C17   C     C_R   0.783688 0.856349 0.501723 -0.011608
C18   C     C_R   0.876460 0.807476 0.528031 -0.040637
C19   C     C_R   0.016150 0.834408 0.560229 -0.020565
C20   C     C_R   0.798439 0.164666 0.438375 -0.045572
C21   C     C_R   0.741484 0.093840 0.436434 0.561104
C22   C     C_R   0.814541 0.047586 0.471265 -0.063539
C23   C     C_3   0.482770 0.687342 0.621540 0.305037
C24   C     C_R   0.749578 0.977129 0.475208 0.031698
C25   C     C_R   0.590500 0.954129 0.455873 -0.050035
C26   C     C_R   0.630757 0.832995 0.475732 -0.010568
C27   C     C_R   0.533835 0.883576 0.455124 -0.090528
C28   C     C_3   0.821011 0.373921 0.343279 0.294786
C29   C     C_R   0.578313 0.760032 0.472208 0.079534
C30   C     C_R   0.678665 0.711293 0.493268 -0.256205
C31   C     C_R   0.825109 0.733641 0.522029 0.037634
C32   C     C_R   0.643029 0.524559 0.335342 -0.294092
C33   C     C_R   0.376971 0.561643 0.946861 -0.025518
C34   C     C_3   0.484986 0.768927 0.640577 -0.386112
C35   C     C_R   0.327109 0.558014 0.887307 0.587597
C36   C     C_R   0.236947 0.434506 0.882437 0.579453
C37   C     C_R   0.288237 0.435989 0.941662 -0.022012
C38   C     C_R   0.358562 0.500029 0.973968 -0.051624
C39   C     C_R   0.445399 0.625467 0.979875 -0.075270
C40   C     C_3   0.814067 0.353449 0.275876 -0.353486
C41   C     C_R   0.494822 0.628108 0.038660 -0.073173
C42   C     C_R   0.478348 0.566875 0.066203 -0.019954
C43   C     C_R   0.410500 0.502539 0.033677 -0.052759
C44   C     C_R   0.272234 0.374741 0.969186 -0.074686
C45   C     C_3   0.886506 0.279172 0.644868 0.352474
C46   C     C_R   0.325882 0.376884 0.027514 -0.072746
C47   C     C_R   0.395187 0.440636 0.060486 -0.025731
C48   C     C_R   0.449748 0.443761 0.119561 0.592154
C49   C     C_R   0.527222 0.568932 0.125679 0.577129
C50   C     C_2   0.063009 0.475336 0.773359 -0.068805
C51   C     C_3   0.019262 0.481214 0.709767 -0.052874
C52   C     C_3   0.997417 0.632128 0.658694 0.293426
C53   C     C_1   0.303188 0.509968 0.694001 0.014260
C54   C     C_2   0.344493 0.509138 0.749901 -0.095549
C55   C     C_2   0.217735 0.491439 0.793205 0.209146
C56   C     C_3   0.893707 0.204956 0.662428 -0.365034
C57   C     C_R   0.708788 0.543812 0.235757 -0.090779
C58   C     C_R   0.749573 0.550592 0.296009 0.034057
C59   C     C_R   0.499565 0.487824 0.314752 0.019098
C60   C     C_R   0.454590 0.483024 0.254801 -0.106885
C61   C     C_R   0.558098 0.511757 0.214468 0.188651
C62   C     C_2   0.169540 0.476219 0.671165 -0.287130
C63   C     C_3   0.037483 0.662620 0.723442 -0.361280
C64   C     C_3   0.320170 0.313580 0.392101 0.284691
C65   C     C_3   0.322936 0.231927 0.373484 -0.338906
C66   C     C_3   0.383518 0.303709 0.677060 0.292177
C67   C     C_3   0.431119 0.289697 0.738175 -0.343350
C68   C     C_R   0.993057 0.952717 0.530279 0.017227
F1    F     F_    0.622732 0.070472 0.396064 -0.727002
F2    F     F_    0.757335 0.719990 0.356165 -0.779128
H1    H     H_    0.287100 0.640204 0.329564 0.087483
H2    H     H_    0.193901 0.329753 0.402452 0.007645
H3    H     H_    0.398262 0.329151 0.432084 0.071086
H4    H     H_    0.248144 0.730969 0.259240 0.134071
H5    H     H_    0.242085 0.214608 0.334448 0.131523
H6    H     H_    0.280272 0.204802 0.410313 0.072655
H7    H     H_    0.448925 0.214982 0.361619 0.152385
H8    H     H_    0.502364 0.658829 0.326438 0.082936
H9    H     H_    0.348015 0.649009 0.228685 0.109270
H10   H     H_    0.609105 0.670133 0.611106 0.021868
H11   H     H_    0.405791 0.673571 0.581056 0.053035
H12   H     H_    0.725602 0.307789 0.262847 0.145348
H13   H     H_    0.563251 0.784843 0.680509 0.136264
H14   H     H_    0.533952 0.795423 0.604170 0.042789
H15   H     H_    0.359477 0.787585 0.651087 0.115988
H16   H     H_    0.466679 0.732100 0.250262 0.165201
H17   H     H_    0.912531 0.844211 0.376105 0.084827
H18   H     H_    0.780909 0.279166 0.614681 0.108625
H19   H     H_    0.000300 0.289494 0.621316 -0.048193
H20   H     H_    0.901299 0.162881 0.622059 0.074920
H21   H     H_    0.002434 0.202190 0.690635 0.122519
H22   H     H_    0.782344 0.194126 0.687489 0.138665
H23   H     H_    0.775500 0.399804 0.255806 0.062437
H24   H     H_    0.250736 0.292754 0.670815 -0.016633
H25   H     H_    0.412442 0.361336 0.675500 0.072143
H26   H     H_    0.367672 0.327497 0.772769 0.131632
H27   H     H_    0.564438 0.298313 0.744893 0.152805
H28   H     H_    0.977787 0.723553 0.398011 0.014559
H29   H     H_    0.396782 0.233364 0.742619 0.118384
H30   H     H_    0.164087 0.345996 0.515361 0.066600
H31   H     H_    0.381272 0.134882 0.574407 0.107175
H32   H     H_    0.084119 0.801681 0.585398 0.097054
H33   H     H_    0.736672 0.196771 0.410890 0.123219
H34   H     H_    0.936216 0.337240 0.258306 0.131937
H35   H     H_    0.411783 0.869682 0.438773 0.111287
H36   H     H_    0.639054 0.655330 0.489255 0.066241
H37   H     H_    0.289207 0.015457 0.572388 0.063289
H38   H     H_    0.182040 0.919905 0.587065 0.058021
H39   H     H_    0.503343 0.990418 0.443224 0.164133
H40   H     H_    0.311986 0.328384 0.046849 0.126485
H41   H     H_    0.219153 0.324638 0.945520 0.124250
H42   H     H_    0.546504 0.678430 0.062472 0.127092
H43   H     H_    0.794723 0.562932 0.205588 0.117013
H44   H     H_    0.460964 0.673759 0.960351 0.126095
H45   H     H_    0.109141 0.611201 0.635726 0.023127
H46   H     H_    0.468762 0.522090 0.764734 0.110578
H47   H     H_    0.967473 0.465142 0.804030 0.100194
H48   H     H_    0.340006 0.456580 0.239674 0.131590
H49   H     H_    0.677004 0.528868 0.381595 0.084196
H50   H     H_    0.100409 0.812206 0.341673 0.088922
H51   H     H_    0.167642 0.446580 0.625886 0.066889
H52   H     H_    0.917537 0.808991 0.297341 0.129981
H53   H     H_    0.698276 0.388476 0.360114 0.012568
H54   H     H_    0.906996 0.420695 0.355204 0.062433
H55   H     H_    0.904205 0.588009 0.656512 0.040774
H56   H     H_    0.122762 0.709890 0.725892 0.149112
H57   H     H_    0.095795 0.621963 0.745447 0.081786
H58   H     H_    0.924331 0.679989 0.747883 0.119467
N1    N     N_R   0.259938 0.494652 0.855474 -0.428184
N2    N     N_R   0.511319 0.507984 0.152310 -0.423781
O1    O     O_2   0.110690 0.676100 0.539200 -0.473279
O2    O     O_2   0.685647 0.441106 0.698890 -0.493187
O3    O     O_3   0.870604 0.331378 0.696277 -0.594991
O4    O     O_3   0.863220 0.586720 0.534720 -0.482329
O5    O     O_3   0.450900 0.461390 0.429220 -0.488701
O6    O     O_2   0.599830 0.538970 0.641850 -0.462305
O7    O     O_3   0.419823 0.654876 0.668046 -0.632715
O8    O     O_2   0.561461 0.243168 0.523496 -0.493003
O9    O     O_3   0.471736 0.258148 0.633941 -0.608734
O10   O     O_2   0.342107 0.611553 0.863874 -0.593067
O11   O     O_2   0.173099 0.379489 0.854733 -0.600483
O12   O     O_3   0.377031 0.345537 0.344808 -0.622661
O13   O     O_2   0.444469 0.388920 0.141516 -0.593945
O14   O     O_2   0.582753 0.625453 0.153908 -0.607596
O15   O     O_3   0.368310 0.629070 0.432760 -0.495935
O16   O     O_2   0.237149 0.756358 0.471982 -0.513727
O17   O     O_3   0.935719 0.687900 0.633218 -0.644262
O18   O     O_3   0.361683 0.744171 0.365858 -0.597789
O19   O     O_2   0.210480 0.460990 0.358130 -0.464885
O20   O     O_3   0.959520 0.592090 0.401630 -0.483863
O21   O     O_2   0.084832 0.542235 0.294891 -0.518726
O22   O     O_3   0.988615 0.675691 0.308702 -0.629200
O23   O     O_2   0.699610 0.323860 0.460780 -0.468584
O24   O     O_3   0.947090 0.413280 0.465240 -0.490891
O25   O     O_3   0.442000 0.370930 0.567190 -0.475569
O26   O     O_3   0.872775 0.314372 0.366511 -0.635181
O27   O     O_3   0.359410 0.538600 0.570730 -0.476396
O28   O     O_3   0.850780 0.407910 0.598320 -0.486630
P1    P     P_3+3 0.935930 0.665430 0.555670 0.977827
P2    P     P_3+3 0.382700 0.439650 0.365620 0.996383
P3    P     P_3+3 0.946081 0.589256 0.324811 0.978320
P4    P     P_3+3 0.874370 0.334570 0.444280 0.977476
P5    P     P_3+3 0.855880 0.416657 0.675932 0.969762
P6    P     P_3+3 0.385220 0.722668 0.436926 0.961341
P7    P     P_3+3 0.416856 0.561011 0.645536 0.959568
P8    P     P_3+3 0.423750 0.277685 0.563987 0.927183

loop_
_geom_bond_atom_site_label_1
_geom_bond_atom_site_label_2
_ccdc_geom_bond_type
O8    P8    D    
C53   C54   D    
C28   H54   S    
Ba2   O23   S    
C25   C27   A    
O16   P6    D    
C36   O11   D    
C17   C18   A    
C65   H5    S    
C53   P7    S    
C5    C68   A    
C2    C68   A    
C63   H58   S    
C52   C63   S    
C42   C43   A    
C4    F2    S    
C24   C25   A    
C66   H24   S    
O21   P3    D    
C15   C24   A    
C26   C27   A    
C23   O7    S    
C56   H21   S    
C22   C24   A    
C41   H42   S    
C36   C37   A    
C51   C62   S    
C64   O12   S    
C13   C14   A    
C64   H2    S    
C9    C22   A    
C58   P3    S    
C54   C55   S    
Ba1   O20   S    
Ba1   Ba2   S    
C57   H43   S    
C66   H25   S    
C66   C67   S    
C19   H32   S    
Ba2   O27   S    
C1    H9    S    
Ba2   O24   S    
C21   C22   A    
C12   H8    S    
Ba1   O4    S    
C7    C8    A    
C60   H48   S    
O26   P4    S    
O12   P2    S    
C67   H26   S    
C64   C65   S    
C28   H53   S    
C25   H39   S    
C57   C58   A    
C32   C58   A    
C39   C41   A    
C65   H6    S    
C45   H19   S    
Ba1   O1    S    
O25   P8    S    
C6    H31   S    
C5    C9    A    
C52   O17   S    
O4    P1    S    
C34   H15   S    
C38   C43   A    
C4    C16   S    
C44   C46   A    
C35   O10   D    
C40   H23   S    
Ba2   O6    S    
C12   H1    S    
C21   F1    S    
C13   P4    S    
Ba1   O27   S    
C40   H12   S    
C8    C9    A    
Ba2   P4    S    
C37   C38   A    
C3    C5    A    
C6    C7    A    
C49   O14   D    
C34   H14   S    
C61   N2    S    
C32   C59   A    
Ba2   O4    S    
C59   P2    S    
O6    P7    D    
C4    H28   S    
Ba1   O24   S    
C31   P1    S    
C41   C42   A    
C63   H56   S    
C60   C61   A    
C1    H4    S    
O15   P6    S    
O22   P3    S    
C29   C30   A    
C29   P6    S    
C43   C47   A    
O19   P2    D    
C53   C62   D    
C12   O18   S    
O3    P5    S    
O2    P5    D    
C65   H7    S    
C66   O9    S    
O28   P5    S    
C10   C11   A    
O7    P7    S    
C17   C26   A    
C40   H34   S    
C4    O22   S    
C1    C12   S    
C48   N2    Am   
C16   H50   S    
C37   C44   A    
C18   C31   A    
C67   H27   S    
C48   O13   D    
C51   P5    S    
C46   C47   A    
C46   H40   S    
Ba1   P2    S    
C32   H49   S    
C11   C13   A    
C23   H10   S    
C34   H13   S    
C45   H18   S    
Ba1   O15   S    
O17   P1    S    
C39   H44   S    
C62   H51   S    
Ba1   O5    S    
C50   C51   S    
C42   C49   A    
C33   C35   A    
C28   O26   S    
C2    H38   S    
O9    P8    S    
C14   C20   A    
C44   H41   S    
C45   O3    S    
C1    H16   S    
C16   H17   S    
C54   H46   S    
C55   N1    S    
C26   C29   A    
C27   H35   S    
O1    P1    D    
C10   P8    S    
C3    C6    A    
C63   H57   S    
C49   N2    Am   
C67   H29   S    
O23   P4    D    
Ba2   O5    S    
C20   H33   S    
C52   H55   S    
C57   C61   A    
C30   C31   A    
C33   C38   A    
C56   H22   S    
C8    C14   A    
C36   N1    Am   
C45   C56   S    
C2    C19   A    
O5    P2    S    
C3    H37   S    
Ba2   O25   S    
C64   H3    S    
C15   C17   A    
O27   P7    S    
Ba1   O19   S    
C59   C60   A    
C33   C39   A    
C7    C10   A    
O20   P3    S    
C50   C55   D    
C23   C34   S    
Ba1   P1    S    
C50   H47   S    
C35   N1    Am   
C15   C68   A    
C18   C19   A    
O24   P4    S    
Ba2   O28   S    
C47   C48   A    
C30   H36   S    
C52   H45   S    
C23   H11   S    
C20   C21   A    
C28   C40   S    
C11   H30   S    
C56   H20   S    
C16   H52   S    
O18   P6    S    
