data_mof_unit_30002.cif
_audit_creation_date              2012-12-10T17:46:28-0500
_audit_creation_method            fapswitch 2.2
_symmetry_space_group_name_H-M    P1
_symmetry_Int_Tables_number       1
_space_group_crystal_system       triclinic
_cell_length_a                    20.792459
_cell_length_b                    21.189375
_cell_length_c                    14.737831
_cell_angle_alpha                 90.000945
_cell_angle_beta                  127.801988
_cell_angle_gamma                 89.999983
_cell_volume                      5130.48217719

loop_
_atom_site_label
_atom_site_type_symbol
_atom_type_description
_atom_site_fract_x
_atom_site_fract_y
_atom_site_fract_z
_atom_type_partial_charge
C1    C     C_R   0.603883 0.914609 0.632833 0.809836
C2    C     C_R   0.652666 0.239833 0.054815 -0.212250
C3    C     C_R   0.744863 0.791479 0.991276 0.067669
C4    C     C_R   0.200988 0.741514 0.939821 0.070169
C5    C     C_R   0.755024 0.291548 0.008613 0.067670
C6    C     C_R   0.798974 0.741510 0.060163 0.070172
C7    C     C_R   0.244888 0.291498 0.991305 0.067664
C8    C     C_R   0.297663 0.822141 0.974485 -0.211526
C9    C     C_R   0.648060 0.218248 0.962144 -0.210942
C10   C     C_R   0.702178 0.822056 0.025373 -0.211521
C11   C     C_R   0.351909 0.218245 0.037841 -0.210929
C12   C     C_R   0.797646 0.322164 0.974452 -0.211532
C13   C     C_R   0.707460 0.800926 0.118853 -0.200296
C14   C     C_R   0.148128 0.718186 0.962236 -0.210947
C15   C     C_R   0.202209 0.322080 0.025409 -0.211517
C16   C     C_R   0.851886 0.718228 0.037813 -0.210923
C17   C     C_R   0.347326 0.239846 0.945197 -0.212243
C18   C     C_R   0.792344 0.301046 0.880949 -0.200277
C19   C     C_R   0.152740 0.739765 0.054913 -0.212245
C20   C     C_R   0.207491 0.300949 0.118889 -0.200286
C21   C     C_R   0.847304 0.739830 0.945171 -0.212236
C22   C     C_R   0.321523 0.998239 0.664760 0.260342
C23   C     C_R   0.678477 0.998243 0.335240 0.260356
C24   C     C_R   0.821523 0.498212 0.664761 0.260342
C25   C     C_R   0.397761 0.086740 0.369208 0.805638
C26   C     C_R   0.178478 0.498266 0.335241 0.260351
C27   C     C_R   0.352009 0.999251 0.602847 0.021029
C28   C     C_R   0.647991 0.999253 0.397153 0.021031
C29   C     C_R   0.852009 0.499238 0.602848 0.021033
C30   C     C_R   0.147991 0.499263 0.397153 0.021030
C31   C     C_R   0.487640 0.999731 0.774969 -0.020798
C32   C     C_R   0.512360 0.999731 0.225031 -0.020781
C33   C     C_R   0.987640 0.499736 0.774969 -0.020795
C34   C     C_R   0.012360 0.499726 0.225031 -0.020782
C35   C     C_R   0.461194 0.998611 0.844332 -0.071281
C36   C     C_R   0.396117 0.914608 0.367167 0.809831
C37   C     C_R   0.538806 0.998612 0.155668 -0.071290
C38   C     C_R   0.961195 0.498609 0.844332 -0.071279
C39   C     C_R   0.038807 0.498611 0.155669 -0.071291
C40   C     C_R   0.375938 0.998004 0.786154 0.061824
C41   C     C_R   0.624062 0.998007 0.213845 0.061808
C42   C     C_R   0.875939 0.497980 0.786155 0.061828
C43   C     C_R   0.124063 0.498027 0.213847 0.061803
C44   C     C_R   0.515828 0.998120 0.968234 0.105171
C45   C     C_R   0.484172 0.998119 0.031765 0.105195
C46   C     C_R   0.015829 0.498128 0.968236 0.105168
C47   C     C_R   0.602235 0.086744 0.630789 0.805635
C48   C     C_R   0.984173 0.498107 0.031766 0.105202
C49   C     C_R   0.398960 0.997314 0.969228 -0.266107
C50   C     C_R   0.601040 0.997318 0.030771 -0.266117
C51   C     C_R   0.898962 0.497267 0.969230 -0.266106
C52   C     C_R   0.101042 0.497357 0.030773 -0.266137
C53   C     C_R   0.346492 0.997097 0.849886 -0.140866
C54   C     C_R   0.653508 0.997102 0.150114 -0.140804
C55   C     C_R   0.846494 0.497049 0.849888 -0.140875
C56   C     C_R   0.153510 0.497143 0.150115 -0.140812
C57   C     C_R   0.655361 0.140314 0.698145 -0.057905
C58   C     C_R   0.103884 0.414610 0.632834 0.809833
C59   C     C_R   0.332808 0.869056 0.287455 -0.059033
C60   C     C_R   0.344612 0.140293 0.301826 -0.057909
C61   C     C_R   0.667195 0.869063 0.712553 -0.059034
C62   C     C_R   0.155370 0.640304 0.698157 -0.057895
C63   C     C_R   0.832790 0.369071 0.287430 -0.059034
C64   C     C_R   0.844605 0.640288 0.301818 -0.057906
C65   C     C_R   0.167201 0.369068 0.712561 -0.059036
C66   C     C_R   0.744482 0.225370 0.729150 -0.172167
C67   C     C_R   0.218340 0.802514 0.227133 -0.174982
C68   C     C_R   0.255388 0.225290 0.270716 -0.172180
C69   C     C_R   0.897760 0.586739 0.369207 0.805643
C70   C     C_R   0.781730 0.802588 0.772971 -0.174989
C71   C     C_R   0.244477 0.725368 0.729152 -0.172177
C72   C     C_R   0.718283 0.302566 0.227057 -0.174983
C73   C     C_R   0.755368 0.725275 0.270692 -0.172180
C74   C     C_R   0.281743 0.302598 0.772986 -0.174988
C75   C     C_R   0.698839 0.172080 0.667925 -0.174622
C76   C     C_R   0.278436 0.845145 0.305080 -0.173554
C77   C     C_R   0.301080 0.172028 0.331989 -0.174608
C78   C     C_R   0.721624 0.845203 0.695002 -0.173571
C79   C     C_R   0.198830 0.672083 0.667919 -0.174627
C80   C     C_R   0.896114 0.414610 0.367163 0.809826
C81   C     C_R   0.778398 0.345178 0.305030 -0.173555
C82   C     C_R   0.801068 0.672018 0.331975 -0.174612
C83   C     C_R   0.221631 0.345208 0.695010 -0.173567
C84   C     C_R   0.658228 0.162118 0.789965 -0.241546
C85   C     C_R   0.325551 0.850906 0.190414 -0.246144
C86   C     C_R   0.341755 0.162105 0.210020 -0.241562
C87   C     C_R   0.674399 0.850875 0.809538 -0.246140
C88   C     C_R   0.158263 0.662089 0.790007 -0.241550
C89   C     C_R   0.825533 0.350922 0.190385 -0.246138
C90   C     C_R   0.841745 0.662096 0.210009 -0.241566
C91   C     C_R   0.102237 0.586742 0.630791 0.805640
C92   C     C_R   0.174412 0.350884 0.809554 -0.246141
C93   C     C_R   0.700650 0.217290 0.849578 0.092194
C94   C     C_R   0.263813 0.809704 0.108581 0.092774
C95   C     C_R   0.299281 0.217250 0.150357 0.092204
C96   C     C_R   0.736148 0.809694 0.891398 0.092767
C97   C     C_R   0.200683 0.717259 0.849624 0.092198
C98   C     C_R   0.763776 0.309739 0.108529 0.092767
C99   C     C_R   0.799261 0.717235 0.150334 0.092204
C100  C     C_R   0.236168 0.309708 0.891421 0.092765
C101  C     C_R   0.745980 0.248057 0.819862 0.157766
C102  C     C_R   0.292351 0.801031 0.880971 -0.200287
C103  C     C_R   0.211291 0.784012 0.130011 0.161476
C104  C     C_R   0.253898 0.247984 0.180015 0.157768
C105  C     C_R   0.788733 0.784054 0.870045 0.161481
C106  C     C_R   0.245992 0.748040 0.819887 0.157767
C107  C     C_R   0.711234 0.284064 0.129934 0.161474
C108  C     C_R   0.753874 0.747966 0.179987 0.157777
C109  C     C_R   0.288751 0.284068 0.870066 0.161482
C110  C     C_R   0.700942 0.241558 0.939757 0.070172
C111  C     C_R   0.255057 0.791514 0.008664 0.067667
C112  C     C_R   0.298996 0.241527 0.060189 0.070174
Cl1   Cl    Cl    0.214854 0.997123 0.585958 -0.624201
Cl2   Cl    Cl    0.785146 0.997131 0.414042 -0.624181
Cl3   Cl    Cl    0.714855 0.497075 0.585959 -0.624204
Cl4   Cl    Cl    0.285147 0.497172 0.414044 -0.624184
Cu1   Cu    Cu3+1 0.526640 1.000000 0.436960 0.944937
Cu2   Cu    Cu3+1 0.473360 0.000000 0.563040 0.944935
Cu3   Cu    Cu3+1 0.026640 0.500000 0.436960 0.944936
Cu4   Cu    Cu3+1 0.973360 0.500000 0.563040 0.944938
H1    H     H_    0.325868 0.825819 0.857524 0.155373
H2    H     H_    0.629724 0.996494 0.989916 0.135273
H3    H     H_    0.870279 0.496410 0.010086 0.135241
H4    H     H_    0.129728 0.496560 0.989919 0.135275
H5    H     H_    0.370419 0.868148 0.182119 0.152657
H6    H     H_    0.627955 0.134420 0.814873 0.149885
H7    H     H_    0.629487 0.868076 0.817771 0.152675
H8    H     H_    0.372080 0.134433 0.185167 0.149892
H9    H     H_    0.870415 0.368149 0.182106 0.152656
H10   H     H_    0.128007 0.634379 0.814927 0.149868
H11   H     H_    0.129499 0.368083 0.817787 0.152679
H12   H     H_    0.611130 0.220733 0.069060 0.145933
H13   H     H_    0.872076 0.634426 0.185163 0.149896
H14   H     H_    0.282723 0.858929 0.379393 0.165749
H15   H     H_    0.697186 0.156055 0.596740 0.165620
H16   H     H_    0.717379 0.859019 0.620734 0.165759
H17   H     H_    0.302722 0.155995 0.403161 0.165628
H18   H     H_    0.782684 0.358963 0.379343 0.165751
H19   H     H_    0.197159 0.656071 0.596712 0.165620
H20   H     H_    0.217381 0.359021 0.620737 0.165754
H21   H     H_    0.802713 0.655988 0.403150 0.165629
H22   H     H_    0.278289 0.749074 0.705223 0.145397
H23   H     H_    0.673880 0.825675 0.142235 0.155340
H24   H     H_    0.677623 0.283708 0.243082 0.143184
H25   H     H_    0.721494 0.748942 0.294555 0.145386
H26   H     H_    0.322435 0.283767 0.757001 0.143188
H27   H     H_    0.778309 0.249065 0.705237 0.145397
H28   H     H_    0.177696 0.783643 0.243176 0.143181
H29   H     H_    0.221518 0.248959 0.294583 0.145384
H30   H     H_    0.822422 0.783757 0.756987 0.143192
H31   H     H_    0.333832 0.863963 0.016193 0.142837
H32   H     H_    0.600499 0.184514 0.907472 0.145712
H33   H     H_    0.665964 0.863855 0.983629 0.142845
H34   H     H_    0.388889 0.220770 0.930987 0.145931
H35   H     H_    0.399479 0.184521 0.092520 0.145700
H36   H     H_    0.833824 0.363982 0.016168 0.142826
H37   H     H_    0.100579 0.684441 0.907582 0.145711
H38   H     H_    0.166003 0.363882 0.983671 0.142855
H39   H     H_    0.899454 0.684502 0.092488 0.145697
H40   H     H_    0.281838 0.996329 0.807896 0.208024
H41   H     H_    0.718161 0.996337 0.192103 0.208028
H42   H     H_    0.781841 0.496257 0.807898 0.208024
H43   H     H_    0.218164 0.496400 0.192106 0.208029
H44   H     H_    0.448953 0.000433 0.188243 0.134886
H45   H     H_    0.825875 0.325825 0.857516 0.155375
H46   H     H_    0.551047 0.000434 0.811757 0.134895
H47   H     H_    0.948953 0.500428 0.188242 0.134887
H48   H     H_    0.051047 0.500443 0.811756 0.134887
H49   H     H_    0.689409 0.999263 0.490061 0.161487
H50   H     H_    0.310591 0.999261 0.509939 0.161493
H51   H     H_    0.189409 0.499277 0.490062 0.161489
H52   H     H_    0.810590 0.499244 0.509939 0.161487
H53   H     H_    0.111220 0.720652 0.069178 0.145945
H54   H     H_    0.173917 0.325702 0.142277 0.155343
H55   H     H_    0.888867 0.720754 0.930961 0.145938
H56   H     H_    0.370276 0.996487 0.010084 0.135251
N1    N     N_R   0.433280 0.000000 0.657760 -0.203981
N2    N     N_R   0.566720 1.000000 0.342240 -0.203981
N3    N     N_R   0.933280 0.500000 0.657760 -0.203978
N4    N     N_R   0.066720 0.500000 0.342240 -0.203981
O1    O     O_R   0.600040 0.935040 0.546740 -0.583578
O2    O     O_R   0.444990 0.064930 0.346780 -0.587296
O3    O     O_R   0.444990 0.935070 0.346780 -0.585731
O4    O     O_R   0.555010 0.064930 0.653220 -0.587282
O5    O     O_R   0.055010 0.435070 0.653220 -0.585741
O6    O     O_R   0.944990 0.564930 0.346780 -0.587298
O7    O     O_R   0.944990 0.435070 0.346780 -0.585728
O8    O     O_R   0.055010 0.564930 0.653220 -0.587283
O9    O     O_R   0.399960 0.064960 0.453260 -0.584076
O10   O     O_R   0.399960 0.935040 0.453260 -0.583584
O11   O     O_R   0.600040 0.064960 0.546740 -0.584078
O12   O     O_R   0.100040 0.435040 0.546740 -0.583574
O13   O     O_R   0.899960 0.564960 0.453260 -0.584073
O14   O     O_R   0.899960 0.435040 0.453260 -0.583586
O15   O     O_R   0.100040 0.564960 0.546740 -0.584084
O16   O     O_R   0.555010 0.935070 0.653220 -0.585745

loop_
_geom_bond_atom_site_label_1
_geom_bond_atom_site_label_2
_ccdc_geom_bond_type
C65   C92   A    
C79   H19   S    
C91   O8    A    
C9    H32   S    
C16   C21   A    
C70   C78   A    
C24   C42   A    
C94   C111  A    
C34   N4    A    
C70   H30   S    
C88   H10   S    
C74   C83   A    
C96   C105  A    
C3    C6    A    
Cu4   O5    S    
C74   C109  A    
C87   H7    S    
C67   C103  A    
C95   C104  A    
C99   C108  A    
C56   H43   S    
C50   C54   A    
C31   N1    A    
C37   C41   A    
C36   O10   A    
Cu4   N3    S    
C77   H17   S    
C38   C42   A    
C95   C112  A    
C82   H21   S    
Cu2   O9    S    
Cu1   O1    S    
C65   C83   A    
C33   N3    A    
C5    C110  A    
C1    C61   S    
C46   C52   A    
C2    C107  A    
C68   C77   A    
C89   H9    S    
C7    C112  A    
C24   C29   A    
C68   H29   S    
Cu1   O11   S    
C19   C103  A    
C48   C51   A    
C20   H54   S    
Cu1   N2    S    
C21   H55   S    
C50   H2    S    
C2    H12   S    
C31   H46   S    
C3    C96   A    
C25   C60   S    
C64   C90   A    
C8    H31   S    
C102  H1    S    
C61   C87   A    
C51   C55   A    
C72   C81   A    
C11   H35   S    
C93   C110  A    
C36   C59   S    
C7    C15   A    
C11   C112  A    
C100  C109  A    
C54   H41   S    
C4    C97   A    
C87   C96   A    
C58   O5    A    
C4    C14   A    
C66   C101  A    
C32   N2    A    
C15   C20   A    
C12   H36   S    
C13   C108  A    
C17   H34   S    
Cu4   O8    S    
C10   H33   S    
C71   C79   A    
C83   H20   S    
C18   H45   S    
C26   C43   A    
Cu3   O7    S    
C63   C80   S    
C22   Cl1   S    
C84   H6    S    
C81   H18   S    
C41   C54   A    
C46   C48   A    
C60   C77   A    
C7    C100  A    
C14   H37   S    
C86   H8    S    
C34   C39   A    
C27   N1    A    
C62   C79   A    
C92   H11   S    
C51   H3    S    
Cu3   O12   S    
C15   H38   S    
C8    C111  A    
C93   C101  A    
C90   H13   S    
C1    O1    A    
Cu1   O2    S    
C73   C108  A    
C39   C43   A    
C23   C28   A    
C62   C88   A    
C10   C13   A    
Cu4   O14   S    
C98   C107  A    
C73   H25   S    
C32   H44   S    
C18   C101  A    
C28   N2    A    
C59   C85   A    
C42   C55   A    
C47   C57   S    
C91   O15   A    
C85   C94   A    
C28   H49   S    
C58   C65   S    
C72   C107  A    
C45   C49   A    
C61   C78   A    
Cu3   Cu4   S    
C22   C40   A    
C62   C91   S    
C63   C89   A    
C69   O13   A    
C57   C84   A    
C36   O3    A    
C32   C37   A    
C35   C44   A    
C27   H50   S    
C64   C82   A    
C66   H27   S    
C5    C12   A    
C71   H22   S    
C97   C106  A    
C59   C76   A    
C4    C111  A    
C63   C81   A    
C94   C103  A    
C26   C30   A    
C22   C27   A    
C58   O12   A    
C31   C35   A    
C33   H48   S    
Cu3   N4    S    
C37   C45   A    
C34   H47   S    
C90   C99   A    
Cu2   O16   S    
C25   O2    A    
C92   C100  A    
C60   C86   A    
C44   C50   A    
C9    C110  A    
C72   H24   S    
C11   C17   A    
C53   H40   S    
C76   H14   S    
C85   H5    S    
C14   C19   A    
C74   H26   S    
C44   C45   A    
C88   C97   A    
C55   H42   S    
C47   O4    A    
C70   C105  A    
C17   C109  A    
C19   H53   S    
Cu1   O3    S    
C1    O16   A    
C20   C104  A    
Cu2   O4    S    
C80   O14   A    
Cu4   O13   S    
C23   C41   A    
C89   C98   A    
C6    C99   A    
C57   C75   A    
C68   C104  A    
C35   C40   A    
Cu3   O6    S    
C3    C10   A    
C25   O9    A    
Cu1   Cu2   S    
C23   Cl2   S    
C52   H4    S    
C75   H15   S    
C8    C102  A    
C49   C53   A    
C66   C75   A    
Cu2   O10   S    
C80   O7    A    
C73   C82   A    
C102  C106  A    
Cu3   O15   S    
C84   C93   A    
C13   H23   S    
C29   H52   S    
C47   O11   A    
C64   C69   S    
C26   Cl4   S    
C30   H51   S    
C38   C46   A    
C86   C95   A    
C6    C16   A    
Cu2   N1    S    
C43   C56   A    
C5    C98   A    
C24   Cl3   S    
C40   C53   A    
C29   N3    A    
C71   C106  A    
C12   C18   A    
C67   H28   S    
C30   N4    A    
C33   C38   A    
C67   C76   A    
C2    C9    A    
C78   H16   S    
C69   O6    A    
C49   H56   S    
C21   C105  A    
C52   C56   A    
C39   C48   A    
C16   H39   S    
