data_mof_unit_7002.cif
_audit_creation_date              2012-12-10T19:43:25-0500
_audit_creation_method            fapswitch 2.2
_symmetry_space_group_name_H-M    P1
_symmetry_Int_Tables_number       1
_space_group_crystal_system       triclinic
_cell_length_a                    10.941726
_cell_length_b                    10.851417
_cell_length_c                    9.647884
_cell_angle_alpha                 89.116613
_cell_angle_beta                  91.092478
_cell_angle_gamma                 93.214205
_cell_volume                      1143.3963805

loop_
_atom_site_label
_atom_site_type_symbol
_atom_type_description
_atom_site_fract_x
_atom_site_fract_y
_atom_site_fract_z
_atom_type_partial_charge
C1    C     C_R   0.505080 0.262369 0.502362 0.785741
C2    C     C_R   0.856819 0.509276 0.006882 -0.154050
C3    C     C_R   0.796640 0.392920 0.023949 -0.120085
C4    C     C_R   0.262184 0.501934 0.498213 0.828295
C5    C     C_R   0.786941 0.311511 0.913583 -0.150214
C6    C     C_R   0.834514 0.347368 0.785138 -0.112127
C7    C     C_R   0.890688 0.466165 0.765672 0.159171
C8    C     C_R   0.503148 0.107423 0.769653 -0.189269
C9    C     C_R   0.459704 0.041805 0.885683 -0.194389
C10   C     C_R   0.401986 0.925609 0.870054 -0.097513
C11   C     C_R   0.398708 0.870347 0.740710 -0.117648
C12   C     C_R   0.164966 0.406595 0.964195 -0.159351
C13   C     C_R   0.453906 0.931236 0.624739 0.067957
C14   C     C_R   0.488890 0.057759 0.634570 0.107468
C15   C     C_R   0.508250 0.127248 0.508992 -0.114645
C16   C     C_R   0.490131 0.736390 0.499369 0.774651
C17   C     C_R   0.516604 0.065371 0.383368 -0.218296
C18   C     C_R   0.506657 0.938025 0.380144 -0.217078
C19   C     C_R   0.477717 0.869741 0.500284 -0.107269
C20   C     C_R   0.644200 0.681568 0.143089 -0.179370
C21   C     C_R   0.708593 0.775252 0.071007 -0.238312
C22   C     C_R   0.709548 0.774435 0.928007 -0.200839
C23   C     C_R   0.929103 0.472525 0.381338 -0.260559
C24   C     C_R   0.645919 0.680065 0.856816 -0.132550
C25   C     C_R   0.568571 0.590920 0.925259 0.256319
C26   C     C_R   0.568155 0.591224 0.074470 0.230138
C27   C     C_R   0.443187 0.407817 0.074095 -0.078974
C28   C     C_R   0.736982 0.494804 0.501866 0.803031
C29   C     C_R   0.443736 0.407677 0.926574 -0.036019
C30   C     C_R   0.190100 0.523328 0.022207 0.712947
C31   C     C_R   0.157499 0.544628 0.158024 -0.222057
C32   C     C_R   0.105035 0.448060 0.238733 0.083168
C33   C     C_R   0.082635 0.330622 0.181401 -0.159266
C34   C     C_R   0.870457 0.488183 0.505552 -0.165059
C35   C     C_R   0.112319 0.310223 0.044090 -0.280440
C36   C     C_R   0.941041 0.501303 0.628518 -0.106016
C37   C     C_R   0.067076 0.525054 0.618418 0.534118
C38   C     C_R   0.127340 0.503112 0.494872 -0.207641
C39   C     C_R   0.055663 0.474152 0.374883 -0.032274
C40   C     C_R   0.903111 0.546278 0.878117 -0.079417
Cu1   Cu    Cu3+1 0.499990 0.499990 0.640660 0.964857
Cu2   Cu    Cu3+1 0.500010 0.500010 0.359340 0.928727
F1    F     F_    0.249419 0.615288 0.949166 -0.651261
F2    F     F_    0.130641 0.570047 0.729282 -0.657998
H1    H     H_    0.188866 0.389020 0.858484 0.189583
H2    H     H_    0.522412 0.893123 0.283103 0.172591
H3    H     H_    0.394407 0.333086 0.128747 0.143201
H4    H     H_    0.663549 0.679212 0.251478 0.204199
H5    H     H_    0.764576 0.844187 0.126751 0.152259
H6    H     H_    0.766420 0.842576 0.872232 0.149913
H7    H     H_    0.667146 0.675670 0.749858 0.193316
H8    H     H_    0.396214 0.332455 0.872244 0.124045
H9    H     H_    0.173093 0.636098 0.200596 0.148177
H10   H     H_    0.039018 0.256214 0.241902 0.144302
H11   H     H_    0.093831 0.220105 0.999328 0.166678
H12   H     H_    0.757007 0.365251 0.122152 0.135617
H13   H     H_    0.875622 0.454867 0.288656 0.172247
H14   H     H_    0.947051 0.637608 0.865960 0.169150
H15   H     H_    0.866308 0.572276 0.092433 0.143193
H16   H     H_    0.742688 0.220628 0.927717 0.119009
H17   H     H_    0.826684 0.283004 0.700278 0.108897
H18   H     H_    0.533612 0.115378 0.286946 0.157904
H19   H     H_    0.552957 0.193587 0.790234 0.165974
H20   H     H_    0.469393 0.082108 0.987572 0.129686
H21   H     H_    0.363266 0.876558 0.958912 0.174507
H22   H     H_    0.351580 0.780419 0.732613 0.222495
N1    N     N_R   0.501190 0.501210 0.147910 -0.201757
N2    N     N_R   0.501230 0.501290 0.852040 -0.180882
O1    O     O_R   0.499990 0.319640 0.618810 -0.605158
O2    O     O_R   0.500000 0.319660 0.381240 -0.588549
O3    O     O_R   0.319640 0.500000 0.618780 -0.508650
O4    O     O_R   0.319650 0.500020 0.381210 -0.582364
O5    O     O_R   0.500000 0.680340 0.618760 -0.604931
O6    O     O_R   0.500010 0.680360 0.381190 -0.599765
O7    O     O_R   0.680350 0.499980 0.618790 -0.599329
O8    O     O_R   0.680360 0.500000 0.381220 -0.612164

loop_
_geom_bond_atom_site_label_1
_geom_bond_atom_site_label_2
_ccdc_geom_bond_type
C27   C29   A    
C9    H20   S    
C7    C36   S    
C21   H5    S    
C16   O6    A    
C26   N1    A    
C6    H17   S    
C36   C37   A    
C5    C6    A    
Cu2   O2    S    
C23   H13   S    
C18   C19   A    
Cu1   Cu2   S    
C32   C39   S    
C8    C9    A    
C7    C40   A    
C1    C15   S    
C9    C10   A    
C11   H22   S    
Cu1   O3    S    
C24   H7    S    
C28   C34   S    
C13   C14   A    
C25   N2    A    
C18   H2    S    
Cu1   N2    S    
Cu2   O6    S    
C40   H14   S    
C13   C19   A    
C35   H11   S    
C16   O5    A    
C24   C25   A    
C2    H15   S    
C25   C26   A    
C1    O1    A    
C37   C38   A    
C17   H18   S    
Cu1   O7    S    
C29   N2    A    
C3    H12   S    
C31   C32   A    
C30   C31   A    
C23   C34   A    
Cu2   O4    S    
C17   C18   A    
C31   H9    S    
C12   C35   A    
C20   H4    S    
C4    C38   S    
Cu2   N1    S    
C22   C24   A    
C30   F1    S    
C28   O8    A    
C4    O4    A    
Cu1   O1    S    
C10   H21   S    
C27   H3    S    
C33   H10   S    
C15   C17   A    
C8    C14   A    
C5    H16   S    
C12   C30   A    
C12   H1    S    
C3    C5    A    
C6    C7    A    
Cu2   O8    S    
C1    O2    A    
C22   H6    S    
C32   C33   A    
C37   F2    S    
C2    C3    A    
C11   C13   A    
C38   C39   A    
C20   C26   A    
C16   C19   S    
C23   C39   A    
C33   C35   A    
C34   C36   A    
C27   N1    A    
C10   C11   A    
C8    H19   S    
Cu1   O5    S    
C2    C40   A    
C20   C21   A    
C14   C15   A    
C21   C22   A    
C28   O7    A    
C4    O3    A    
C29   H8    S    
