data_mof_unit_10743.cif
_audit_creation_date              2012-12-11T15:30:42-0500
_audit_creation_method            fapswitch 2.2
_symmetry_space_group_name_H-M    P1
_symmetry_Int_Tables_number       1
_space_group_crystal_system       triclinic
_cell_length_a                    6.966957
_cell_length_b                    20.476593
_cell_length_c                    24.38809
_cell_angle_alpha                 89.812791
_cell_angle_beta                  90.486278
_cell_angle_gamma                 89.572175
_cell_volume                      3478.95217852

loop_
_atom_site_label
_atom_site_type_symbol
_atom_type_description
_atom_site_fract_x
_atom_site_fract_y
_atom_site_fract_z
_atom_type_partial_charge
O1    O     O_R   0.507310 0.423620 0.460450 -0.536801
O2    O     O_R   0.170760 0.556060 0.437190 -0.536088
O3    O     O_R   0.004040 0.576380 0.539550 -0.533841
C1    C     C_R   0.338814 0.576146 0.421276 0.721127
O4    O     O_R   0.177350 0.422870 0.454070 -0.536029
O5    O     O_R   0.010680 0.442240 0.556560 -0.527559
C2    C     C_R   0.345828 0.399097 0.442979 0.698560
O6    O     O_R   0.500670 0.557760 0.443440 -0.537112
O7    O     O_3   0.340380 0.506510 0.533610 -0.362423
V1    V     V_3+5 0.064130 0.498790 0.493770 1.480393
O8    O     O_R   0.681170 0.443940 0.562810 -0.537600
C3    C     C_R   0.850720 0.423998 0.578654 0.713991
O9    O     O_R   0.674570 0.577130 0.545930 -0.537427
C4    C     C_R   0.843027 0.601029 0.556390 0.710119
V2    V     V_3+5 0.564560 0.501210 0.506230 1.478753
O10   O     O_3   0.838170 0.493490 0.466390 -0.372447
C5    C     C_R   0.976337 0.837974 0.911886 -0.047346
C6    C     C_R   0.852059 0.660714 0.589892 -0.163497
C7    C     C_R   0.051204 0.722906 0.905787 -0.149350
C8    C     C_R   0.039140 0.779916 0.936416 -0.166852
C9    C     C_R   0.924844 0.838820 0.856072 -0.205792
C10   C     C_R   0.940562 0.781553 0.823363 0.110055
C11   C     C_R   0.004748 0.723315 0.849690 0.132197
C12   C     C_R   0.901002 0.780293 0.765432 -0.032887
C13   C     C_R   0.916837 0.720336 0.735761 0.084978
C14   C     C_R   0.991196 0.665108 0.763740 -0.084067
C15   C     C_R   0.030363 0.666324 0.819556 -0.217926
C16   C     C_R   0.851684 0.837264 0.735963 -0.205553
C17   C     C_R   0.829017 0.837343 0.679251 0.409587
C18   C     C_R   0.853920 0.778902 0.649076 -0.077456
C19   C     C_R   0.874549 0.718654 0.677989 -0.044821
C20   C     C_R   0.862476 0.779390 0.590990 0.390547
C21   C     C_R   0.865461 0.720137 0.562402 -0.283209
C22   C     C_R   0.850424 0.659247 0.648087 0.308173
H1    H     H_    0.086802 0.622476 0.839064 0.144008
H2    H     H_    0.872849 0.720344 0.518000 0.144474
H3    H     H_    0.101537 0.678554 0.925783 0.123364
H4    H     H_    0.080976 0.778947 0.979312 0.115116
H5    H     H_    0.878183 0.885154 0.839502 0.099685
H6    H     H_    0.032412 0.621007 0.742756 0.189742
H7    H     H_    0.831835 0.883743 0.755685 0.153228
C23   C     C_3   0.778393 0.259534 0.804136 -0.370127
C24   C     C_3   0.128386 0.244719 0.782744 0.159776
C25   C     C_3   0.109373 0.292957 0.732041 0.561870
H8    H     H_    0.803288 0.359780 0.775413 0.148311
H9    H     H_    0.811603 0.284191 0.843672 0.131615
H10   H     H_    0.157534 0.273931 0.820436 0.109532
C26   C     C_1   0.862934 0.378768 0.624423 -0.103423
C27   C     C_3   0.935956 0.207767 0.791544 0.025268
C28   C     C_3   0.762657 0.311810 0.757610 0.138627
C29   C     C_3   0.897651 0.293154 0.708967 -0.043854
C30   C     C_3   0.837229 0.222710 0.690895 0.097576
C31   C     C_3   0.880972 0.172475 0.737396 -0.340293
C32   C     C_1   0.876564 0.340491 0.662447 0.114676
C33   C     C_1   0.951001 0.160061 0.837783 -0.012214
C34   C     C_1   0.961988 0.121514 0.875690 -0.191074
H11   H     H_    0.752277 0.141590 0.743912 0.174631
H12   H     H_    0.999818 0.139175 0.725195 0.222589
H13   H     H_    0.679377 0.222758 0.683552 0.211229
H14   H     H_    0.638613 0.234642 0.809541 0.223873
C35   C     C_3   0.592688 0.703492 0.267968 -0.405339
C36   C     C_3   0.246751 0.693244 0.243615 -0.424588
C37   C     C_3   0.271149 0.743192 0.195556 0.244840
H15   H     H_    0.672232 0.729204 0.183780 0.187159
H16   H     H_    0.616722 0.653597 0.251258 0.171276
H17   H     H_    0.095360 0.694001 0.257611 0.153380
H18   H     H_    0.274382 0.642678 0.228827 0.178912
H19   H     H_    0.133763 0.770974 0.189984 0.077754
C38   C     C_1   0.475278 0.878507 0.124759 -0.162262
C39   C     C_3   0.386566 0.708633 0.291860 0.125324
C40   C     C_3   0.622150 0.754530 0.221388 -0.330248
C41   C     C_3   0.433322 0.792893 0.209060 0.173115
C42   C     C_3   0.375697 0.829636 0.262105 -0.468910
C43   C     C_3   0.349531 0.780795 0.311366 0.619369
C44   C     C_1   0.459285 0.840188 0.162775 0.006325
C45   C     C_1   0.363399 0.660578 0.337743 0.043437
C46   C     C_1   0.348614 0.621856 0.375508 -0.145642
H20   H     H_    0.486332 0.866772 0.272099 0.188908
H21   H     H_    0.703084 0.710043 0.300601 0.185831
H22   H     H_    0.737146 0.789085 0.233729 0.161408
H23   H     H_    0.240813 0.857630 0.254165 0.187275
C47   C     C_R   0.469579 0.162312 0.088705 -0.058866
C48   C     C_R   0.346519 0.338458 0.410038 -0.092201
C49   C     C_R   0.503255 0.279692 0.090771 -0.133681
C50   C     C_R   0.510430 0.220990 0.062172 -0.166238
C51   C     C_R   0.421274 0.163119 0.144701 -0.115994
C52   C     C_R   0.398091 0.222961 0.173692 0.125612
C53   C     C_R   0.449647 0.281052 0.146177 0.097655
C54   C     C_R   0.334238 0.226905 0.229533 -0.141848
C55   C     C_R   0.361299 0.286427 0.259839 -0.014674
C56   C     C_R   0.400100 0.344424 0.229493 0.369881
C57   C     C_R   0.444631 0.340545 0.173569 -0.268730
C58   C     C_R   0.229453 0.175958 0.254880 0.257781
C59   C     C_R   0.193171 0.177050 0.311191 0.341423
C60   C     C_R   0.256229 0.229762 0.343762 -0.052362
C61   C     C_R   0.335897 0.286096 0.318561 0.066190
C62   C     C_R   0.234549 0.227684 0.401242 -0.108781
C63   C     C_R   0.272779 0.281979 0.433420 -0.128216
C64   C     C_R   0.388576 0.339131 0.353674 -0.127853
H24   H     H_    0.475455 0.384915 0.150994 0.117157
H25   H     H_    0.462377 0.381612 0.339046 0.162578
H26   H     H_    0.241116 0.280319 0.476838 0.142675
H27   H     H_    0.539242 0.324368 0.069364 0.119686
H28   H     H_    0.549641 0.221267 0.019271 0.107408
H29   H     H_    0.410802 0.116675 0.165418 0.154760
H30   H     H_    0.182813 0.184585 0.422002 0.160407
O11   O     O_R   0.323590 0.942280 0.056590 -0.533634
O12   O     O_R   0.647030 0.077140 0.045940 -0.532365
O13   O     O_R   0.813570 0.057750 0.943430 -0.537588
C65   C     C_R   0.478088 0.100749 0.057226 0.705484
O14   O     O_R   0.653510 0.943950 0.062820 -0.535001
O15   O     O_R   0.820100 0.923600 0.960440 -0.539179
C66   C     C_R   0.485418 0.923923 0.078781 0.728750
O16   O     O_R   0.317060 0.076430 0.039590 -0.530451
O17   O     O_3   0.483830 0.993520 0.966410 -0.372675
V3    V     V_3+5 0.760140 0.001200 0.006230 1.469353
O18   O     O_R   0.149560 0.922820 0.954030 -0.539181
C67   C     C_R   0.981381 0.898688 0.943859 0.692092
O19   O     O_R   0.143080 0.056020 0.937150 -0.539657
C68   C     C_R   0.973571 0.076041 0.921346 0.719466
V4    V     V_3+5 0.259690 0.998730 0.993720 1.457570
O20   O     O_3   0.986120 0.006480 0.033580 -0.356819
O21   O     O_3   0.879288 0.837825 0.562902 -0.605436
H31   H     H_    0.884833 0.829276 0.522937 0.327267
O22   O     O_3   0.281450 0.200259 0.775736 -0.626180
H32   H     H_    0.320960 0.184520 0.812714 0.290466
Br1   Br    Br    0.177248 0.381435 0.756499 -0.572352
O23   O     O_3   0.239836 0.277798 0.689974 -0.572546
H33   H     H_    0.239027 0.230178 0.683390 0.363676
O24   O     O_3   0.808872 0.602413 0.676403 -0.647733
H34   H     H_    0.794041 0.565191 0.651067 0.279963
O25   O     O_3   0.571743 0.316619 0.739698 -0.576583
H35   H     H_    0.559579 0.358347 0.719086 0.347148
Br2   Br    Br    0.937959 0.193533 0.620390 -0.502407
O26   O     O_3   0.313229 0.710034 0.146670 -0.640225
H36   H     H_    0.192457 0.688929 0.134424 0.284708
O27   O     O_3   0.473169 0.796637 0.355357 -0.597252
H37   H     H_    0.604276 0.803354 0.341008 0.314982
Br3   Br    Br    0.088780 0.790667 0.339807 -0.555321
O28   O     O_3   0.089062 0.126135 0.332927 -0.587618
H38   H     H_    0.995954 0.144435 0.359337 0.306248
O29   O     O_3   0.774309 0.895618 0.655173 -0.594400
H39   H     H_    0.671988 0.885854 0.627992 0.339031
O30   O     O_3   0.373814 0.405148 0.252894 -0.663828
H40   H     H_    0.405005 0.439975 0.226123 0.284124
Br4   Br    Br    0.075960 0.114500 0.213401 -0.503593

loop_
_geom_bond_atom_site_label_1
_geom_bond_atom_site_label_2
_ccdc_geom_bond_type
C35   C39   S    
C13   C19   A    
C2    C48   S    
C33   C34   T    
C25   Br1   S    
C58   C59   A    
O17   V4    S    
C31   H12   S    
C30   Br2   S    
C42   C43   S    
C4    C6    S    
O2    C1    A    
C60   C61   A    
C1    O6    A    
O23   H33   S    
C24   O22   S    
C62   C63   A    
O21   H31   S    
C26   C32   T    
C38   C66   S    
C14   C15   A    
C17   C18   A    
V3    O20   S    
C36   H18   S    
C47   C65   S    
C16   C17   A    
O5    C3    A    
C18   C19   A    
V2    O10   S    
C61   C64   A    
C16   H7    S    
C21   H2    S    
C59   O28   S    
C36   C39   S    
C23   H9    S    
H15   C40   S    
O18   V4    S    
O11   C66   A    
C7    H3    S    
O13   V3    S    
O16   V4    S    
O8    V2    S    
C49   C50   A    
C53   C57   A    
O25   H35   S    
C48   C63   A    
C39   C43   S    
C42   H20   S    
O14   V3    S    
O1    V2    S    
C11   C15   A    
C18   C20   A    
O7    V1    S    
C65   O16   A    
C3    C26   S    
C35   C40   S    
C48   C64   A    
O9    C4    A    
C34   C68   S    
C20   O21   S    
C41   C44   S    
C42   H23   S    
C40   H22   S    
C45   C46   T    
O19   V4    S    
C43   O27   S    
C36   H17   S    
C29   C30   S    
C49   C53   A    
O26   H36   S    
O28   H38   S    
C23   H14   S    
C56   C57   A    
O4    C2    A    
C31   H11   S    
C51   C52   A    
C24   C27   S    
C15   H1    S    
C13   C14   A    
C27   C33   S    
C5    C9    A    
C37   O26   S    
C7    C11   A    
C24   C25   S    
C36   C37   S    
C30   H13   S    
C63   H26   S    
C8    H4    S    
C9    H5    S    
O19   C68   A    
C28   C29   S    
C19   C22   A    
C58   Br4   S    
O14   C66   A    
C12   C13   A    
C6    C22   A    
V4    O20   S    
C50   H28   S    
C28   O25   S    
C5    C67   S    
C23   C28   S    
C62   H30   S    
C25   C29   S    
C64   H25   S    
O6    V2    S    
C52   C54   A    
C39   C45   S    
O22   H32   S    
C10   C12   A    
C51   H29   S    
O11   V4    S    
O2    V1    S    
O15   V3    S    
C30   C31   S    
C57   H24   S    
C56   O30   S    
O27   H37   S    
C37   H19   S    
C25   O23   S    
O1    C2    A    
C5    C8    A    
C12   C16   A    
C41   C42   S    
O5    V1    S    
O8    C3    A    
C60   C62   A    
C55   C61   A    
O3    C4    A    
C47   C50   A    
C43   Br3   S    
O30   H40   S    
C29   C32   S    
C20   C21   A    
O12   V3    S    
C7    C8    A    
O9    V2    S    
O24   H34   S    
O7    V2    S    
C1    C46   S    
O3    V1    S    
C47   C51   A    
O18   C67   A    
O15   C67   A    
C14   H6    S    
C55   C56   A    
H8    C28   S    
C35   H21   S    
C27   C31   S    
C17   O29   S    
O12   C65   A    
C38   C44   T    
C54   C58   A    
C59   C60   A    
C6    C21   A    
C23   C27   S    
C35   H16   S    
O4    V1    S    
C40   C41   S    
C37   C41   S    
C22   O24   S    
C52   C53   A    
O29   H39   S    
C49   H27   S    
C10   C11   A    
V1    O10   S    
C54   C55   A    
C9    C10   A    
C24   H10   S    
O17   V3    S    
O13   C68   A    
