data_mof_unit_36978.cif
_audit_creation_date              2012-12-10T16:57:49-0500
_audit_creation_method            fapswitch 2.2
_symmetry_space_group_name_H-M    P1
_symmetry_Int_Tables_number       1
_space_group_crystal_system       triclinic
_cell_length_a                    7.970253
_cell_length_b                    8.510932
_cell_length_c                    19.075653
_cell_angle_alpha                 95.55048
_cell_angle_beta                  81.399299
_cell_angle_gamma                 93.599873
_cell_volume                      1271.89685688

loop_
_atom_site_label
_atom_site_type_symbol
_atom_type_description
_atom_site_fract_x
_atom_site_fract_y
_atom_site_fract_z
_atom_type_partial_charge
C1    C     C_R   0.544693 0.794082 0.498851 0.975519
C2    C     C_R   0.587544 0.378499 0.166995 0.283351
C3    C     C_R   0.430842 0.429769 0.854018 -0.229808
C4    C     C_R   0.462108 0.464480 0.144837 -0.232321
C5    C     C_R   0.543372 0.339413 0.804609 0.441325
C6    C     C_R   0.368322 0.574110 0.192450 0.438536
C7    C     C_R   0.562334 0.367200 0.733308 -0.272361
C8    C     C_R   0.387788 0.584113 0.263869 -0.291487
C9    C     C_R   0.479874 0.489816 0.711302 -0.265261
C10   C     C_R   0.514253 0.503248 0.287081 -0.244788
C11   C     C_R   0.448710 0.456250 0.069848 0.459493
C12   C     C_R   0.455314 0.205903 0.501076 0.935664
C13   C     C_R   0.442044 0.430107 0.929021 0.443403
C14   C     C_2   0.566779 0.958473 0.502130 -0.296273
C15   C     C_2   0.433054 0.041554 0.498213 -0.290102
C16   C     C_R   0.495314 0.502185 0.634748 0.961359
C17   C     C_R   0.505666 0.500828 0.364850 0.924195
C18   C     C_R   0.373317 0.586919 0.761329 0.271098
C19   C     C_R   0.631542 0.417992 0.235870 0.321421
C20   C     C_R   0.335269 0.546001 0.832300 0.305148
H1    H     H_    0.643654 0.294041 0.694471 0.217117
H2    H     H_    0.040231 0.692273 0.094951 0.403837
H3    H     H_    0.895822 0.061951 0.395943 0.397929
H4    H     H_    0.103614 0.935675 0.606510 0.395112
H5    H     H_    0.307104 0.659893 0.301712 0.220346
H6    H     H_    0.691345 0.010738 0.509714 0.237154
H7    H     H_    0.308324 0.989273 0.490871 0.238189
H8    H     H_    0.542422 0.863330 0.682401 0.379657
H9    H     H_    0.022707 0.481060 0.318721 0.385141
H10   H     H_    0.173004 0.833238 0.977897 0.408049
H11   H     H_    0.602831 0.036465 0.032941 0.404978
H12   H     H_    0.612227 0.994250 0.894144 0.404217
N1    N     N_R   0.333439 0.338869 0.971436 -0.016029
N2    N     N_R   0.557967 0.546157 0.027306 -0.100473
N3    N     N_R   0.336474 0.352143 0.041214 -0.005903
N4    N     N_R   0.553595 0.534216 0.957826 -0.093709
N5    N     N_2   0.950330 0.457950 0.481240 0.106246
N6    N     N_2   0.049670 0.542050 0.518760 0.111324
O1    O     O_R   0.389250 0.738570 0.504600 -0.568543
O2    O     O_2   0.310730 0.895274 0.797354 -0.178622
O3    O     O_3   0.432740 0.830464 0.665610 -0.544257
O4    O     O_2   0.830898 0.223042 0.281967 -0.207288
O5    O     O_2   0.961797 0.373172 0.184147 -0.178564
O6    O     O_3   0.916472 0.521997 0.308156 -0.497945
O7    O     O_2   0.040151 0.704576 0.860370 -0.183878
O8    O     O_2   0.086601 0.523085 0.945096 -0.229464
O9    O     O_3   0.266768 0.787514 0.943496 -0.488007
O10   O     O_2   0.821096 0.290303 0.055370 -0.191716
O11   O     O_2   0.759275 0.106243 0.148361 -0.188299
O12   O     O_R   0.610750 0.261430 0.495400 -0.580579
O13   O     O_3   0.539203 0.119717 0.063810 -0.496354
O14   O     O_2   0.743147 0.091633 0.767299 -0.269171
O15   O     O_2   0.803988 0.274982 0.868658 -0.205929
O16   O     O_3   0.540303 0.080527 0.887069 -0.484657
O17   O     O_2   0.115914 0.777195 0.226361 -0.228386
O18   O     O_2   0.342563 0.835929 0.129539 -0.229517
O19   O     O_3   0.117911 0.612728 0.104190 -0.478695
O20   O     O_2   0.165996 0.261568 0.401027 -0.291368
O21   O     O_2   0.016587 0.177564 0.515757 -0.309298
O22   O     O_3   0.855622 0.170257 0.408722 -0.480060
O23   O     O_R   0.678400 0.711620 0.492580 -0.556996
O24   O     O_2   0.984306 0.823718 0.485387 -0.313115
O25   O     O_2   0.833474 0.737430 0.599342 -0.284376
O26   O     O_3   0.143905 0.827646 0.592894 -0.440483
O27   O     O_R   0.321600 0.288380 0.507420 -0.556566
O28   O     O_R   0.355380 0.513500 0.607880 -0.565411
O29   O     O_R   0.644620 0.486500 0.392120 -0.543839
O30   O     O_R   0.644530 0.486550 0.595850 -0.595088
O31   O     O_R   0.355470 0.513450 0.404150 -0.614574
O32   O     O_2   0.127977 0.741085 0.721409 -0.156968
S1    S     S_3+6 0.306934 0.767632 0.737312 0.140082
S2    S     S_3+6 0.839329 0.380224 0.252170 0.144073
S3    S     S_3+6 0.173882 0.639631 0.895635 0.122945
S4    S     S_3+6 0.684106 0.221209 0.108244 0.131256
S5    S     S_3+6 0.665204 0.194031 0.831054 0.097225
S6    S     S_3+6 0.233486 0.706066 0.163936 0.101299
S7    S     S_3+6 0.003995 0.265878 0.452352 0.153680
S8    S     S_3+6 0.995969 0.733765 0.548385 0.172782
Zn1   Zn    Zn3+2 0.306930 0.517990 0.508030 1.169848
Zn2   Zn    Zn3+2 0.693070 0.482010 0.491970 1.173528

loop_
_geom_bond_atom_site_label_1
_geom_bond_atom_site_label_2
_ccdc_geom_bond_type
O30   Zn2   S    
C17   O31   A    
O5    S2    D    
O27   Zn1   S    
O2    S1    D    
O13   S4    S    
O14   S5    D    
O21   S7    D    
H2    O19   S    
O28   Zn1   S    
O18   S6    D    
O19   S6    S    
C9    C16   S    
N6    Zn1   S    
C10   C17   S    
H8    O3    S    
O7    S3    D    
O20   S7    D    
O32   S1    D    
C16   O30   A    
N2    N4    A    
C3    C13   S    
O3    S1    S    
H4    O26   S    
C8    H5    S    
C19   S2    S    
O15   S5    D    
H12   O16   S    
H3    O22   S    
N5    Zn2   S    
O22   S7    S    
C17   O29   A    
O10   S4    D    
H10   O9    S    
O9    S3    S    
C13   N4    A    
C4    C6    A    
C5    C7    A    
C6    C8    A    
N6    S8    S    
C7    H1    S    
N5    S7    S    
C1    O23   A    
O1    Zn1   S    
C5    S5    S    
C2    C4    A    
C13   N1    A    
N5    N6    D    
C15   H7    S    
C12   C15   S    
C10   C19   A    
O4    S2    D    
C3    C20   A    
C14   H6    S    
C4    C11   S    
C2    S4    S    
O17   S6    D    
H9    O6    S    
O31   Zn1   S    
C16   O28   A    
C18   S1    S    
C7    C9    A    
C2    C19   A    
C14   C15   D    
O26   S8    S    
O24   S8    D    
C11   N2    A    
O29   Zn2   S    
H11   O13   S    
C3    C5    A    
O12   Zn2   S    
C12   O12   A    
C6    S6    S    
C12   O27   A    
C11   N3    A    
N1    N3    A    
C20   S3    S    
O6    S2    S    
C18   C20   A    
C1    O1    A    
O16   S5    S    
C9    C18   A    
C8    C10   A    
O11   S4    D    
C1    C14   S    
O23   Zn2   S    
O8    S3    D    
O25   S8    D    
