data_mof_unit_15906.cif
_audit_creation_date              2012-12-10T17:42:16-0500
_audit_creation_method            fapswitch 2.2
_symmetry_space_group_name_H-M    P1
_symmetry_Int_Tables_number       1
_space_group_crystal_system       triclinic
_cell_length_a                    15.099136
_cell_length_b                    13.689462
_cell_length_c                    10.769775
_cell_angle_alpha                 89.792686
_cell_angle_beta                  89.738701
_cell_angle_gamma                 89.992512
_cell_volume                      2226.06450884

loop_
_atom_site_label
_atom_site_type_symbol
_atom_type_description
_atom_site_fract_x
_atom_site_fract_y
_atom_site_fract_z
_atom_type_partial_charge
C1    C     C_R   0.328861 0.500196 0.497026 0.855028
C2    C     C_3   0.586136 0.541865 0.926534 -0.482943
C3    C     C_R   0.813442 0.560704 0.410527 0.056835
C4    C     C_R   0.768028 0.500019 0.495698 -0.106041
C5    C     C_R   0.814759 0.437699 0.576209 0.061923
C6    C     C_R   0.908094 0.436265 0.572316 0.077264
C7    C     C_R   0.953810 0.498262 0.487846 -0.007122
C8    C     C_R   0.906205 0.559676 0.406854 0.055737
C9    C     C_R   0.956769 0.374741 0.651469 -0.206840
C10   C     C_R   0.048623 0.374899 0.648147 -0.165156
C11   C     C_R   0.094100 0.436806 0.566538 0.118900
C12   C     C_R   0.499597 0.499918 0.259710 0.774244
C13   C     C_R   0.047372 0.499293 0.485165 0.004222
C14   C     C_R   0.093929 0.562730 0.402272 0.070872
C15   C     C_R   0.043910 0.622652 0.319648 0.133071
C16   C     C_R   0.952001 0.619964 0.323329 -0.158815
C17   C     C_R   0.185921 0.437204 0.566783 -0.224117
C18   C     C_R   0.232572 0.500918 0.489865 -0.097214
C19   C     C_R   0.187845 0.563765 0.406641 0.092642
C20   C     C_R   0.443953 0.793050 0.577854 0.019400
C21   C     C_R   0.442350 0.206418 0.575252 0.048270
C22   C     C_R   0.555099 0.793566 0.421089 0.004451
C23   C     C_R   0.556848 0.206934 0.423409 0.016098
C24   C     C_R   0.556935 0.896606 0.419864 -0.002107
C25   C     C_R   0.557759 0.103842 0.420901 -0.004590
C26   C     C_R   0.671269 0.500049 0.499153 0.843621
C27   C     C_R   0.499750 0.948168 0.499735 0.090738
C28   C     C_R   0.499791 0.051809 0.499709 0.085162
C29   C     C_R   0.442266 0.896140 0.579248 -0.012173
C30   C     C_R   0.441569 0.103380 0.578066 -0.014860
C31   C     C_R   0.614241 0.949072 0.340884 -0.199034
C32   C     C_R   0.614864 0.051761 0.341703 -0.195992
C33   C     C_R   0.384089 0.050929 0.656820 -0.179308
C34   C     C_R   0.384665 0.948227 0.657738 -0.198761
C35   C     C_R   0.498659 0.499621 0.740389 0.879234
C36   C     C_3   0.415631 0.554499 0.073844 -0.438203
C37   C     C_3   0.492509 0.392148 0.074892 -0.412160
C38   C     C_3   0.419922 0.566766 0.930367 0.396189
C39   C     C_3   0.490688 0.389120 0.931505 0.393045
C40   C     C_3   0.584655 0.545613 0.069931 -0.419734
C41   C     C_3   0.498330 0.498825 0.122014 0.046080
C42   C     C_3   0.497094 0.498447 0.878479 0.059826
Cu1   Cu    Cu3+1 0.499990 0.597420 0.500010 0.944594
Cu2   Cu    Cu3+1 0.499990 0.402580 0.500010 0.976703
H1    H     H_    0.409682 0.626844 0.119964 0.167888
H2    H     H_    0.549453 0.349312 0.111618 0.156416
H3    H     H_    0.084317 0.326859 0.710613 0.157771
H4    H     H_    0.221650 0.389360 0.629689 0.188095
H5    H     H_    0.916482 0.667022 0.259561 0.197731
H6    H     H_    0.400389 0.751910 0.638656 0.161160
H7    H     H_    0.396728 0.247115 0.632660 0.175261
H8    H     H_    0.597321 0.752910 0.358595 0.118706
H9    H     H_    0.601207 0.248066 0.363741 0.123441
H10   H     H_    0.658761 0.910702 0.278762 0.140007
H11   H     H_    0.659838 0.090417 0.280184 0.137320
H12   H     H_    0.338886 0.089318 0.717950 0.167846
H13   H     H_    0.339909 0.909564 0.719571 0.149099
H14   H     H_    0.355257 0.512822 0.100669 0.194531
H15   H     H_    0.432277 0.356817 0.114582 0.210032
H16   H     H_    0.589976 0.622767 0.101166 0.183496
H17   H     H_    0.643266 0.505632 0.106295 0.163554
H18   H     H_    0.598768 0.615987 0.888082 0.199176
H19   H     H_    0.644038 0.499210 0.893537 0.178254
H20   H     H_    0.924690 0.326033 0.716912 0.142904
N1    N     N_R   0.499930 0.743810 0.499950 -0.188579
N2    N     N_R   0.499930 0.256190 0.499950 -0.187788
O1    O     O_R   0.370250 0.582280 0.500040 -0.586112
O2    O     O_R   0.370250 0.417720 0.500040 -0.584416
O3    O     O_R   0.499970 0.582270 0.317700 -0.599362
O4    O     O_R   0.499970 0.417730 0.317700 -0.598795
O5    O     O_R   0.629730 0.582260 0.499980 -0.601254
O6    O     O_R   0.629730 0.417740 0.499980 -0.560836
O7    O     O_R   0.500000 0.582270 0.682320 -0.567234
O8    O     O_R   0.500000 0.417730 0.682320 -0.532467
N3    N     N_3   0.237883 0.626436 0.325510 -0.620246
H21   H     H_    0.285195 0.585126 0.278047 0.215178
H22   H     H_    0.269091 0.680392 0.377877 0.248136
N4    N     N_3   0.082547 0.687582 0.229839 -0.583914
H23   H     H_    0.118958 0.741605 0.275087 0.250468
H24   H     H_    0.121882 0.647888 0.167869 0.268857
Br1   Br    Br    0.303253 0.537921 0.858566 -0.534483
Br2   Br    Br    0.382275 0.319663 0.882352 -0.559566
N5    N     N_3   0.436955 0.670239 0.898774 -0.576562
H25   H     H_    0.484309 0.700753 0.957511 0.205898
H26   H     H_    0.379475 0.711049 0.914744 0.237021
N6    N     N_3   0.565059 0.328880 0.885510 -0.555484
H27   H     H_    0.624131 0.345821 0.930708 0.191250
H28   H     H_    0.552750 0.255532 0.907001 0.240940
N7    N     N_3   0.766233 0.622936 0.325858 -0.617004
H29   H     H_    0.736136 0.678827 0.376382 0.237410
H30   H     H_    0.718148 0.582152 0.279733 0.206991
N8    N     N_3   0.766114 0.378598 0.663571 -0.575238
H31   H     H_    0.785478 0.397012 0.753579 0.209063
H32   H     H_    0.780451 0.305047 0.647156 0.226461

loop_
_geom_bond_atom_site_label_1
_geom_bond_atom_site_label_2
_ccdc_geom_bond_type
Cu1   O7    S    
C12   O3    A    
C35   O8    A    
C40   H16   S    
C21   N2    A    
C27   C29   A    
C9    H20   S    
C26   O6    A    
Cu2   N2    S    
C24   C27   A    
Cu1   Cu2   S    
C6    C9    A    
C7    C8    A    
C25   C28   A    
C1    C18   S    
C23   N2    A    
C38   C42   S    
C36   H14   S    
C5    C6    A    
C38   N5    S    
N4    H24   S    
C15   N4    S    
C15   C16   A    
C1    O2    A    
C18   C19   A    
C35   C42   S    
C20   H6    S    
C11   C17   A    
C31   C32   A    
C34   H13   S    
C17   H4    S    
Cu2   O4    S    
N7    H30   S    
C9    C10   A    
C32   H11   S    
C33   H12   S    
C8    C16   A    
C13   C14   A    
C26   O5    A    
C36   C41   S    
C17   C18   A    
C39   C42   S    
C20   C29   A    
C20   N1    A    
C16   H5    S    
C3    C8    A    
N4    H23   S    
C29   C34   A    
C40   H17   S    
N3    H21   S    
C22   N1    A    
C12   C41   S    
N5    H25   S    
Cu1   N1    S    
N8    H32   S    
C33   C34   A    
C36   H1    S    
Cu2   O8    S    
N3    H22   S    
C37   H15   S    
C40   C41   S    
N5    H26   S    
C38   Br1   S    
C22   C24   A    
Cu2   O2    S    
C3    C4    A    
C21   H7    S    
C2    H19   S    
C22   H8    S    
C12   O4    A    
C35   O7    A    
Cu1   O5    S    
C30   C33   A    
N6    H27   S    
C14   C19   A    
C39   Br2   S    
C4    C5    A    
C4    C26   S    
C6    C7    A    
C21   C30   A    
C3    N7    S    
C19   N3    S    
N7    H29   S    
C24   C31   A    
C28   C30   A    
C37   C39   S    
C11   C13   A    
C2    C42   S    
C23   H9    S    
C36   C38   S    
N8    H31   S    
C1    O1    A    
Cu2   O6    S    
N6    H28   S    
C23   C25   A    
C31   H10   S    
C37   C41   S    
C5    N8    S    
C10   C11   A    
C2    C40   S    
C7    C13   A    
Cu1   O1    S    
C10   H3    S    
C14   C15   A    
C39   N6    S    
C37   H2    S    
Cu1   O3    S    
C2    H18   S    
C27   C28   A    
C25   C32   A    
