data_mof_unit_44779.cif
_audit_creation_date              2013-03-05T15:44:19-0500
_audit_creation_method            fapswitch 2.2
_symmetry_space_group_name_H-M    P1
_symmetry_Int_Tables_number       1
_space_group_crystal_system       triclinic
_cell_length_a                    23.492897
_cell_length_b                    10.896584
_cell_length_c                    9.716933
_cell_angle_alpha                 90.2144
_cell_angle_beta                  90.365649
_cell_angle_gamma                 90.635427
_cell_volume                      2487.23857351

loop_
_atom_site_label
_atom_site_type_symbol
_atom_site_description
_atom_site_fract_x
_atom_site_fract_y
_atom_site_fract_z
_atom_type_partial_charge
O1    O     O_R   0.500010 0.321960 0.617040 -0.571397
O2    O     O_R   0.499990 0.321920 0.382900 -0.583704
C1    C     C_R   0.500543 0.265368 0.499736 0.882702
O3    O     O_R   0.417890 0.499980 0.617100 -0.535983
O4    O     O_R   0.417870 0.499940 0.382950 -0.594107
C2    C     C_R   0.391139 0.497918 0.499683 0.865855
Cu1   Cu    Cu3+1 0.500010 0.500020 0.638630 0.998518
Cu2   Cu    Cu3+1 0.499990 0.499980 0.361370 0.951926
O5    O     O_R   0.500010 0.678080 0.617100 -0.590196
O6    O     O_R   0.499990 0.678040 0.382960 -0.555906
O7    O     O_R   0.582130 0.500060 0.617050 -0.622583
O8    O     O_R   0.582110 0.500020 0.382900 -0.573309
C3    C     C_R   0.495335 0.734474 0.499966 0.750540
C4    C     C_R   0.609054 0.502055 0.500266 0.815786
C5    C     C_R   0.882334 0.622519 0.541998 0.603713
N1    N     N_R   0.852166 0.519927 0.502784 -0.451943
C6    C     C_R   0.878849 0.413310 0.467927 0.627351
C7    C     C_R   0.938476 0.407583 0.469158 -0.079765
C8    C     C_R   0.970317 0.512381 0.507471 -0.007817
C9    C     C_R   0.942072 0.620996 0.544840 -0.012987
C10   C     C_R   0.966613 0.299158 0.434768 -0.193841
C11   C     C_R   0.026072 0.293185 0.437484 0.343010
C12   C     C_R   0.058817 0.399968 0.470347 -0.138188
C13   C     C_R   0.030418 0.508865 0.508063 -0.054044
C14   C     C_R   0.061921 0.614855 0.546055 -0.024099
C15   C     C_R   0.033311 0.722182 0.584170 -0.118260
C16   C     C_R   0.974033 0.725262 0.583420 -0.123568
C17   C     C_R   0.118846 0.403684 0.463691 0.559596
N2    N     N_R   0.148483 0.506984 0.503191 -0.454862
C18   C     C_R   0.121472 0.610937 0.545057 0.600989
O9    O     O_2   0.854581 0.725736 0.576815 -0.508037
O10   O     O_2   0.847666 0.313230 0.432329 -0.506928
H1    H     H_    0.942403 0.216951 0.408897 0.221385
O11   O     O_2   0.147693 0.306713 0.414764 -0.466452
O12   O     O_2   0.152265 0.710123 0.585504 -0.514347
H2    H     H_    0.056632 0.804489 0.613940 0.212584
H3    H     H_    0.953377 0.809722 0.612714 0.201996
C19   C     C_R   0.240185 0.571293 0.402684 0.508908
C20   C     C_R   0.299565 0.566955 0.402791 -0.352635
H4    H     H_    0.322960 0.621972 0.329152 0.173613
C21   C     C_R   0.328711 0.494734 0.498975 -0.211035
C22   C     C_R   0.297729 0.424635 0.596016 0.307115
C23   C     C_R   0.238336 0.432105 0.597270 -0.256343
H5    H     H_    0.214012 0.378863 0.670722 0.205284
C24   C     C_R   0.209529 0.504991 0.501977 0.186974
C25   C     C_R   0.760894 0.526535 0.373280 0.382850
C26   C     C_R   0.701273 0.518279 0.375442 -0.269349
H6    H     H_    0.677840 0.520992 0.279169 0.193962
C27   C     C_R   0.671728 0.508721 0.500322 -0.096914
C28   C     C_R   0.702387 0.508261 0.624609 -0.208760
H7    H     H_    0.680715 0.501732 0.722413 0.172223
C29   C     C_R   0.761584 0.515027 0.623941 -0.136017
H8    H     H_    0.784783 0.511965 0.720520 0.183821
C30   C     C_R   0.791155 0.523225 0.499543 0.234981
C31   C     C_2   0.487948 0.934446 0.384943 0.384766
C32   C     C_2   0.481077 0.865559 0.500117 0.201144
C33   C     C_2   0.482259 0.068879 0.392408 -0.198609
C34   C     C_2   0.503390 0.133164 0.498881 -0.265581
H9    H     H_    0.463373 0.117093 0.306394 0.152413
H10   H     H_    0.524263 0.089181 0.585292 0.178120
C35   C     C_2   0.512230 0.405865 0.924434 0.093865
N3    N     N_2   0.499380 0.498660 0.846910 0.013773
H11   H     H_    0.521200 0.318712 0.875600 0.096890
C36   C     C_2   0.520719 0.412980 0.077908 -0.080438
N4    N     N_2   0.499370 0.498630 0.153040 -0.276195
H12   H     H_    0.546111 0.342812 0.126875 0.146415
H13   H     H_    0.466249 0.547616 0.112203 0.266339
O13   O     O_3   0.506786 0.880859 0.263292 -0.615105
C37   C     C_3   0.468512 0.900250 0.152190 0.067746
H14   H     H_    0.487451 0.857142 0.059882 0.185653
H15   H     H_    0.464554 0.998804 0.126029 0.130947
C38   C     C_3   0.409783 0.840419 0.176072 -0.389639
H16   H     H_    0.415009 0.745564 0.215276 0.235420
H17   H     H_    0.386197 0.894816 0.253345 0.204475
C39   C     C_3   0.374538 0.835425 0.043944 -0.876958
H18   H     H_    0.369105 0.929235 0.001920 0.264409
H19   H     H_    0.331867 0.796064 0.066136 0.256548
H20   H     H_    0.395534 0.776340 0.966426 0.262265
O14   O     O_3   0.460060 0.920198 0.619241 -0.631999
C40   C     C_3   0.408645 0.864459 0.664576 0.059611
H21   H     H_    0.395343 0.916189 0.757257 0.192685
H22   H     H_    0.414759 0.768524 0.698793 0.171624
C41   C     C_3   0.360125 0.871162 0.558071 -0.428130
H23   H     H_    0.356909 0.966333 0.518215 0.263736
H24   H     H_    0.369107 0.808098 0.471154 0.179368
C42   C     C_3   0.303299 0.832699 0.620961 -0.755410
H25   H     H_    0.305752 0.737803 0.661872 0.237143
H26   H     H_    0.269409 0.835267 0.540875 0.298001
H27   H     H_    0.291785 0.896298 0.705677 0.268684
O15   O     O_3   0.498107 0.610348 0.908332 -0.546653
C43   C     C_3   0.550065 0.674096 0.884541 0.149655
H28   H     H_    0.539433 0.769692 0.855404 0.156192
H29   H     H_    0.575578 0.635798 0.800045 0.179851
C44   C     C_3   0.587266 0.677691 0.014666 -0.433871
H30   H     H_    0.561811 0.708148 0.104065 0.277328
H31   H     H_    0.603661 0.584495 0.036094 0.229891
C45   C     C_3   0.638084 0.764641 0.998015 -0.823744
H32   H     H_    0.664641 0.735318 0.909834 0.260824
H33   H     H_    0.664609 0.763380 0.093010 0.282329
H34   H     H_    0.623318 0.859864 0.980619 0.254528
N5    N     N_R   0.051731 0.176254 0.413517 0.164695
O16   O     O_R   0.081260 0.125314 0.511161 -0.292394
O17   O     O_R   0.035307 0.109710 0.308812 -0.316373
O18   O     O_3   0.212340 0.646472 0.310601 -0.585041
C46   C     C_3   0.195614 0.578413 0.192343 0.074228
H35   H     H_    0.150504 0.600715 0.169462 0.183166
H36   H     H_    0.197301 0.476536 0.205004 0.155009
C47   C     C_3   0.232272 0.617154 0.070022 -0.370210
H37   H     H_    0.230440 0.718429 0.057924 0.244621
H38   H     H_    0.277191 0.591226 0.089782 0.222708
C48   C     C_3   0.211922 0.556349 0.936546 -0.804969
H39   H     H_    0.213866 0.454893 0.945372 0.278514
H40   H     H_    0.239758 0.586159 0.850703 0.262354
H41   H     H_    0.167527 0.583452 0.912443 0.259426
N6    N     N_R   0.325406 0.341904 0.689292 0.142919
O19   O     O_R   0.365822 0.271135 0.645795 -0.357910
O20   O     O_R   0.304536 0.323240 0.811259 -0.364834
N7    N     N_R   0.789742 0.538212 0.243351 0.138171
O21   O     O_R   0.764146 0.505697 0.129519 -0.357781
O22   O     O_R   0.839706 0.590398 0.236048 -0.328914

loop_
_geom_bond_atom_site_label_1
_geom_bond_atom_site_label_2
_geom_bond_distance
_ccdc_geom_bond_type
C31   C32   1.359366 D    
N5    O16   1.301403 A    
C35   C36   1.504909 S    
C7    C10   1.400597 A    
C21   C22   1.415685 A    
C8    C9    1.410746 A    
C23   H5    1.083268 S    
C31   O13   1.393324 S    
O15   C43   1.418409 S    
Cu1   Cu2   2.694111 S    
C26   C27   1.405409 A    
Cu1   O7    1.941924 S    
C46   H36   1.118475 S    
C15   C16   1.393354 A    
C11   N5    1.434454 S    
C18   O12   1.349718 S    
C17   N2    1.369346 A    
C38   C39   1.523758 S    
C19   C20   1.396324 A    
C40   H21   1.109111 S    
O7    C4    1.302819 A    
C42   H26   1.110408 S    
C33   H9    1.084044 S    
C4    C27   1.473374 S    
C10   H1    1.083642 S    
C34   H10   1.085426 S    
N6    O19   1.301422 A    
C45   H32   1.111172 S    
C47   H37   1.111513 S    
C25   N7    1.442092 S    
C37   H15   1.109278 S    
C7    C8    1.405876 A    
C35   H11   1.083412 S    
O5    C3    1.300107 A    
N7    O21   1.301713 A    
C19   C24   1.405022 A    
C19   O18   1.381849 S    
C41   H23   1.111538 S    
N1    C6    1.368676 A    
N6    O20   1.301281 A    
C2    C21   1.466614 S    
C28   C29   1.391891 A    
C12   C13   1.415940 A    
C3    C32   1.470730 S    
C17   O11   1.348344 S    
Cu2   N4    2.024286 S    
N5    O17   1.301168 A    
C10   C11   1.399184 A    
C37   H14   1.108915 S    
O3    Cu1   1.939211 S    
O18   C46   1.416411 S    
C45   H33   1.110621 S    
C29   C30   1.400667 A    
C28   H7    1.083206 S    
N1    C30   1.434319 S    
C5    C9    1.403797 A    
C46   C47   1.530150 S    
C13   C14   1.411458 A    
C38   H17   1.109706 S    
C43   H28   1.111170 S    
C42   H25   1.111169 S    
O13   C37   1.418491 S    
C44   C45   1.525675 S    
N4    H13   1.026984 S    
C14   C15   1.404995 A    
O6    C3    1.296379 A    
N2    C24   1.434673 S    
O1    C1    1.294119 A    
C36   H12   1.084466 S    
C37   C38   1.538767 S    
C39   H18   1.110536 S    
Cu1   N3    2.024100 S    
N2    C18   1.366396 A    
C43   H29   1.103076 S    
C23   C24   1.398415 A    
C26   H6    1.083069 S    
Cu2   O8    1.939216 S    
C25   C30   1.414834 A    
C6    C7    1.402868 A    
C44   H30   1.109623 S    
C48   H40   1.110511 S    
C12   C17   1.412293 A    
C44   H31   1.110049 S    
C39   H19   1.108741 S    
C15   H2    1.083227 S    
C41   H24   1.109584 S    
O8    C4    1.300792 A    
C31   C33   1.473979 S    
O3    C2    1.299055 A    
C22   C23   1.398712 A    
C20   H4    1.083702 S    
C45   H34   1.110899 S    
C29   H8    1.083039 S    
C40   C41   1.537221 S    
C14   C18   1.400268 A    
Cu1   O5    1.952269 S    
C25   C26   1.402868 A    
C48   H39   1.110589 S    
O1    Cu1   1.950775 S    
O2    Cu2   1.952269 S    
C38   H16   1.110707 S    
C42   H27   1.110770 S    
O4    Cu2   1.941924 S    
C5    O9    1.349357 S    
C9    C16   1.403367 A    
C46   H35   1.111179 S    
C47   C48   1.525895 S    
C36   N4    1.290544 D    
O2    C1    1.293829 A    
C32   O14   1.395267 S    
C43   C44   1.532601 S    
C33   C34   1.337092 D    
O4    C2    1.300173 A    
C16   H3    1.083163 S    
N3    O15   1.354194 S    
C40   H22   1.108738 S    
C47   H38   1.111176 S    
C8    C13   1.412862 A    
C48   H41   1.110880 S    
C35   N3    1.300224 D    
C39   H20   1.110556 S    
N7    O22   1.301055 A    
O14   C40   1.419316 S    
C1    C34   1.442859 S    
C22   N6    1.438247 S    
C41   C42   1.526840 S    
C20   C21   1.403900 A    
Cu2   O6    1.950774 S    
C27   C28   1.402266 A    
C6    O10   1.349744 S    
C11   C12   1.421922 A    
C5    N1    1.368563 A    
