data_mof_unit_9701.cif
_audit_creation_date              2012-12-11T15:55:40-0500
_audit_creation_method            fapswitch 2.2
_symmetry_space_group_name_H-M    P1
_symmetry_Int_Tables_number       1
_space_group_crystal_system       triclinic
_cell_length_a                    6.934065
_cell_length_b                    14.564166
_cell_length_c                    16.072723
_cell_angle_alpha                 89.986443
_cell_angle_beta                  90.075885
_cell_angle_gamma                 90.049895
_cell_volume                      1623.1641092

loop_
_atom_site_label
_atom_site_type_symbol
_atom_type_description
_atom_site_fract_x
_atom_site_fract_y
_atom_site_fract_z
_atom_type_partial_charge
O1    O     O_R   0.505680 0.583900 0.413320 -0.542103
O2    O     O_R   0.176010 0.594950 0.586080 -0.545280
O3    O     O_R   0.005680 0.416100 0.586680 -0.540541
C1    C     C_R   0.345185 0.617470 0.614783 0.716882
O4    O     O_R   0.175960 0.594930 0.413930 -0.545470
O5    O     O_R   0.005640 0.416080 0.413300 -0.541207
C2    C     C_R   0.345002 0.617138 0.384967 0.678964
O6    O     O_R   0.505720 0.583920 0.586700 -0.537057
O7    O     O_3   0.339190 0.441320 0.500000 -0.371384
V1    V     V_3+5 0.064350 0.510890 0.500000 1.402300
O8    O     O_R   0.675920 0.405050 0.413920 -0.545496
C3    C     C_R   0.844749 0.383180 0.384767 0.705392
O9    O     O_R   0.675960 0.405070 0.586070 -0.538274
C4    C     C_R   0.844853 0.383301 0.615168 0.704955
V2    V     V_3+5 0.564340 0.489110 0.500000 1.411938
O10   O     O_3   0.839370 0.558680 0.500000 -0.372940
C5    C     C_R   0.005067 0.319341 0.743712 0.073439
C6    C     C_R   0.852918 0.318048 0.686025 -0.113969
C7    C     C_R   0.702448 0.254893 0.700247 -0.162523
H1    H     H_    0.581357 0.251683 0.657964 0.122330
C8    C     C_R   0.713025 0.190787 0.765790 -0.177599
H2    H     H_    0.599178 0.140491 0.772182 0.123497
C9    C     C_R   0.875219 0.187322 0.818682 -0.100104
C10   C     C_R   0.016331 0.254987 0.807911 0.082850
C11   C     C_3   0.229036 0.244918 0.798793 -0.441211
C12   C     C_3   0.217388 0.315649 0.729093 -0.215512
H3    H     H_    0.268740 0.175325 0.776345 0.161501
H4    H     H_    0.307720 0.267924 0.855480 0.174862
H5    H     H_    0.255021 0.288853 0.666483 0.123988
C13   C     C_R   0.040656 0.243784 0.203196 0.416852
C14   C     C_R   0.028401 0.305039 0.270489 -0.235993
H6    H     H_    0.154562 0.345295 0.286513 0.136066
C15   C     C_R   0.855759 0.316077 0.315134 -0.109858
C16   C     C_R   0.694700 0.263490 0.291785 -0.151314
H7    H     H_    0.559130 0.270464 0.324562 0.141517
C17   C     C_R   0.707319 0.199888 0.226725 -0.203210
H8    H     H_    0.580979 0.159311 0.211822 0.181421
C18   C     C_R   0.880209 0.188111 0.182007 -0.158224
C19   C     C_R   0.188089 0.724501 0.717465 -0.150071
H9    H     H_    0.047363 0.705835 0.693563 0.115421
C20   C     C_R   0.199053 0.787941 0.782774 -0.151259
H10   H     H_    0.066267 0.816391 0.806965 0.117925
C21   C     C_R   0.378585 0.814353 0.816193 -0.047286
C22   C     C_R   0.546830 0.775472 0.782462 -0.156725
H11   H     H_    0.687555 0.794059 0.806415 0.116594
C23   C     C_R   0.535861 0.712041 0.717147 -0.128070
H12   H     H_    0.668625 0.683512 0.693010 0.118410
C24   C     C_R   0.356348 0.685742 0.683649 -0.029771
C25   C     C_R   0.188096 0.724471 0.282272 -0.159156
H13   H     H_    0.047341 0.705952 0.306087 0.116243
C26   C     C_R   0.199278 0.788040 0.217069 -0.150371
H14   H     H_    0.066556 0.816690 0.192840 0.118453
C27   C     C_R   0.378894 0.814317 0.183796 -0.047404
C28   C     C_R   0.547011 0.775218 0.217589 -0.156668
H15   H     H_    0.687760 0.793731 0.193765 0.116519
C29   C     C_R   0.535827 0.711645 0.282795 -0.152054
H16   H     H_    0.668541 0.682984 0.307021 0.118117
C30   C     C_R   0.356214 0.685417 0.316104 -0.045455
O11   O     O_R   0.229200 0.915950 0.913350 -0.542569
O12   O     O_R   0.559090 0.905000 0.086080 -0.543776
O13   O     O_R   0.729280 0.083880 0.086680 -0.543222
C31   C     C_R   0.390070 0.882702 0.115016 0.692683
O14   O     O_R   0.558920 0.904980 0.913920 -0.544492
O15   O     O_R   0.729110 0.083860 0.913300 -0.543470
C32   C     C_R   0.389768 0.882691 0.885017 0.680899
O16   O     O_R   0.229360 0.915970 0.086730 -0.540311
O17   O     O_3   0.395680 0.058580 0.000030 -0.365739
V3    V     V_3+5 0.670570 0.989070 0.999990 1.397942
O18   O     O_R   0.058820 0.094950 0.913870 -0.541387
C33   C     C_R   0.889576 0.116971 0.885079 0.686466
O19   O     O_R   0.058990 0.094970 0.086020 -0.510667
C34   C     C_R   0.890232 0.118224 0.114207 0.716429
V4    V     V_3+5 0.170560 0.010930 0.999930 1.432759
O20   O     O_3   0.895590 0.941310 0.999960 -0.374072
C35   C     C_1   0.312724 0.402784 0.750329 0.359005
N1    N     N_1   0.388369 0.471076 0.767412 -0.380122
O21   O     O_3   0.212905 0.237175 0.160367 -0.553727
C36   C     C_3   0.216269 0.305950 0.098374 0.105295
H17   H     H_    0.196598 0.375626 0.125790 0.106991
H18   H     H_    0.101267 0.293335 0.051225 0.104827
C37   C     C_3   0.410452 0.304457 0.054420 -0.695996
H19   H     H_    0.435697 0.236208 0.025885 0.236195
H20   H     H_    0.412837 0.357347 0.004649 0.171000
H21   H     H_    0.527878 0.319359 0.099483 0.216179

loop_
_geom_bond_atom_site_label_1
_geom_bond_atom_site_label_2
_ccdc_geom_bond_type
O14   C32   A    
C20   H10   S    
C4    C6    S    
C7    H1    S    
C36   C37   S    
C1    O6    A    
C37   H19   S    
C19   C20   A    
O21   C36   S    
C11   H4    S    
C5    C12   S    
O15   V3    S    
C17   H8    S    
C7    C8    A    
C16   H7    S    
O5    C3    A    
C13   C14   A    
C36   H18   S    
V3    O20   S    
V2    O10   S    
C29   H16   S    
C13   C18   A    
O12   C31   A    
C6    C7    A    
V4    O20   S    
C28   H15   S    
C13   O21   S    
O8    V2    S    
C25   C26   A    
C9    C10   A    
C14   C15   A    
O18   V4    S    
O17   V4    S    
O15   C33   A    
O7    V1    S    
O11   V4    S    
C2    C30   S    
O9    C4    A    
C20   C21   A    
C9    C33   S    
C37   H20   S    
C22   C23   A    
C15   C16   A    
C18   C34   S    
C28   C29   A    
C5    C10   A    
C31   O16   A    
O17   V3    S    
C10   C11   S    
C19   H9    S    
O19   V4    S    
C36   H17   S    
C11   C12   S    
C27   C28   A    
O16   V4    S    
C25   C30   A    
C26   H14   S    
C26   C27   A    
O2    C1    A    
C35   N1    T    
C27   C31   S    
C14   H6    S    
C21   C32   S    
C5    C6    A    
O3    C4    A    
O1    V2    S    
O13   C34   A    
O6    V2    S    
O9    V2    S    
C21   C22   A    
O2    V1    S    
C37   H21   S    
C22   H11   S    
O4    C2    A    
C1    C24   S    
C23   H12   S    
O1    C2    A    
O5    V1    S    
O8    C3    A    
C11   H3    S    
O14   V3    S    
C8    C9    A    
O7    V2    S    
O4    V1    S    
O3    V1    S    
V1    O10   S    
O11   C32   A    
O13   V3    S    
C17   C18   A    
C29   C30   A    
C16   C17   A    
O18   C33   A    
C23   C24   A    
O19   C34   A    
O12   V3    S    
C12   H5    S    
C12   C35   S    
C25   H13   S    
C3    C15   S    
C8    H2    S    
C19   C24   A    
