data_mof_unit_59414.cif
_audit_creation_date              2012-12-11T17:01:24-0500
_audit_creation_method            fapswitch 2.2
_symmetry_space_group_name_H-M    P1
_symmetry_Int_Tables_number       1
_space_group_crystal_system       triclinic
_cell_length_a                    14.941285
_cell_length_b                    14.912847
_cell_length_c                    14.865544
_cell_angle_alpha                 110.121354
_cell_angle_beta                  108.751704
_cell_angle_gamma                 109.314836
_cell_volume                      2556.61012021

loop_
_atom_site_label
_atom_site_type_symbol
_atom_type_description
_atom_site_fract_x
_atom_site_fract_y
_atom_site_fract_z
_atom_type_partial_charge
C1    C     C_R   0.945736 0.763144 0.040996 0.527238
C2    C     C_R   0.210076 0.804554 0.301682 -0.182047
C3    C     C_R   0.973414 0.408568 0.223299 -0.124209
C4    C     C_R   0.780856 0.250558 0.685555 -0.154047
C5    C     C_R   0.313753 0.591093 0.066931 -0.145165
C6    C     C_R   0.050556 0.501655 0.326136 0.075456
C7    C     C_R   0.323836 0.498007 0.050661 0.062316
C8    C     C_R   0.301820 0.868133 0.301348 0.107140
C9    C     C_R   0.925309 0.127619 0.922072 0.134925
C10   C     C_3   0.536551 0.495481 0.967704 -0.388167
C11   C     C_3   0.435296 0.499189 0.964416 -0.518215
C12   C     C_R   0.677839 0.219923 0.672543 0.098948
C13   C     C_3   0.529102 0.392133 0.071669 -0.539399
C14   C     C_3   0.630362 0.598539 0.175612 -0.424367
C15   C     C_3   0.601181 0.495502 0.072423 0.358587
C16   C     C_R   0.095626 0.591669 0.792124 -0.151724
C17   C     C_3   0.424820 0.495737 0.063854 0.265979
C18   C     C_3   0.421704 0.389274 0.062353 0.511201
C19   C     C_3   0.525977 0.597097 0.172220 -0.378132
C20   C     C_R   0.581446 0.103511 0.471396 0.162391
C21   C     C_R   0.579915 0.160605 0.566979 -0.018379
C22   C     C_R   0.479784 0.146528 0.559567 -0.254229
C23   C     C_R   0.065938 0.501123 0.697524 0.077148
C24   C     C_R   0.382110 0.058932 0.464502 0.317573
C25   C     C_R   0.387555 0.982975 0.379681 -0.028826
C26   C     C_R   0.486865 0.015677 0.379622 0.099886
C27   C     C_3   0.542658 0.951532 0.352476 -0.489092
C28   C     C_R   0.699859 0.406648 0.003646 -0.148228
C29   C     C_3   0.646503 0.048103 0.453315 -0.511153
C30   C     C_R   0.153701 0.604763 0.530442 0.162360
C31   C     C_R   0.099165 0.505572 0.430762 0.034290
C32   C     C_R   0.074425 0.407786 0.434690 -0.199265
C33   C     C_R   0.076903 0.407103 0.529413 -0.204020
C34   C     C_R   0.698685 0.496273 0.069246 -0.009301
C35   C     C_R   0.105219 0.504492 0.619961 0.031820
C36   C     C_R   0.157118 0.604113 0.623968 0.153129
C37   C     C_3   0.146008 0.704725 0.662608 -0.514360
C38   C     C_3   0.141488 0.705260 0.560213 -0.515710
C39   C     C_R   0.841357 0.879755 0.943061 0.177705
C40   C     C_R   0.004493 0.409171 0.698784 -0.141442
C41   C     C_R   0.910663 0.845933 0.915465 -0.021145
C42   C     C_R   0.935249 0.869384 0.839401 -0.335157
C43   C     C_R   0.918238 0.948808 0.818320 0.546283
C44   C     C_R   0.882057 0.009047 0.880242 -0.168789
C45   C     C_R   0.067149 0.592579 0.313615 -0.151522
C46   C     C_R   0.825262 0.958807 0.923624 0.112947
C47   C     C_3   0.815558 0.005392 0.024508 -0.598978
C48   C     C_3   0.836399 0.922342 0.047144 -0.366406
C49   C     C_R   0.790037 0.588089 0.098839 -0.087635
C50   C     C_R   0.685611 0.247013 0.775261 -0.137698
C51   C     C_R   0.031182 0.757801 0.941973 -0.230190
C52   C     C_R   0.960271 0.792367 0.965058 -0.018287
C53   C     C_3   0.974302 0.854609 0.214525 0.121019
C54   C     C_3   0.924595 0.900008 0.282240 -0.279297
C55   C     C_3   0.984052 0.927734 0.401142 -1.022621
C56   C     C_R   0.221790 0.406834 0.973881 -0.140148
C57   C     C_3   0.366856 0.274791 0.132756 0.173186
C58   C     C_3   0.243502 0.219549 0.087976 -0.286236
C59   C     C_3   0.199886 0.112037 0.089150 -0.987517
C60   C     C_3   0.277378 0.047709 0.460677 -1.082483
C61   C     C_3   0.872164 0.964028 0.663334 0.158148
C62   C     C_3   0.813603 0.846794 0.566712 -0.284143
C63   C     C_3   0.723315 0.830301 0.467028 -1.040122
C64   C     C_R   0.297611 0.803681 0.206393 -0.146685
C65   C     C_R   0.896677 0.192763 0.984862 -0.160531
C66   C     C_R   0.995081 0.194581 0.901208 -0.161773
H1    H     H_    0.200014 0.321520 0.935051 0.083050
H2    H     H_    0.440156 0.575716 0.965364 0.189294
H3    H     H_    0.804948 0.244278 0.623653 0.110369
H4    H     H_    0.362598 0.428375 0.885475 0.168778
H5    H     H_    0.507292 0.315341 0.000611 0.119713
H6    H     H_    0.353538 0.316496 0.981542 -0.013503
H7    H     H_    0.679460 0.600933 0.251601 0.165831
H8    H     H_    0.679128 0.674977 0.178406 0.158069
H9    H     H_    0.531427 0.675522 0.179353 0.150302
H10   H     H_    0.520541 0.594126 0.244076 0.196793
H11   H     H_    0.575111 0.392865 0.147763 0.181400
H12   H     H_    0.345392 0.831360 0.170420 0.097912
H13   H     H_    0.477199 0.197554 0.630014 0.143861
H14   H     H_    0.159059 0.674975 0.828170 0.100025
H15   H     H_    0.514976 0.876486 0.359564 0.203097
H16   H     H_    0.544275 0.938589 0.274888 0.183103
H17   H     H_    0.678501 0.028698 0.518463 0.199987
H18   H     H_    0.707417 0.090424 0.433400 0.186038
H19   H     H_    0.039759 0.329920 0.361545 0.125965
H20   H     H_    0.044029 0.328724 0.525712 0.125864
H21   H     H_    0.068238 0.688797 0.663603 0.200911
H22   H     H_    0.220558 0.776257 0.739049 0.188362
H23   H     H_    0.826512 0.164841 0.995613 0.112137
H24   H     H_    0.060838 0.689397 0.503708 0.198648
H25   H     H_    0.646012 0.321129 0.972774 0.093136
H26   H     H_    0.213066 0.777510 0.577849 0.192423
H27   H     H_    0.976641 0.834756 0.803519 0.164358
H28   H     H_    0.882566 0.089651 0.090958 0.202838
H29   H     H_    0.731921 0.991048 0.004500 0.199895
H30   H     H_    0.917313 0.965012 0.120919 0.202317
H31   H     H_    0.766239 0.862262 0.044843 0.206939
H32   H     H_    0.981995 0.325275 0.646432 0.083301
H33   H     H_    0.820015 0.669258 0.162169 0.134183
H34   H     H_    0.023285 0.170155 0.843791 0.142964
H35   H     H_    0.620274 0.233946 0.794523 0.094774
H36   H     H_    0.062644 0.767589 0.887986 0.131790
H37   H     H_    0.124871 0.677472 0.374603 0.112171
H38   H     H_    0.046671 0.925740 0.231579 0.088766
H39   H     H_    0.000804 0.802064 0.240707 0.119525
H40   H     H_    0.928313 0.975695 0.282488 0.183481
H41   H     H_    0.837594 0.839455 0.245006 0.201568
H42   H     H_    0.981194 0.853500 0.404242 0.264392
H43   H     H_    0.944311 0.958191 0.446221 0.269099
H44   H     H_    0.069967 0.993125 0.442620 0.281916
H45   H     H_    0.180991 0.831268 0.357724 0.115157
H46   H     H_    0.406431 0.280892 0.213588 0.137897
H47   H     H_    0.386835 0.222513 0.077407 0.074759
H48   H     H_    0.223669 0.276089 0.138530 0.220512
H49   H     H_    0.202222 0.201304 0.002060 0.192627
H50   H     H_    0.214248 0.052193 0.034995 0.266763
H51   H     H_    0.110987 0.076055 0.058726 0.276589
H52   H     H_    0.240001 0.127081 0.174103 0.260614
H53   H     H_    0.210830 0.000179 0.374715 0.249406
H54   H     H_    0.258055 0.008153 0.508086 0.255639
H55   H     H_    0.284268 0.130032 0.497155 0.259239
H56   H     H_    0.941865 0.323311 0.201714 0.092046
H57   H     H_    0.909439 0.022016 0.638206 0.121936
H58   H     H_    0.812659 0.984342 0.682493 0.090716
H59   H     H_    0.873067 0.830376 0.544439 0.210940
H60   H     H_    0.777537 0.787079 0.590704 0.194057
H61   H     H_    0.660823 0.842291 0.486322 0.270742
H62   H     H_    0.684110 0.745389 0.398702 0.275737
H63   H     H_    0.756880 0.888540 0.440584 0.274275
H64   H     H_    0.377219 0.676147 0.115616 0.093283
H65   H     H_    0.512218 0.420201 0.892820 0.161641
H66   H     H_    0.587720 0.567833 0.965622 0.178265
N1    N     N_R   0.995640 0.706130 0.053910 -0.104295
N2    N     N_R   0.054010 0.556790 0.847890 -0.033017
N3    N     N_R   0.789940 0.443190 0.997130 -0.037500
N4    N     N_R   0.997630 0.443170 0.791110 -0.037451
N5    N     N_R   0.846320 0.556810 0.053910 -0.041045
N6    N     N_R   0.791080 0.293860 0.847890 -0.040219
N7    N     N_R   0.052880 0.706130 0.997130 -0.064191
N8    N     N_R   0.002370 0.556830 0.208890 -0.043976
N9    N     N_R   0.153680 0.443190 0.946090 -0.038615
N10   N     N_R   0.208920 0.706140 0.152110 -0.033164
N11   N     N_R   0.947120 0.293870 0.002870 -0.039781
N12   N     N_R   0.004360 0.293870 0.946090 -0.042887
N13   N     N_R   0.151690 0.706140 0.208890 -0.043257
N14   N     N_R   0.945990 0.443210 0.152110 -0.038692
N15   N     N_R   0.210060 0.556810 0.002870 -0.036311
N16   N     N_R   0.848310 0.293860 0.791110 -0.042117
Ni1   Ni    Ni4+2 0.999010 0.630300 0.130220 0.203218
Ni2   Ni    Ni4+2 0.000990 0.369700 0.869780 0.203258
Ni3   Ni    Ni4+2 0.130280 0.630280 0.000000 0.201848
Ni4   Ni    Ni4+2 0.869720 0.369720 0.000000 0.204586
O1    O     O_3   0.896413 0.792670 0.100883 -0.697890
O2    O     O_3   0.408023 0.383434 0.150820 -0.666492
O3    O     O_3   0.957294 0.978712 0.754481 -0.673531

loop_
_geom_bond_atom_site_label_1
_geom_bond_atom_site_label_2
_ccdc_geom_bond_type
C53   O1    S    
C5    N15   A    
C6    C45   A    
C49   N5    A    
C27   C29   S    
C28   N3    A    
C41   C42   A    
C37   H22   S    
C35   C36   A    
C43   C44   A    
C3    C6    A    
C16   N2    A    
C11   H4    S    
C39   C41   A    
C53   C54   S    
C51   H36   S    
C65   H23   S    
C48   H31   S    
C40   N4    A    
C26   C27   S    
C62   C63   S    
C64   N10   A    
C13   C18   S    
C61   H58   S    
C63   H61   S    
C14   H8    S    
C19   H10   S    
N16   Ni2   S    
C22   H13   S    
C29   H17   S    
C10   C15   S    
C40   H32   S    
C30   C31   A    
C65   N11   A    
C1    N1    A    
C57   H46   S    
C66   N12   A    
N2    Ni3   S    
C53   H38   S    
C23   C40   A    
C4    N16   A    
C38   H26   S    
C30   C38   S    
C60   H53   S    
C66   H34   S    
C9    C66   A    
N12   Ni2   S    
C45   H37   S    
C17   C19   S    
C46   C47   S    
C3    N14   A    
C31   C32   A    
N6    N16   A    
C59   H50   S    
C7    C17   S    
C4    C12   A    
C48   H30   S    
C15   C34   S    
C63   H62   S    
C18   O2    S    
C3    H56   S    
C6    C31   S    
C28   C34   A    
C59   H51   S    
C21   C22   A    
C55   H43   S    
C8    C25   S    
N10   N13   A    
N5    Ni1   S    
C61   C62   S    
C7    C56   A    
C43   O3    S    
C61   O3    S    
C4    H3    S    
C44   C46   A    
N9    Ni2   S    
C10   H66   S    
C20   C29   S    
C18   H6    S    
C13   H11   S    
C2    H45   S    
C54   H40   S    
C51   C52   A    
C14   H7    S    
C27   H15   S    
N1    Ni1   S    
C24   C25   A    
C29   H18   S    
N8    N14   A    
C62   H60   S    
N2    N4    A    
C13   H5    S    
N6    Ni4   S    
C58   C59   S    
C12   C21   S    
C45   N8    A    
C2    N13   A    
N10   Ni3   S    
N15   Ni3   S    
C33   H20   S    
C37   C38   S    
C49   H33   S    
N4    Ni2   S    
C47   C48   S    
C24   C60   S    
C17   C18   S    
C57   H47   S    
C1    O1    S    
C9    C44   S    
C8    C64   A    
C39   C46   A    
N14   Ni4   S    
C56   N9    A    
C54   H41   S    
C42   H27   S    
C5    H64   S    
N1    N7    A    
C16   C23   A    
C23   C35   S    
C13   C15   S    
C55   H44   S    
C58   H49   S    
C22   C24   A    
C42   C43   A    
C11   H2    S    
C5    C7    A    
N3    N5    A    
C54   C55   S    
C11   C17   S    
C34   C49   A    
C41   C52   S    
C64   H12   S    
C14   C19   S    
C37   H21   S    
C27   H16   S    
C2    C8    A    
C10   H65   S    
C62   H59   S    
C12   C50   A    
C50   N6    A    
C59   H52   S    
C56   H1    S    
C57   O2    S    
C38   H24   S    
C30   C36   A    
C55   H42   S    
C61   H57   S    
C32   C33   A    
C19   H9    S    
N11   N12   A    
C25   C26   A    
C57   C58   S    
C20   C26   A    
C32   H19   S    
N7    Ni3   S    
C33   C35   A    
C47   H28   S    
C60   H54   S    
C28   H25   S    
C63   H63   S    
C60   H55   S    
C1    C52   A    
C9    C65   A    
C10   C11   S    
N9    N15   A    
C53   H39   S    
N13   Ni1   S    
C20   C21   A    
C50   H35   S    
C36   C37   S    
C58   H48   S    
C47   H29   S    
C14   C15   S    
C16   H14   S    
N8    Ni1   S    
N11   Ni4   S    
N3    Ni4   S    
C39   C48   S    
C51   N7    A    
