data_mof_unit_64730.cif
_audit_creation_date              2013-03-05T16:13:59-0500
_audit_creation_method            fapswitch 2.2
_symmetry_space_group_name_H-M    P1
_symmetry_Int_Tables_number       1
_space_group_crystal_system       triclinic
_cell_length_a                    30.479813
_cell_length_b                    30.476637
_cell_length_c                    51.333754
_cell_angle_alpha                 90.004216
_cell_angle_beta                  90.151341
_cell_angle_gamma                 89.901226
_cell_volume                      47684.826206

loop_
_atom_site_label
_atom_site_type_symbol
_atom_site_description
_atom_site_fract_x
_atom_site_fract_y
_atom_site_fract_z
_atom_type_partial_charge
Zn1   Zn    Zn3+2 0.000000 0.551910 0.771800 1.036072
Zn2   Zn    Zn3+2 0.000000 0.448090 0.228200 1.055201
Zn3   Zn    Zn3+2 0.448090 1.000000 0.771800 1.057671
Zn4   Zn    Zn3+2 0.551910 0.000000 0.228200 1.055041
Zn5   Zn    Zn3+2 0.000000 0.448090 0.771800 1.046834
Zn6   Zn    Zn3+2 0.000000 0.551910 0.228200 1.045253
Zn7   Zn    Zn3+2 0.551910 1.000000 0.771800 1.056200
Zn8   Zn    Zn3+2 0.448090 0.000000 0.228200 1.040894
Zn9   Zn    Zn3+2 0.500000 0.051910 0.271800 1.048358
Zn10  Zn    Zn3+2 0.500000 0.948090 0.728200 1.058558
Zn11  Zn    Zn3+2 0.948090 0.500000 0.271800 1.056857
Zn12  Zn    Zn3+2 0.051910 0.500000 0.728200 1.056181
Zn13  Zn    Zn3+2 0.500000 0.948090 0.271800 1.063163
Zn14  Zn    Zn3+2 0.500000 0.051910 0.728200 1.058885
Zn15  Zn    Zn3+2 0.051910 0.500000 0.271800 1.064483
Zn16  Zn    Zn3+2 0.948090 0.500000 0.728200 1.063899
O1    O     O_3   0.000000 0.500000 0.750000 -0.515654
O2    O     O_3   0.000000 0.500000 0.250000 -0.514808
O3    O     O_3   0.500000 0.000000 0.750000 -0.519725
O4    O     O_3   0.500000 1.000000 0.250000 -0.520694
O5    O     O_R   0.036330 0.500000 0.692020 -0.602526
O6    O     O_R   0.963670 0.500000 0.307980 -0.624390
O7    O     O_R   0.500000 0.036330 0.692020 -0.608683
O8    O     O_R   0.500000 0.963670 0.307980 -0.616884
O9    O     O_R   0.963670 0.500000 0.692020 -0.607692
O10   O     O_R   0.036330 0.500000 0.307980 -0.604401
O11   O     O_R   0.500000 0.963670 0.692020 -0.608807
O12   O     O_R   0.500000 0.036330 0.307980 -0.606417
O13   O     O_R   0.536330 1.000000 0.192020 -0.611113
O14   O     O_R   0.463670 0.000000 0.807980 -0.609463
O15   O     O_R   0.000000 0.536330 0.192020 -0.619169
O16   O     O_R   0.000000 0.463670 0.807980 -0.620139
O17   O     O_R   0.463670 1.000000 0.192020 -0.602915
O18   O     O_R   0.536330 0.000000 0.807980 -0.611115
O19   O     O_R   1.000000 0.463670 0.192020 -0.618145
O20   O     O_R   0.000000 0.536330 0.807980 -0.618267
O21   O     O_R   0.912470 0.551140 0.734840 -0.617961
O22   O     O_R   0.087530 0.448860 0.265160 -0.618402
O23   O     O_R   0.448860 0.912470 0.734840 -0.622770
O24   O     O_R   0.551140 0.087530 0.265160 -0.621826
O25   O     O_R   0.087530 0.448860 0.734840 -0.619977
O26   O     O_R   0.912470 0.551140 0.265160 -0.616329
O27   O     O_R   0.551140 0.087530 0.734840 -0.620344
O28   O     O_R   0.448860 0.912470 0.265160 -0.602951
O29   O     O_R   0.912470 0.448860 0.265160 -0.630666
O30   O     O_R   0.087530 0.551140 0.734840 -0.615107
O31   O     O_R   0.448860 0.087530 0.265160 -0.621335
O32   O     O_R   0.551140 0.912470 0.734840 -0.622493
O33   O     O_R   0.087530 0.551140 0.265160 -0.619522
O34   O     O_R   0.912470 0.448860 0.734840 -0.614908
O35   O     O_R   0.551140 0.912470 0.265160 -0.599866
O36   O     O_R   0.448860 0.087530 0.734840 -0.621640
O37   O     O_R   0.412470 0.051140 0.234840 -0.624827
O38   O     O_R   0.587530 0.948860 0.765160 -0.622533
O39   O     O_R   0.948860 0.412470 0.234840 -0.618559
O40   O     O_R   0.051140 0.587530 0.765160 -0.631086
O41   O     O_R   0.587530 0.948860 0.234840 -0.626747
O42   O     O_R   0.412470 0.051140 0.765160 -0.622830
O43   O     O_R   0.051140 0.587530 0.234840 -0.624314
O44   O     O_R   0.948860 0.412470 0.765160 -0.638992
O45   O     O_R   0.412470 0.948860 0.765160 -0.622299
O46   O     O_R   0.587530 0.051140 0.234840 -0.621020
O47   O     O_R   0.948860 0.587530 0.765160 -0.626479
O48   O     O_R   0.051140 0.412470 0.234840 -0.633688
O49   O     O_R   0.587530 0.051140 0.765160 -0.622552
O50   O     O_R   0.412470 0.948860 0.234840 -0.619741
O51   O     O_R   0.051140 0.412470 0.765160 -0.621118
O52   O     O_R   0.948860 0.587530 0.234840 -0.637394
C1    C     C_R   0.999864 0.500650 0.679561 0.845861
C2    C     C_R   0.999973 0.499767 0.320509 0.864297
C3    C     C_R   0.499945 0.000087 0.679638 0.851447
C4    C     C_R   0.500111 0.999886 0.320343 0.839888
C5    C     C_R   0.499852 0.000044 0.179640 0.851604
C6    C     C_R   0.500135 0.999984 0.820354 0.849821
C7    C     C_R   0.999996 0.500056 0.179564 0.860885
C8    C     C_R   0.999919 0.500037 0.820520 0.861944
C9    C     C_R   0.915716 0.584278 0.749987 0.904058
C10   C     C_R   0.083977 0.415393 0.250333 0.917908
C11   C     C_R   0.415683 0.915836 0.749915 0.896455
C12   C     C_R   0.584230 0.084353 0.249985 0.898669
C13   C     C_R   0.084257 0.415711 0.750013 0.901800
C14   C     C_R   0.915999 0.584469 0.250211 0.924674
C15   C     C_R   0.584387 0.084208 0.749941 0.919875
C16   C     C_R   0.416007 0.915189 0.249713 0.829137
C17   C     C_R   0.915631 0.415934 0.249817 0.933991
C18   C     C_R   0.084256 0.584573 0.749825 0.860983
C19   C     C_R   0.415571 0.084102 0.250139 0.904251
C20   C     C_R   0.584237 0.915816 0.749997 0.930197
C21   C     C_R   0.084493 0.584143 0.249823 0.903588
C22   C     C_R   0.915888 0.415580 0.749807 0.935699
C23   C     C_R   0.584319 0.915811 0.250065 0.920165
C24   C     C_R   0.415861 0.084262 0.750035 0.929288
C25   C     C_R   0.145193 0.626195 0.726706 -0.034711
C26   C     C_R   0.863389 0.365800 0.273061 -0.024605
C27   C     C_R   0.364902 0.135494 0.726274 -0.032268
C28   C     C_R   0.634745 0.864780 0.274648 -0.032459
C29   C     C_R   0.867101 0.362975 0.725121 -0.032689
C30   C     C_R   0.141432 0.630335 0.272761 -0.027386
C31   C     C_R   0.635356 0.865172 0.726076 -0.043114
C32   C     C_R   0.367207 0.136589 0.274981 -0.042950
C33   C     C_R   0.134598 0.365199 0.275751 -0.044073
C34   C     C_R   0.859981 0.630909 0.726369 -0.041061
C35   C     C_R   0.373939 0.853784 0.271884 -0.041848
C36   C     C_R   0.633224 0.136982 0.725642 -0.032333
C37   C     C_R   0.866109 0.635619 0.275073 -0.046298
C38   C     C_R   0.140087 0.369171 0.726524 -0.044774
C39   C     C_R   0.629774 0.141682 0.273069 -0.039094
C40   C     C_R   0.369550 0.860497 0.725742 -0.040118
C41   C     C_R   0.639266 0.131318 0.226094 -0.041128
C42   C     C_R   0.357805 0.870948 0.772572 -0.039422
C43   C     C_R   0.867034 0.638636 0.227399 -0.025344
C44   C     C_R   0.130779 0.359815 0.773634 -0.042060
C45   C     C_R   0.354598 0.874214 0.226878 -0.021718
C46   C     C_R   0.639636 0.131895 0.773151 -0.031523
C47   C     C_R   0.131528 0.359182 0.228230 -0.025109
C48   C     C_R   0.869202 0.640009 0.773527 -0.043242
C49   C     C_R   0.635239 0.864801 0.773881 -0.034727
C50   C     C_R   0.358665 0.130711 0.227606 -0.033098
C51   C     C_R   0.864526 0.364150 0.772771 -0.028987
C52   C     C_R   0.129695 0.640746 0.225929 -0.042987
C53   C     C_R   0.365380 0.135431 0.774083 -0.045152
C54   C     C_R   0.638594 0.867170 0.226952 -0.040647
C55   C     C_R   0.123753 0.648868 0.770642 -0.022374
C56   C     C_R   0.864228 0.365748 0.225345 -0.047507
C57   C     C_R   0.177316 0.658923 0.726839 -0.239068
C58   C     C_R   0.828958 0.335577 0.272532 -0.236928
C59   C     C_R   0.333529 0.169013 0.726730 -0.241385
C60   C     C_R   0.667392 0.832417 0.274671 -0.237813
C61   C     C_R   0.834697 0.330380 0.725149 -0.240451
C62   C     C_R   0.173532 0.662898 0.272184 -0.236948
C63   C     C_R   0.666935 0.831820 0.726444 -0.239500
C64   C     C_R   0.334473 0.168806 0.275251 -0.239344
C65   C     C_R   0.166606 0.332105 0.276120 -0.237040
C66   C     C_R   0.826605 0.662437 0.726860 -0.236355
C67   C     C_R   0.338366 0.824968 0.272159 -0.221353
C68   C     C_R   0.665620 0.169488 0.725746 -0.239805
C69   C     C_R   0.833993 0.668568 0.275108 -0.236681
C70   C     C_R   0.173584 0.337773 0.727099 -0.236505
C71   C     C_R   0.660411 0.175795 0.272276 -0.237023
C72   C     C_R   0.337459 0.827783 0.725795 -0.237106
C73   C     C_R   0.671861 0.163616 0.226337 -0.236160
C74   C     C_R   0.323743 0.840388 0.771502 -0.237737
C75   C     C_R   0.837402 0.673596 0.228186 -0.235717
C76   C     C_R   0.162355 0.326488 0.773159 -0.236050
C77   C     C_R   0.319109 0.845212 0.227955 -0.248696
C78   C     C_R   0.673705 0.162564 0.772365 -0.239767
C79   C     C_R   0.161038 0.324214 0.229425 -0.235267
C80   C     C_R   0.837657 0.673355 0.773005 -0.236423
C81   C     C_R   0.668644 0.833283 0.773492 -0.241308
C82   C     C_R   0.324102 0.160835 0.228840 -0.242037
C83   C     C_R   0.834462 0.329616 0.772195 -0.234531
C84   C     C_R   0.159987 0.675230 0.226407 -0.237471
C85   C     C_R   0.332050 0.167055 0.773772 -0.238853
C86   C     C_R   0.672988 0.836783 0.227825 -0.238047
C87   C     C_R   0.154240 0.682925 0.769427 -0.233280
C88   C     C_R   0.831871 0.333134 0.225537 -0.236829
H1    H     H_    0.198209 0.662738 0.709925 0.149529
H2    H     H_    0.815592 0.323782 0.290781 0.148636
H3    H     H_    0.321048 0.181876 0.708456 0.148351
H4    H     H_    0.678604 0.819052 0.293106 0.148618
H5    H     H_    0.822930 0.317493 0.706724 0.148529
H6    H     H_    0.190385 0.671393 0.290124 0.149406
H7    H     H_    0.679304 0.819165 0.708136 0.149348
H8    H     H_    0.325125 0.183551 0.293640 0.149554
H9    H     H_    0.180413 0.321697 0.294609 0.149467
H10   H     H_    0.810108 0.670999 0.708823 0.150070
H11   H     H_    0.332806 0.805216 0.289506 0.153387
H12   H     H_    0.675560 0.184043 0.707417 0.148785
H13   H     H_    0.820925 0.679949 0.293535 0.150034
H14   H     H_    0.190153 0.329336 0.709123 0.149912
H15   H     H_    0.668467 0.192989 0.290141 0.149426
H16   H     H_    0.329513 0.811118 0.707728 0.149199
H17   H     H_    0.688187 0.171976 0.208280 0.149713
H18   H     H_    0.306014 0.832608 0.789183 0.149556
H19   H     H_    0.826161 0.687918 0.210018 0.149959
H20   H     H_    0.170854 0.309943 0.791171 0.149605
H21   H     H_    0.298651 0.840967 0.210739 0.149165
H22   H     H_    0.689272 0.172398 0.790456 0.149136
H23   H     H_    0.171420 0.308752 0.211433 0.149523
H24   H     H_    0.829184 0.689828 0.791027 0.149793
H25   H     H_    0.681411 0.820840 0.791794 0.148590
H26   H     H_    0.307492 0.170218 0.210985 0.148939
H27   H     H_    0.821650 0.317138 0.790432 0.150078
H28   H     H_    0.167308 0.692537 0.208481 0.149603
H29   H     H_    0.319409 0.179403 0.792094 0.148954
H30   H     H_    0.687682 0.825942 0.209712 0.149464
H31   H     H_    0.157731 0.704674 0.786036 0.150305
H32   H     H_    0.819702 0.320347 0.207182 0.149179
C89   C     C_R   0.181707 0.687749 0.747867 0.084588
C90   C     C_R   0.813511 0.318414 0.248946 0.088161
C91   C     C_R   0.316422 0.184482 0.750283 0.090260
C92   C     C_R   0.687178 0.818727 0.251470 0.089713
C93   C     C_R   0.818711 0.312995 0.748538 0.086074
C94   C     C_R   0.182302 0.686258 0.249349 0.088232
C95   C     C_R   0.684199 0.816129 0.749961 0.089970
C96   C     C_R   0.312227 0.180581 0.252426 0.089207
C97   C     C_R   0.179510 0.311018 0.253131 0.087254
C98   C     C_R   0.815687 0.684325 0.749928 0.088621
C99   C     C_R   0.311045 0.820104 0.250305 0.082697
C100  C     C_R   0.686543 0.182034 0.748881 0.087612
C101  C     C_R   0.819957 0.688199 0.251851 0.087228
C102  C     C_R   0.184480 0.315760 0.750163 0.089242
C103  C     C_R   0.682196 0.186543 0.249170 0.088286
C104  C     C_R   0.313862 0.818130 0.748399 0.089573
C105  C     C_R   0.118050 0.619992 0.749067 -0.071119
C106  C     C_R   0.880886 0.382102 0.249360 -0.058496
C107  C     C_R   0.381757 0.118693 0.750132 -0.057025
C108  C     C_R   0.619333 0.882119 0.250554 -0.056708
C109  C     C_R   0.882143 0.380656 0.749182 -0.057545
C110  C     C_R   0.118999 0.618475 0.249478 -0.063529
C111  C     C_R   0.618568 0.881640 0.749985 -0.057266
C112  C     C_R   0.380331 0.117535 0.250895 -0.060817
C113  C     C_R   0.117129 0.379773 0.251488 -0.059253
C114  C     C_R   0.881347 0.618657 0.749962 -0.063343
C115  C     C_R   0.381960 0.880142 0.249305 -0.062154
C116  C     C_R   0.619278 0.118070 0.749582 -0.062743
C117  C     C_R   0.882624 0.619752 0.250941 -0.058051
C118  C     C_R   0.118633 0.381292 0.750057 -0.063403
C119  C     C_R   0.618136 0.119265 0.249730 -0.063116
C120  C     C_R   0.380858 0.882053 0.749429 -0.061584
N1    N     N_R   0.219455 0.750571 0.767994 -0.172408
N2    N     N_R   0.770296 0.260771 0.227090 -0.170422
N3    N     N_R   0.258454 0.227105 0.772087 -0.170853
N4    N     N_R   0.745432 0.776230 0.229877 -0.172171
N5    N     N_R   0.773258 0.257940 0.770874 -0.172687
N6    N     N_R   0.220451 0.748439 0.228614 -0.171287
N7    N     N_R   0.740392 0.771482 0.772170 -0.172349
N8    N     N_R   0.251942 0.221294 0.231603 -0.173622
N9    N     N_R   0.220751 0.251778 0.231818 -0.173636
N10   N     N_R   0.771255 0.740562 0.772157 -0.172517
N11   N     N_R   0.250437 0.780130 0.228939 -0.171328
N12   N     N_R   0.742260 0.227309 0.770967 -0.172678
N13   N     N_R   0.776645 0.745703 0.229991 -0.172467
N14   N     N_R   0.227454 0.257870 0.772040 -0.171893
N15   N     N_R   0.739570 0.229818 0.227154 -0.171348
N16   N     N_R   0.250552 0.781100 0.768150 -0.171558
N17   N     N_R   0.724269 0.245457 0.270675 -0.171699
N18   N     N_R   0.274877 0.756719 0.727519 -0.170741
N19   N     N_R   0.763489 0.732453 0.274074 -0.169400
N20   N     N_R   0.242714 0.273274 0.728465 -0.171637
N21   N     N_R   0.270314 0.760302 0.271359 -0.171547
N22   N     N_R   0.733337 0.235757 0.726113 -0.172267
N23   N     N_R   0.237686 0.268241 0.275081 -0.169216
N24   N     N_R   0.759436 0.728986 0.727710 -0.171147
N25   N     N_R   0.728607 0.759945 0.727713 -0.170739
N26   N     N_R   0.268952 0.237691 0.274864 -0.170401
N27   N     N_R   0.764395 0.266392 0.726013 -0.171340
N28   N     N_R   0.240366 0.728683 0.271043 -0.171431
N29   N     N_R   0.273667 0.242475 0.728497 -0.171177
N30   N     N_R   0.732242 0.763011 0.273960 -0.169614
N31   N     N_R   0.243794 0.726126 0.727386 -0.171568
N32   N     N_R   0.755029 0.276364 0.270626 -0.171110
C121  C     C_R   0.278958 0.784714 0.747958 0.310557
C122  C     C_R   0.715947 0.221436 0.248961 0.310589
C123  C     C_R   0.218932 0.281595 0.750225 0.310313
C124  C     C_R   0.786251 0.723094 0.252063 0.311049
C125  C     C_R   0.721536 0.215635 0.748613 0.311504
C126  C     C_R   0.276064 0.786627 0.250314 0.312436
C127  C     C_R   0.781409 0.718663 0.749931 0.310383
C128  C     C_R   0.213054 0.276001 0.253500 0.311160
C129  C     C_R   0.276838 0.213731 0.253062 0.310518
C130  C     C_R   0.718451 0.781815 0.749946 0.310199
C131  C     C_R   0.214973 0.721937 0.249638 0.311395
C132  C     C_R   0.784940 0.278200 0.748417 0.311625
C133  C     C_R   0.722469 0.785422 0.251824 0.311296
C134  C     C_R   0.282171 0.218765 0.750305 0.309942
C135  C     C_R   0.778738 0.284628 0.248842 0.310421
C136  C     C_R   0.215509 0.722373 0.747644 0.311802
C137  C     C_R   0.459979 0.990406 0.554706 0.561312
C138  C     C_R   0.537468 0.006429 0.445387 0.562152
C139  C     C_R   0.028042 0.497846 0.556897 0.552293
C140  C     C_R   0.969970 0.523369 0.443634 0.557637
C141  C     C_R   0.535995 0.988394 0.555083 0.560098
C142  C     C_R   0.461457 0.008020 0.444926 0.560882
C143  C     C_R   0.959468 0.534842 0.553717 0.520123
C144  C     C_R   0.038255 0.485915 0.447079 0.500199
C145  C     C_R   0.962349 0.488757 0.054806 0.544186
C146  C     C_R   0.039373 0.493625 0.945552 0.544545
C147  C     C_R   0.500995 0.957453 0.054506 0.562867
C148  C     C_R   0.492102 0.035740 0.944970 0.560763
C149  C     C_R   0.037172 0.510640 0.055019 0.543335
C150  C     C_R   0.961852 0.502429 0.945230 0.543372
C151  C     C_R   0.508190 0.033242 0.054891 0.559826
C152  C     C_R   0.483497 0.960213 0.944768 0.560185
N33   N     N_R   0.498081 0.998391 0.568185 -0.339183
N34   N     N_R   0.499460 0.998548 0.431778 -0.338603
N35   N     N_R   0.992493 0.516937 0.568279 -0.351270
N36   N     N_R   0.005017 0.503042 0.432404 -0.348794
N37   N     N_R   0.999703 0.499706 0.067924 -0.356005
N38   N     N_R   0.000699 0.497908 0.932375 -0.356294
N39   N     N_R   0.496418 0.995938 0.068139 -0.339531
N40   N     N_R   0.497047 0.996985 0.931665 -0.339275
C153  C     C_R   0.538467 0.993776 0.527740 -0.046235
C154  C     C_R   0.458975 0.002160 0.472247 -0.044866
C155  C     C_R   0.961932 0.534821 0.525963 -0.051368
C156  C     C_R   0.035646 0.486069 0.474693 -0.060383
C157  C     C_R   0.458293 0.996075 0.527357 -0.043810
C158  C     C_R   0.539124 0.000088 0.472665 -0.043360
C159  C     C_R   0.029132 0.490606 0.529770 -0.042638
C160  C     C_R   0.968954 0.530993 0.470763 -0.036100
C161  C     C_R   0.039923 0.504739 0.027800 -0.038916
C162  C     C_R   0.960175 0.496855 0.972485 -0.037937
C163  C     C_R   0.502554 0.036074 0.027532 -0.045850
C164  C     C_R   0.488282 0.957390 0.972156 -0.045168
C165  C     C_R   0.960071 0.494006 0.027522 -0.038378
C166  C     C_R   0.040689 0.499892 0.972786 -0.039361
C167  C     C_R   0.494095 0.956409 0.027257 -0.039972
C168  C     C_R   0.497211 0.037071 0.972372 -0.045433
C169  C     C_R   0.498560 0.997009 0.513749 -0.046443
C170  C     C_R   0.498863 0.998929 0.486250 -0.046903
C171  C     C_R   0.997295 0.511810 0.514057 -0.046623
C172  C     C_R   0.000557 0.509515 0.486542 -0.040283
C173  C     C_R   0.000116 0.499083 0.013881 -0.050641
C174  C     C_R   0.000330 0.498600 0.986414 -0.050807
C175  C     C_R   0.496301 0.996564 0.013594 -0.047593
C176  C     C_R   0.494655 0.996927 0.986077 -0.046239
C177  C     C_R   0.579061 0.994759 0.514133 -0.085066
C178  C     C_R   0.418379 0.000909 0.485837 -0.084111
C179  C     C_R   0.931234 0.557646 0.509886 -0.090381
C180  C     C_R   0.065884 0.462707 0.490679 -0.085170
C181  C     C_R   0.418060 0.999343 0.513372 -0.085032
C182  C     C_R   0.579360 0.996553 0.486613 -0.083588
C183  C     C_R   0.061213 0.463176 0.517995 -0.074417
C184  C     C_R   0.936736 0.558223 0.482548 -0.086178
C185  C     C_R   0.080444 0.506140 0.014182 -0.092449
C186  C     C_R   0.920004 0.491706 0.986119 -0.092478
C187  C     C_R   0.504314 0.076597 0.013844 -0.084218
C188  C     C_R   0.485523 0.916950 0.985867 -0.087607
C189  C     C_R   0.919754 0.492451 0.013593 -0.092924
C190  C     C_R   0.080637 0.505668 0.986689 -0.092786
C191  C     C_R   0.487031 0.916633 0.013403 -0.083988
C192  C     C_R   0.503328 0.076941 0.986306 -0.085513
O53   O     O_2   0.425526 0.972440 0.567103 -0.526810
O54   O     O_2   0.571838 0.025036 0.433234 -0.528010
O55   O     O_2   0.062500 0.486591 0.572044 -0.510499
O56   O     O_2   0.935764 0.535002 0.428414 -0.515018
O57   O     O_2   0.569505 0.969261 0.567958 -0.526828
O58   O     O_2   0.427938 0.027403 0.432199 -0.527361
O59   O     O_2   0.924926 0.552451 0.566194 -0.512995
O60   O     O_2   0.073257 0.468744 0.434729 -0.515685
O61   O     O_2   0.928143 0.472297 0.068233 -0.514956
O62   O     O_2   0.075907 0.482840 0.932214 -0.512918
O63   O     O_2   0.517460 0.921705 0.066453 -0.530635
O64   O     O_2   0.477904 0.071704 0.932211 -0.526068
O65   O     O_2   0.071037 0.527685 0.068597 -0.514864
O66   O     O_2   0.925488 0.513030 0.931562 -0.514563
O67   O     O_2   0.529167 0.065682 0.067657 -0.525501
O68   O     O_2   0.461276 0.928757 0.931904 -0.526453
C193  C     C_R   0.979296 0.464674 0.890411 0.173956
C194  C     C_R   0.026589 0.469799 0.109707 0.173013
C195  C     C_R   0.510878 0.956464 0.888999 0.172077
C196  C     C_R   0.480682 0.036918 0.110297 0.176135
C197  C     C_R   0.021633 0.532998 0.890943 0.181651
C198  C     C_R   0.972953 0.530012 0.109592 0.183031
C199  C     C_R   0.521065 0.034425 0.889852 0.176606
C200  C     C_R   0.481310 0.958246 0.111517 0.175028
C201  C     C_R   0.460319 0.981330 0.389026 0.172664
C202  C     C_R   0.537847 0.016989 0.610398 0.174655
C203  C     C_R   0.989348 0.464104 0.391268 0.197675
C204  C     C_R   0.000257 0.551726 0.611786 0.182132
C205  C     C_R   0.539021 0.982365 0.389262 0.172341
C206  C     C_R   0.459197 0.016100 0.610796 0.173741
C207  C     C_R   0.021711 0.537524 0.390125 0.176619
C208  C     C_R   0.980937 0.473785 0.608286 0.176048
C209  C     C_R   0.974614 0.468315 0.863186 0.088005
C210  C     C_R   0.030123 0.473332 0.136993 0.063568
C211  C     C_R   0.502595 0.957705 0.861874 0.062122
C212  C     C_R   0.490529 0.038779 0.137234 0.067563
C213  C     C_R   0.024589 0.531446 0.863530 0.049576
C214  C     C_R   0.970317 0.527295 0.136979 0.062859
C215  C     C_R   0.512433 0.037238 0.862870 0.056714
C216  C     C_R   0.492810 0.958664 0.138167 0.065953
C217  C     C_R   0.459730 0.990565 0.362005 0.095809
C218  C     C_R   0.539198 0.008208 0.637431 0.059784
C219  C     C_R   0.982994 0.465416 0.363871 0.075568
C220  C     C_R   0.005505 0.546817 0.639153 0.088803
C221  C     C_R   0.539831 0.992913 0.362489 0.060196
C222  C     C_R   0.459062 0.006858 0.637777 0.059596
C223  C     C_R   0.017755 0.538009 0.362671 0.060692
C224  C     C_R   0.986854 0.468551 0.635415 0.067784
C225  C     C_R   0.999502 0.500090 0.849453 -0.094912
C226  C     C_R   0.000321 0.500329 0.150768 -0.088418
C227  C     C_R   0.501357 0.998740 0.848960 -0.064206
C228  C     C_R   0.498473 0.999321 0.151008 -0.065197
C229  C     C_R   0.499764 0.998516 0.348941 -0.058850
C230  C     C_R   0.499472 0.001245 0.651008 -0.064241
C231  C     C_R   0.000026 0.501203 0.349439 -0.088066
C232  C     C_R   0.998921 0.505063 0.650867 -0.067284
C233  C     C_R   0.000885 0.498303 0.904335 0.224642
C234  C     C_R   0.999611 0.499732 0.095970 0.224614
C235  C     C_R   0.508629 0.996020 0.903684 0.139416
C236  C     C_R   0.487108 0.996928 0.096444 0.136630
C237  C     C_R   0.499568 0.988367 0.403564 0.134836
C238  C     C_R   0.498331 0.009465 0.596274 0.139591
C239  C     C_R   0.006867 0.500871 0.404325 0.235242
C240  C     C_R   0.989218 0.514809 0.596394 0.228390
C241  C     C_2   0.140975 0.600946 0.702217 0.441715
H33   H     H_    0.170308 0.590537 0.691905 0.062308
O69   O     O_2   0.105148 0.594407 0.692300 -0.573779
C242  C     C_2   0.881716 0.377120 0.298900 0.398183
H34   H     H_    0.860361 0.378784 0.315782 0.066020
O70   O     O_2   0.921100 0.382077 0.301849 -0.591559
C243  C     C_2   0.377261 0.118133 0.700291 0.405671
H35   H     H_    0.375337 0.139352 0.683328 0.065222
O71   O     O_2   0.387310 0.079705 0.697238 -0.591453
C244  C     C_2   0.619643 0.880539 0.300467 0.423961
H36   H     H_    0.619700 0.858266 0.316982 0.068455
O72   O     O_2   0.609473 0.918828 0.303988 -0.589548
C245  C     C_2   0.884973 0.376037 0.699422 0.405702
H37   H     H_    0.864587 0.373237 0.682117 0.066387
O73   O     O_2   0.922999 0.387768 0.696997 -0.590588
C246  C     C_2   0.130917 0.612007 0.298634 0.421482
H38   H     H_    0.156955 0.606013 0.312696 0.064062
O74   O     O_2   0.092942 0.606239 0.305098 -0.592835
C247  C     C_2   0.622590 0.882581 0.700124 0.418696
H39   H     H_    0.624362 0.861389 0.683147 0.072571
O75   O     O_2   0.612354 0.920980 0.697095 -0.582318
C248  C     C_2   0.384951 0.122956 0.300651 0.427908
H40   H     H_    0.388555 0.147073 0.316084 0.070951
O76   O     O_2   0.393136 0.084570 0.305374 -0.583438
C249  C     C_2   0.119733 0.382014 0.301375 0.426393
H41   H     H_    0.142658 0.383192 0.317599 0.071244
O77   O     O_2   0.081533 0.392265 0.305119 -0.563292
C250  C     C_2   0.872225 0.613405 0.700431 0.428653
H42   H     H_    0.846992 0.608220 0.685778 0.071196
O78   O     O_2   0.910524 0.607083 0.694619 -0.573967
C251  C     C_2   0.401396 0.854351 0.295926 0.428406
H43   H     H_    0.386174 0.860934 0.314863 0.039211
O79   O     O_2   0.440240 0.843610 0.295109 -0.507095
C252  C     C_2   0.616664 0.122850 0.699798 0.414584
H44   H     H_    0.614111 0.146531 0.684056 0.062248
O80   O     O_2   0.608150 0.084459 0.695358 -0.585553
C253  C     C_2   0.882006 0.620198 0.300845 0.422724
H45   H     H_    0.859896 0.620462 0.317394 0.074221
O81   O     O_2   0.920174 0.609381 0.304267 -0.570850
C254  C     C_2   0.127884 0.386694 0.700552 0.437660
H46   H     H_    0.153118 0.391760 0.685966 0.068005
O82   O     O_2   0.089614 0.393108 0.694621 -0.557650
C255  C     C_2   0.612505 0.129910 0.299085 0.434478
H47   H     H_    0.606364 0.155505 0.313349 0.066522
O83   O     O_2   0.607508 0.091683 0.305431 -0.571328
C256  C     C_2   0.388424 0.872045 0.700076 0.436134
H48   H     H_    0.394678 0.846433 0.685844 0.066636
O84   O     O_2   0.394553 0.910200 0.693922 -0.571624
C257  C     C_2   0.627585 0.112757 0.200329 0.434476
H49   H     H_    0.653065 0.107129 0.185964 0.066319
O85   O     O_2   0.589438 0.106072 0.194292 -0.569075
C258  C     C_2   0.368771 0.888738 0.798638 0.436619
H50   H     H_    0.342737 0.895312 0.812503 0.065994
O86   O     O_2   0.406807 0.893721 0.805461 -0.573750
C259  C     C_2   0.878017 0.620896 0.201435 0.403185
H51   H     H_    0.881475 0.642861 0.184901 0.060935
O87   O     O_2   0.880471 0.581402 0.197966 -0.585446
C260  C     C_2   0.113103 0.371811 0.799554 0.432121
H52   H     H_    0.107942 0.346456 0.814087 0.062774
O88   O     O_2   0.106686 0.410038 0.805517 -0.557280
C261  C     C_2   0.362711 0.895178 0.201195 0.439817
H53   H     H_    0.335073 0.903653 0.188565 0.051593
O89   O     O_2   0.400050 0.900432 0.193099 -0.571024
C262  C     C_2   0.625475 0.117037 0.799299 0.415354
H54   H     H_    0.649390 0.114254 0.814938 0.061077
O90   O     O_2   0.586886 0.110244 0.804065 -0.586156
C263  C     C_2   0.119576 0.375141 0.202024 0.410857
H55   H     H_    0.114687 0.352014 0.186187 0.060229
O91   O     O_2   0.118097 0.414367 0.197528 -0.591551
C264  C     C_2   0.886930 0.627877 0.799472 0.433410
H56   H     H_    0.892296 0.653183 0.814028 0.059155
O92   O     O_2   0.893253 0.589596 0.805397 -0.546939
C265  C     C_2   0.617956 0.877428 0.799839 0.407175
H57   H     H_    0.639250 0.875680 0.816810 0.065018
O93   O     O_2   0.579549 0.887532 0.802875 -0.588708
C266  C     C_2   0.371743 0.115680 0.201283 0.418817
H58   H     H_    0.347077 0.112279 0.186113 0.060517
O94   O     O_2   0.410167 0.109447 0.195801 -0.582530
C267  C     C_2   0.873739 0.384130 0.798413 0.397926
H59   H     H_    0.875000 0.363753 0.815759 0.065913
O95   O     O_2   0.876995 0.423833 0.800603 -0.587195
C268  C     C_2   0.111729 0.628488 0.200059 0.436152
H60   H     H_    0.105958 0.653756 0.185510 0.061850
O96   O     O_2   0.105674 0.590146 0.194168 -0.553223
C269  C     C_2   0.382862 0.122548 0.800011 0.420855
H61   H     H_    0.361686 0.124181 0.816969 0.071798
O97   O     O_2   0.421287 0.112351 0.803052 -0.576588
C270  C     C_2   0.623151 0.880687 0.200725 0.427142
H62   H     H_    0.646217 0.881953 0.184652 0.069285
O98   O     O_2   0.584450 0.888079 0.196408 -0.583007
C271  C     C_2   0.101231 0.643343 0.795778 0.435349
H63   H     H_    0.086044 0.671369 0.805363 0.052209
O99   O     O_2   0.102279 0.608038 0.806943 -0.583716
C272  C     C_2   0.877962 0.382433 0.199454 0.422504
H64   H     H_    0.875818 0.361116 0.182541 0.069778
O100  O     O_2   0.889392 0.420440 0.196362 -0.560971
C273  C     C_2   0.621813 0.995933 0.528168 0.484426
H65   H     H_    0.648050 0.973741 0.522611 0.053304
O101  O     O_2   0.628688 0.023231 0.545082 -0.552883
C274  C     C_2   0.375675 0.999225 0.471754 0.484188
H66   H     H_    0.348974 0.020739 0.477462 0.052597
O102  O     O_2   0.369381 0.972236 0.454584 -0.553331
C275  C     C_2   0.893806 0.582764 0.520880 0.488784
H67   H     H_    0.892644 0.618184 0.518928 0.038194
O103  O     O_2   0.862712 0.563693 0.530597 -0.493163
C276  C     C_2   0.100447 0.434289 0.479292 0.484803
H68   H     H_    0.094605 0.399360 0.476840 0.050997
O104  O     O_2   0.135990 0.449767 0.473372 -0.502957
C277  C     C_2   0.375184 0.003201 0.527022 0.484194
H69   H     H_    0.347502 0.983333 0.520899 0.052744
O105  O     O_2   0.369922 0.030209 0.544297 -0.552318
C278  C     C_2   0.622215 0.992686 0.472929 0.483526
H70   H     H_    0.650058 0.012182 0.479217 0.053695
O106  O     O_2   0.627283 0.966047 0.455435 -0.554061
C279  C     C_2   0.087554 0.431318 0.533625 0.493313
H71   H     H_    0.122196 0.426663 0.529624 0.071508
O107  O     O_2   0.070048 0.408166 0.550007 -0.531992
C280  C     C_2   0.910402 0.590045 0.466885 0.494208
H72   H     H_    0.875731 0.594710 0.470771 0.053793
O108  O     O_2   0.927971 0.613023 0.450477 -0.519951
C281  C     C_2   0.123276 0.505661 0.028161 0.496889
H73   H     H_    0.148805 0.528786 0.022907 0.047321
O109  O     O_2   0.131003 0.477936 0.044738 -0.528948
C282  C     C_2   0.878077 0.482935 0.972171 0.497376
H74   H     H_    0.848655 0.501175 0.977134 0.046471
O110  O     O_2   0.875799 0.453805 0.955884 -0.529569
C283  C     C_2   0.505129 0.119346 0.027817 0.486651
H75   H     H_    0.528581 0.144418 0.022328 0.053045
O111  O     O_2   0.478130 0.127561 0.044656 -0.551221
C284  C     C_2   0.482996 0.874224 0.971937 0.485651
H76   H     H_    0.458718 0.850047 0.977571 0.052602
O112  O     O_2   0.509425 0.864975 0.954972 -0.550453
C285  C     C_2   0.876734 0.494170 0.027204 0.497296
H77   H     H_    0.850781 0.471478 0.021942 0.045734
O113  O     O_2   0.869383 0.522424 0.043514 -0.528195
C286  C     C_2   0.122820 0.513843 0.973007 0.496805
H78   H     H_    0.152156 0.495875 0.978540 0.047568
O114  O     O_2   0.125453 0.542293 0.956332 -0.528412
C287  C     C_2   0.479062 0.874472 0.027238 0.483966
H79   H     H_    0.495404 0.844681 0.020917 0.053763
O115  O     O_2   0.452551 0.872365 0.044972 -0.553320
C288  C     C_2   0.510779 0.119313 0.972625 0.485510
H80   H     H_    0.492665 0.148416 0.978356 0.053131
O116  O     O_2   0.538807 0.122431 0.955793 -0.551763
C289  C     C_3   0.960502 0.425270 0.904535 -0.771513
H81   H     H_    0.968345 0.394719 0.893720 0.227260
H82   H     H_    0.974614 0.421023 0.924312 0.234679
H83   H     H_    0.924353 0.428581 0.906240 0.279755
C290  C     C_3   0.052334 0.434708 0.095344 -0.772643
H84   H     H_    0.050821 0.403164 0.106081 0.226515
H85   H     H_    0.038869 0.427914 0.075661 0.233887
H86   H     H_    0.087119 0.444891 0.093494 0.282485
C291  C     C_3   0.532328 0.915704 0.900231 -0.709857
H87   H     H_    0.545892 0.921389 0.919997 0.249345
H88   H     H_    0.508902 0.887856 0.900492 0.290465
H89   H     H_    0.560902 0.906270 0.888084 0.206017
C292  C     C_3   0.454857 0.074392 0.098282 -0.715158
H90   H     H_    0.475204 0.104504 0.097151 0.292712
H91   H     H_    0.441738 0.066062 0.078741 0.243693
H92   H     H_    0.425660 0.081530 0.110455 0.208306
C293  C     C_3   0.040076 0.571844 0.905872 -0.778459
H93   H     H_    0.025112 0.575542 0.925422 0.233878
H94   H     H_    0.076125 0.568169 0.908184 0.282452
H95   H     H_    0.032872 0.602944 0.895412 0.229018
C294  C     C_3   0.947835 0.565364 0.094992 -0.776162
H96   H     H_    0.961282 0.571566 0.075281 0.234744
H97   H     H_    0.912812 0.555907 0.093048 0.280569
H98   H     H_    0.950079 0.597114 0.105533 0.227606
C295  C     C_3   0.552252 0.067491 0.901836 -0.716118
H99   H     H_    0.536896 0.100510 0.902697 0.292648
H100  H     H_    0.563626 0.057422 0.921480 0.246535
H101  H     H_    0.582344 0.069686 0.889768 0.205825
C296  C     C_3   0.451675 0.921621 0.102063 -0.701861
H102  H     H_    0.435876 0.929669 0.083174 0.252670
H103  H     H_    0.469966 0.890203 0.100575 0.287230
H104  H     H_    0.424372 0.916938 0.116066 0.213248
C297  C     C_3   0.422642 0.955153 0.400324 -0.706918
H105  H     H_    0.430423 0.941795 0.419883 0.247379
H106  H     H_    0.392342 0.975372 0.401084 0.290465
H107  H     H_    0.416109 0.926073 0.387896 0.205903
C298  C     C_3   0.574943 0.043361 0.598593 -0.714370
H108  H     H_    0.605569 0.023638 0.597900 0.292282
H109  H     H_    0.566703 0.055928 0.578913 0.246309
H110  H     H_    0.581113 0.072965 0.610649 0.206633
C299  C     C_3   0.979016 0.423860 0.407366 -0.839800
H111  H     H_    0.007176 0.415969 0.420292 0.250651
H112  H     H_    0.949477 0.429868 0.419415 0.245567
H113  H     H_    0.974635 0.393664 0.395695 0.243002
C300  C     C_3   0.005121 0.595951 0.598403 -0.818741
H114  H     H_    0.027103 0.592921 0.581312 0.236904
H115  H     H_    0.972529 0.607331 0.591577 0.268400
H116  H     H_    0.018738 0.622220 0.610953 0.236727
C301  C     C_3   0.576253 0.954810 0.400129 -0.706458
H117  H     H_    0.606933 0.974289 0.401364 0.289970
H118  H     H_    0.568193 0.940546 0.419394 0.250590
H119  H     H_    0.582238 0.926315 0.387125 0.207633
C302  C     C_3   0.421751 0.043220 0.599802 -0.711222
H120  H     H_    0.429408 0.056695 0.580283 0.250899
H121  H     H_    0.391027 0.023745 0.599071 0.289929
H122  H     H_    0.416080 0.072269 0.612412 0.205205
C303  C     C_3   0.041607 0.576430 0.404299 -0.782352
H123  H     H_    0.019783 0.605393 0.402277 0.255032
H124  H     H_    0.046765 0.570554 0.425381 0.240056
H125  H     H_    0.074330 0.584062 0.396056 0.236777
C304  C     C_3   0.966084 0.435077 0.591863 -0.782260
H126  H     H_    0.957586 0.444278 0.571592 0.234532
H127  H     H_    0.992382 0.409862 0.591134 0.269432
H128  H     H_    0.935987 0.420411 0.600280 0.231985
C305  C     C_3   0.941260 0.439683 0.849424 -0.751078
H129  H     H_    0.931065 0.454080 0.830634 0.276944
H130  H     H_    0.954565 0.406174 0.846302 0.233465
H131  H     H_    0.910571 0.437617 0.860951 0.245604
C306  C     C_3   0.067025 0.449759 0.150933 -0.716307
H132  H     H_    0.073588 0.464136 0.170322 0.267278
H133  H     H_    0.059344 0.414352 0.153029 0.237941
H134  H     H_    0.098200 0.453513 0.140012 0.247114
C307  C     C_3   0.497119 0.914918 0.847089 -0.727301
H135  H     H_    0.486954 0.919427 0.826538 0.257151
H136  H     H_    0.528424 0.896321 0.847045 0.253015
H137  H     H_    0.471384 0.894804 0.856595 0.254662
C308  C     C_3   0.490801 0.082872 0.150975 -0.735752
H138  H     H_    0.503552 0.081231 0.171185 0.251762
H139  H     H_    0.512277 0.106007 0.140243 0.251227
H140  H     H_    0.457069 0.096511 0.151713 0.259347
C309  C     C_3   0.054821 0.562725 0.849399 -0.691010
H141  H     H_    0.080893 0.576375 0.862106 0.240544
H142  H     H_    0.072510 0.544946 0.833748 0.262488
H143  H     H_    0.035490 0.590312 0.841070 0.257294
C310  C     C_3   0.934761 0.551759 0.151546 -0.725066
H144  H     H_    0.906885 0.561610 0.138920 0.240072
H145  H     H_    0.920428 0.529870 0.166561 0.268705
H146  H     H_    0.948591 0.581567 0.160877 0.249920
C311  C     C_3   0.516408 0.081322 0.849388 -0.724014
H147  H     H_    0.504666 0.081027 0.828942 0.256669
H148  H     H_    0.496239 0.105959 0.859897 0.248750
H149  H     H_    0.551107 0.092190 0.849437 0.258248
C312  C     C_3   0.495507 0.915680 0.152932 -0.757195
H150  H     H_    0.514832 0.918683 0.171183 0.261966
H151  H     H_    0.461996 0.904079 0.157742 0.271448
H152  H     H_    0.512242 0.890452 0.140853 0.251798
C313  C     C_3   0.416364 0.990113 0.347372 -0.811669
H153  H     H_    0.418853 0.002620 0.327170 0.244428
H154  H     H_    0.403293 0.956193 0.346328 0.223286
H155  H     H_    0.392390 0.011500 0.357560 0.264458
C314  C     C_3   0.583170 0.007646 0.651353 -0.726546
H156  H     H_    0.581101 0.996857 0.671915 0.259719
H157  H     H_    0.605595 0.984456 0.641310 0.249095
H158  H     H_    0.597945 0.040860 0.651139 0.258240
C315  C     C_3   0.956829 0.430332 0.349774 -0.744399
H159  H     H_    0.931718 0.445970 0.337156 0.261930
H160  H     H_    0.979144 0.409867 0.337771 0.271400
H161  H     H_    0.937152 0.409065 0.362682 0.231455
C316  C     C_3   0.017388 0.586319 0.655736 -0.738039
H162  H     H_    0.022632 0.578745 0.676587 0.250049
H163  H     H_    0.048625 0.600873 0.648795 0.257043
H164  H     H_    0.990735 0.611083 0.654551 0.248314
C317  C     C_3   0.583682 0.996416 0.348751 -0.727360
H165  H     H_    0.581013 0.008585 0.328470 0.255712
H166  H     H_    0.604883 0.019928 0.359463 0.250831
H167  H     H_    0.600138 0.963956 0.348207 0.257778
C318  C     C_3   0.415599 0.004756 0.652051 -0.726281
H168  H     H_    0.418662 0.993270 0.672450 0.257177
H169  H     H_    0.399921 0.037600 0.652373 0.255681
H170  H     H_    0.393494 0.981377 0.641901 0.251871
C319  C     C_3   0.030139 0.579236 0.348038 -0.704246
H171  H     H_    0.021331 0.578343 0.327101 0.258505
H172  H     H_    0.012342 0.607798 0.356282 0.239106
H173  H     H_    0.065962 0.584687 0.349936 0.260414
C320  C     C_3   0.980405 0.423499 0.647540 -0.729744
H174  H     H_    0.990292 0.421678 0.668285 0.258891
H175  H     H_    0.945333 0.413979 0.646157 0.247449
H176  H     H_    0.000760 0.398838 0.637183 0.246185

loop_
_geom_bond_atom_site_label_1
_geom_bond_atom_site_label_2
_geom_bond_distance
_ccdc_geom_bond_type
C148  C168  1.415412 A    
C73   H17   1.083783 S    
C251  H43   1.096574 S    
C205  C301  1.515816 S    
C181  C277  1.488945 S    
C141  N33   1.372404 A    
C19   C112  1.479814 S    
C6    C227  1.469322 S    
C200  C216  1.411417 A    
C75   H19   1.084269 S    
Zn5   O51   1.929050 S    
C143  N35   1.365263 A    
C23   C108  1.479875 S    
C265  H57   1.086260 S    
N8    C129  1.355518 A    
C33   C249  1.483381 S    
C196  C212  1.415379 A    
Zn8   O4    1.935551 S    
C195  C291  1.516006 S    
C243  O71   1.220235 D    
Zn1   O40   1.932100 S    
C304  H127  1.110151 S    
C77   C99   1.401628 A    
Zn2   O39   1.932103 S    
C311  H148  1.110326 S    
C310  H146  1.110236 S    
C67   C99   1.403376 A    
C46   C262  1.482196 S    
C206  C238  1.422382 A    
C213  C225  1.421114 A    
C290  H86   1.109571 S    
C215  C227  1.414334 A    
N24   N25   1.330455 A    
C55   C105  1.425030 A    
C261  H53   1.092267 S    
C270  H62   1.086154 S    
C87   C89   1.397397 A    
Zn13  O35   1.929050 S    
N37   C234  1.439717 S    
O34   C22   1.276396 A    
Zn14  O36   1.929052 S    
C33   C113  1.424043 A    
C275  O103  1.220347 D    
C17   C106  1.479487 S    
C187  C283  1.487395 S    
C89   C136  1.476121 S    
Zn3   O3    1.940374 S    
C90   C135  1.478973 S    
C248  O76   1.220005 D    
Zn13  O4    1.937895 S    
C138  C158  1.414318 A    
C314  H158  1.108670 S    
C26   C58   1.397745 A    
C54   C270  1.483207 S    
N20   N29   1.329701 A    
C307  H136  1.108949 S    
C147  O63   1.345949 S    
O30   C18   1.280545 A    
C138  N34   1.372715 A    
Zn6   O2    1.937896 S    
N8    N9    1.328200 A    
C318  H169  1.108574 S    
C9    C114  1.480338 S    
C164  C176  1.414318 A    
C52   C110  1.425219 A    
C316  H164  1.109468 S    
C137  O53   1.346516 S    
C263  H55   1.086093 S    
C166  C174  1.417361 A    
C202  C298  1.516081 S    
C46   C116  1.422410 A    
N17   C122  1.357117 A    
O44   C22   1.278911 A    
C36   C116  1.423683 A    
C317  H167  1.108774 S    
C208  C240  1.414762 A    
C296  H104  1.110510 S    
C157  C181  1.422664 A    
O22   C10   1.277185 A    
O28   C16   1.278228 A    
C293  H93   1.109131 S    
C194  C210  1.408693 A    
C191  C287  1.488807 S    
C313  H153  1.107730 S    
C297  H107  1.109933 S    
C186  C282  1.487814 S    
N4    N13   1.329513 A    
C218  C230  1.415009 A    
C267  O95   1.219397 D    
C298  H109  1.108464 S    
C160  C172  1.416377 A    
N32   C135  1.356863 A    
O40   C18   1.284746 A    
C298  H110  1.110102 S    
C179  C275  1.485352 S    
C186  C189  1.410560 A    
C205  C221  1.411728 A    
C4    C229  1.468711 S    
C271  O99   1.219457 D    
C300  H114  1.109050 S    
C320  H176  1.110189 S    
C317  H165  1.107941 S    
C148  O64   1.347050 S    
C312  H150  1.109211 S    
N26   C129  1.358055 A    
C39   C119  1.423532 A    
O17   C5    1.274281 A    
C262  O90   1.220035 D    
C37   C117  1.422751 A    
N12   C125  1.356218 A    
C273  O101  1.220411 D    
N1    N16   1.329321 A    
C315  H159  1.108436 S    
C292  H92   1.109975 S    
C244  O72   1.220422 D    
C319  H173  1.108744 S    
O9    C1    1.276828 A    
C272  H64   1.086229 S    
C197  C213  1.411111 A    
C267  H59   1.086190 S    
O11   C3    1.279008 A    
C254  H46   1.086040 S    
C293  H95   1.110685 S    
Zn16  O9    1.918223 S    
C65   C97   1.400643 A    
C178  C181  1.414373 A    
Zn14  O3    1.937896 S    
C63   C95   1.399569 A    
N30   C133  1.357929 A    
C41   C257  1.481247 S    
C215  C311  1.516527 S    
C153  C177  1.422790 A    
C32   C64   1.398713 A    
C33   C65   1.402093 A    
C155  C179  1.426273 A    
C308  H138  1.107991 S    
C198  C234  1.414599 A    
C149  O65   1.348748 S    
C156  C180  1.422527 A    
C84   C94   1.399639 A    
C201  C217  1.415405 A    
C258  H50   1.085722 S    
C241  O69   1.220303 D    
C291  H88   1.110149 S    
C87   H31   1.085038 S    
C309  H141  1.108355 S    
C158  C170  1.413546 A    
C99   C126  1.476991 S    
O38   C20   1.276679 A    
C70   C102  1.399783 A    
C141  O57   1.347026 S    
N23   C128  1.357196 A    
C138  O54   1.346770 S    
C78   C100  1.400687 A    
C299  H111  1.109580 S    
C252  O80   1.220208 D    
C68   C100  1.400013 A    
C28   C108  1.423334 A    
C216  C312  1.515516 S    
C150  C162  1.410494 A    
Zn4   O4    1.940375 S    
C79   H23   1.084519 S    
C286  H78   1.084903 S    
C152  N40   1.371907 A    
C282  O110  1.221394 D    
C264  H56   1.086082 S    
C216  C228  1.414093 A    
C44   C118  1.423804 A    
C49   C81   1.398749 A    
C245  H37   1.086148 S    
C319  H171  1.107463 S    
N6    C131  1.358861 A    
C222  C230  1.415088 A    
Zn13  O28   1.930621 S    
C64   C96   1.398708 A    
Zn9   O12   1.917030 S    
O31   C19   1.277202 A    
Zn14  O27   1.930619 S    
C310  H145  1.110323 S    
C210  C306  1.512045 S    
Zn10  O11   1.917030 S    
Zn14  O7    1.916962 S    
Zn15  O2    1.935545 S    
C51   C267  1.476751 S    
Zn11  O2    1.940374 S    
C249  H41   1.086355 S    
N2    C135  1.356706 A    
Zn4   O46   1.930766 S    
O27   C15   1.278118 A    
O29   C17   1.279252 A    
C26   C106  1.419836 A    
C204  C300  1.520499 S    
C223  C319  1.512859 S    
C306  H132  1.105370 S    
C11   C120  1.480200 S    
C25   C241  1.479318 S    
C31   C111  1.422135 A    
C303  H123  1.109080 S    
C86   H30   1.084405 S    
C224  C232  1.415094 A    
C29   C109  1.422633 A    
O46   C12   1.280267 A    
C246  H38   1.086659 S    
C167  C191  1.421817 A    
C47   C263  1.475101 S    
C72   C104  1.398379 A    
O14   C6    1.278710 A    
C198  C214  1.410826 A    
C145  N37   1.363242 A    
C214  C310  1.513584 S    
C183  C279  1.491684 S    
C47   C113  1.418970 A    
C297  H106  1.110137 S    
C202  C238  1.423077 A    
C58   C90   1.399612 A    
C292  H90   1.110106 S    
C312  H152  1.111775 S    
C177  C182  1.413841 A    
C150  N38   1.363769 A    
C189  C285  1.488248 S    
C313  H155  1.110241 S    
C52   C268  1.483208 S    
C247  O75   1.220482 D    
C260  H52   1.086061 S    
C142  N34   1.372415 A    
C202  C218  1.413790 A    
C43   C75   1.396203 A    
C62   H6    1.084840 S    
Zn15  O33   1.931818 S    
C193  C289  1.516798 S    
C159  C183  1.421470 A    
C194  C290  1.517607 S    
C257  H49   1.085763 S    
C208  C224  1.412784 A    
C1    C232  1.479314 S    
C18   C105  1.493903 S    
C42   C258  1.481275 S    
C2    C231  1.485739 S    
C302  H121  1.110115 S    
C285  H77   1.085230 S    
C201  C297  1.516034 S    
C308  H140  1.109072 S    
C182  C278  1.489239 S    
C277  O105  1.220599 D    
N5    N12   1.329362 A    
N21   C126  1.357613 A    
C212  C308  1.517645 S    
C55   C271  1.472973 S    
C266  H58   1.086052 S    
N36   C239  1.444174 S    
Zn12  O30   1.930766 S    
C309  H143  1.110799 S    
C220  C316  1.518189 S    
N38   C233  1.439517 S    
C294  H97   1.110420 S    
C59   C91   1.399449 A    
C204  C240  1.415316 A    
O5    C1    1.281014 A    
C60   C92   1.399686 A    
C74   C104  1.398587 A    
C299  H113  1.106153 S    
N1    C136  1.357900 A    
C289  H81   1.110019 S    
C203  C239  1.410693 A    
N23   N26   1.331224 A    
C76   H20   1.083786 S    
C195  C235  1.423428 A    
C269  H61   1.086130 S    
C61   H5    1.084484 S    
O37   C19   1.278548 A    
C141  C153  1.415367 A    
N10   C127  1.357940 A    
C304  H128  1.109735 S    
C71   H15   1.084024 S    
C163  C187  1.422109 A    
C143  C155  1.426914 A    
C209  C225  1.419727 A    
C250  H42   1.086130 S    
C75   C101  1.399671 A    
O51   C13   1.279741 A    
C305  H131  1.110022 S    
C211  C227  1.415900 A    
N16   C121  1.356923 A    
C284  O112  1.220542 D    
C160  C184  1.421012 A    
C167  C175  1.412365 A    
C193  C209  1.408816 A    
C279  H71   1.085278 S    
C306  H134  1.110617 S    
O8    C4    1.273165 A    
C315  H160  1.109951 S    
C85   C91   1.399633 A    
C295  H101  1.110281 S    
C86   C92   1.399877 A    
C36   C68   1.399918 A    
Zn5   O44   1.930621 S    
C220  C232  1.422220 A    
C206  C302  1.515846 S    
O48   C10   1.279963 A    
Zn6   O43   1.930619 S    
C152  O68   1.346701 S    
C203  C219  1.419675 A    
C242  H34   1.086363 S    
N39   C236  1.481492 S    
O16   C8    1.281682 A    
C22   C109  1.481690 S    
C36   C252  1.482392 S    
C283  H75   1.084994 S    
C83   H27   1.084441 S    
C56   C106  1.422499 A    
C101  C124  1.477417 S    
Zn1   O1    1.937758 S    
C200  C296  1.516028 S    
O52   C14   1.280216 A    
C7    C226  1.478306 S    
C280  H72   1.085070 S    
C304  H126  1.107665 S    
C153  C169  1.414269 A    
C24   C107  1.475787 S    
C195  C211  1.414976 A    
C241  H33   1.087037 S    
C81   C95   1.399757 A    
C8    C225  1.485339 S    
C14   C117  1.479502 S    
C69   C101  1.401033 A    
O45   C11   1.278632 A    
C166  C190  1.420939 A    
N31   C136  1.357519 A    
C290  H85   1.109207 S    
C165  C189  1.420942 A    
C92   C133  1.477763 S    
C287  O115  1.220591 D    
C39   C71   1.399299 A    
C268  H60   1.086594 S    
C162  C186  1.420864 A    
C163  C175  1.413560 A    
C259  H51   1.086454 S    
N9    C128  1.356296 A    
C48   C264  1.482629 S    
C29   C245  1.483304 S    
N7    C130  1.357666 A    
C294  H96   1.109079 S    
C271  H63   1.088895 S    
C158  C182  1.422420 A    
C67   H11   1.088723 S    
C41   C73   1.399771 A    
C43   C117  1.419000 A    
C256  H48   1.086065 S    
O42   C24   1.278059 A    
O6    C2    1.278393 A    
Zn1   O20   1.917030 S    
C39   C255  1.481152 S    
C278  H70   1.085208 S    
C154  C178  1.422650 A    
Zn2   O19   1.917030 S    
C307  H135  1.107226 S    
C59   H3    1.084420 S    
C301  H119  1.110424 S    
C292  H91   1.108489 S    
C197  C233  1.412540 A    
C303  H125  1.109495 S    
C12   C119  1.484634 S    
C145  C165  1.411198 A    
C318  H168  1.107800 S    
C100  C125  1.479948 S    
C82   H26   1.084071 S    
C55   C87   1.395810 A    
C49   C265  1.484643 S    
N33   C238  1.480896 S    
C316  H163  1.110610 S    
C161  C173  1.417214 A    
C288  H80   1.084988 S    
C305  H129  1.103429 S    
C53   C85   1.399194 A    
C96   C129  1.477040 S    
Zn16  O34   1.931821 S    
C314  H156  1.107552 S    
C289  H83   1.109911 S    
C317  H166  1.110449 S    
C281  H73   1.085308 S    
C214  C226  1.416637 A    
C57   H1    1.084473 S    
C296  H103  1.109896 S    
Zn5   O1    1.937895 S    
C249  O77   1.220711 D    
Zn3   O45   1.930768 S    
C47   C79   1.394631 A    
C165  C173  1.417513 A    
C28   C60   1.399841 A    
Zn11  O26   1.927782 S    
C45   C77   1.399278 A    
C50   C82   1.397723 A    
N3    C134  1.356806 A    
C34   C250  1.482752 S    
N13   C124  1.357221 A    
O35   C23   1.279850 A    
C34   C114  1.423148 A    
C139  O55   1.349018 S    
Zn16  O1    1.935551 S    
C253  O81   1.220869 D    
Zn12  O1    1.940375 S    
O32   C20   1.276582 A    
N17   N32   1.330159 A    
C320  H175  1.110231 S    
C140  C160  1.412279 A    
Zn4   O13   1.915792 S    
C16   C115  1.490635 S    
Zn16  O21   1.928755 S    
Zn5   O16   1.916962 S    
C26   C242  1.478868 S    
C301  H118  1.108660 S    
Zn6   O15   1.916962 S    
C28   C244  1.483790 S    
C175  C176  1.413347 A    
C80   H24   1.084131 S    
C273  H65   1.085214 S    
C162  C174  1.416906 A    
N19   N30   1.330943 A    
C81   H25   1.084213 S    
C261  O89   1.223393 D    
C255  O83   1.219650 D    
O12   C4    1.279251 A    
C272  O100  1.220655 D    
C164  C188  1.422051 A    
C97   C128  1.476743 S    
C208  C304  1.518905 S    
C10   C113  1.482874 S    
C270  O98   1.220226 D    
C98   C127  1.477500 S    
C30   C110  1.422371 A    
C254  O82   1.220201 D    
C274  O102  1.220557 D    
C15   C116  1.483309 S    
C276  O104  1.221470 D    
C265  O93   1.220347 D    
C27   C107  1.421932 A    
C146  N38   1.363560 A    
N2    N15   1.330437 A    
C51   C109  1.418539 A    
C93   C132  1.479119 S    
N18   C121  1.357850 A    
C161  C185  1.421485 A    
C94   C131  1.475749 S    
O7    C3    1.274351 A    
C49   C111  1.422026 A    
C95   C130  1.476420 S    
C196  C236  1.424484 A    
C311  H149  1.108784 S    
C221  C229  1.413870 A    
C48   C80   1.398013 A    
C201  C237  1.424877 A    
C151  N39   1.373531 A    
C295  H99   1.110006 S    
C217  C313  1.518680 S    
Zn9   O24   1.932100 S    
Zn10  O23   1.932103 S    
C140  O56   1.348196 S    
O23   C11   1.278967 A    
O39   C17   1.277412 A    
C255  H47   1.086201 S    
C180  C183  1.409873 A    
N28   C131  1.358187 A    
C291  H87   1.108385 S    
C41   C119  1.423695 A    
N3    N14   1.329995 A    
C65   H9    1.084454 S    
Zn7   O49   1.931818 S    
C251  O79   1.228668 D    
Zn9   O4    1.937758 S    
O15   C7    1.277040 A    
C102  C123  1.477530 S    
C63   H7    1.084202 S    
Zn10  O3    1.937764 S    
C294  H98   1.110742 S    
O25   C13   1.279912 A    
Zn6   O52   1.929052 S    
C206  C222  1.413429 A    
C213  C309  1.513484 S    
C185  C190  1.411460 A    
C148  N40   1.372611 A    
C157  C169  1.414126 A    
O18   C6    1.274476 A    
C40   C256  1.481732 S    
C38   C118  1.423634 A    
C286  O114  1.221335 D    
Zn9   O31   1.927625 S    
C307  H137  1.110369 S    
C264  O92   1.220545 D    
C144  O60   1.347408 S    
Zn10  O32   1.927623 S    
O10   C2    1.282747 A    
N22   C125  1.357410 A    
C79   C97   1.398306 A    
C269  O97   1.220822 D    
C53   C107  1.422457 A    
N40   C235  1.480296 S    
C35   C115  1.432082 A    
C318  H170  1.110347 S    
C53   C269  1.484996 S    
C184  C280  1.491758 S    
C281  O109  1.221452 D    
C310  H144  1.108316 S    
C144  N36   1.364011 A    
C137  N33   1.372357 A    
C179  C184  1.413882 A    
C263  O91   1.218299 D    
O41   C23   1.278986 A    
C288  O116  1.220505 D    
C62   C94   1.398174 A    
C188  C191  1.414205 A    
C139  N35   1.362012 A    
C45   C261  1.486628 S    
C150  O66   1.349005 S    
C303  H124  1.107689 S    
C73   C103  1.400032 A    
C56   C272  1.484566 S    
C83   C93   1.399851 A    
C246  O74   1.217990 D    
C142  C154  1.416072 A    
C139  C159  1.410333 A    
C71   C103  1.400030 A    
C35   C251  1.489444 S    
C104  C121  1.474134 S    
C283  O111  1.220702 D    
C173  C174  1.410056 A    
O21   C9    1.278338 A    
C144  C156  1.419987 A    
C44   C260  1.482354 S    
C142  O58   1.346829 S    
C196  C292  1.516185 S    
C207  C239  1.409775 A    
C30   C246  1.477062 S    
C312  H151  1.109890 S    
O49   C15   1.278515 A    
C205  C237  1.422131 A    
C40   C120  1.423820 A    
Zn3   O42   1.927782 S    
C27   C59   1.398308 A    
C27   C243  1.484164 S    
C262  H54   1.086121 S    
N19   C124  1.357503 A    
C313  H154  1.109740 S    
C244  H36   1.086091 S    
C204  C220  1.421415 A    
C260  O88   1.220138 D    
Zn7   O38   1.928758 S    
N35   C240  1.448455 S    
C311  H147  1.108037 S    
N14   C123  1.357268 A    
N6    N11   1.330966 A    
C258  O86   1.219926 D    
C70   H14   1.083799 S    
C259  O87   1.218937 D    
C88   C90   1.401054 A    
C84   H28   1.084601 S    
C171  C172  1.417939 A    
C279  O107  1.222086 D    
Zn8   O50   1.931821 S    
N18   N31   1.330390 A    
Zn2   O2    1.937764 S    
N21   N28   1.328531 A    
C243  H35   1.086072 S    
O26   C14   1.277967 A    
C207  C223  1.414219 A    
C25   C105  1.429460 A    
C137  C157  1.415366 A    
C302  H120  1.108472 S    
Zn8   O37   1.928755 S    
C74   H18   1.084032 S    
C169  C170  1.412868 A    
C308  H139  1.110256 S    
C78   H22   1.084200 S    
C277  H69   1.085213 S    
Zn12  O25   1.927785 S    
C192  C288  1.488073 S    
C300  H116  1.108116 S    
C266  O94   1.219792 D    
C291  H89   1.109932 S    
C193  C233  1.412120 A    
C319  H172  1.109329 S    
C199  C215  1.411764 A    
C187  C192  1.413934 A    
C38   C70   1.398361 A    
O13   C5    1.279208 A    
C275  H67   1.084641 S    
C178  C274  1.488167 S    
N15   C122  1.357139 A    
C50   C112  1.421821 A    
C88   H32   1.084369 S    
C38   C254  1.482523 S    
C42   C74   1.396904 A    
C35   C67   1.396576 A    
C252  H44   1.086086 S    
C168  C176  1.413720 A    
C285  O113  1.221838 D    
C147  C167  1.414320 A    
C155  C171  1.424046 A    
C37   C253  1.483882 S    
C282  H74   1.085188 S    
C156  C172  1.423060 A    
C20   C111  1.475166 S    
Zn4   O41   1.927785 S    
C219  C231  1.418473 A    
C287  H79   1.084901 S    
O24   C12   1.279554 A    
C151  O67   1.347458 S    
C245  O73   1.220203 D    
C5    C228  1.470406 S    
O20   C8    1.279829 A    
C69   H13   1.084052 S    
N27   C132  1.356887 A    
C276  H68   1.086856 S    
C146  C166  1.411500 A    
C103  C122  1.480904 S    
C250  O78   1.220611 D    
C194  C234  1.414228 A    
C72   H16   1.084428 S    
C218  C314  1.517313 S    
C3    C230  1.470180 S    
C188  C284  1.487521 S    
C54   C86   1.398235 A    
C30   C62   1.395196 A    
N24   C127  1.357925 A    
C143  O59   1.344695 S    
N25   C130  1.357807 A    
Zn1   O47   1.927625 S    
C42   C120  1.423036 A    
C306  H133  1.109878 S    
Zn2   O48   1.927623 S    
C66   H10   1.084138 S    
C293  H94   1.110315 S    
C64   H8    1.084054 S    
C58   H2    1.084144 S    
C51   C83   1.396959 A    
C211  C307  1.517991 S    
N11   C126  1.359892 A    
C145  O61   1.348825 S    
C177  C273  1.487818 S    
C52   C84   1.400275 A    
C309  H142  1.109499 S    
C295  H100  1.108628 S    
C54   C108  1.422271 A    
C46   C78   1.398976 A    
C48   C114  1.423102 A    
N4    C133  1.356881 A    
C40   C72   1.397916 A    
Zn15  O10   1.918223 S    
C50   C266  1.482189 S    
C68   H12   1.084369 S    
C37   C69   1.401148 A    
Zn12  O5    1.915792 S    
C32   C112  1.423943 A    
C301  H117  1.110187 S    
Zn13  O8    1.916962 S    
C43   C259  1.477327 S    
O43   C21   1.277200 A    
N29   C134  1.356689 A    
Zn3   O14   1.915792 S    
C280  O108  1.220795 D    
C34   C66   1.398417 A    
Zn15  O22   1.928758 S    
C32   C248  1.482256 S    
C257  O85   1.219984 D    
C31   C247  1.484699 S    
C315  H161  1.105608 S    
C247  H39   1.086072 S    
C154  C170  1.414062 A    
C290  H84   1.109252 S    
C199  C235  1.421588 A    
C268  O96   1.221207 D    
C82   C96   1.400236 A    
C219  C315  1.517468 S    
C210  C226  1.415215 A    
C76   C102  1.399526 A    
C159  C171  1.415518 A    
C25   C57   1.398899 A    
C298  H108  1.110066 S    
C147  N39   1.372868 A    
C56   C88   1.401480 A    
C222  C318  1.517013 S    
C91   C134  1.475734 S    
C199  C295  1.515826 S    
C197  C293  1.518171 S    
C45   C115  1.431400 A    
C256  O84   1.219840 D    
C149  C161  1.411430 A    
C302  H122  1.110254 S    
C217  C229  1.415207 A    
C60   H4    1.084513 S    
C278  O106  1.220506 D    
C248  H40   1.086115 S    
O47   C9    1.277977 A    
C151  C163  1.417046 A    
C66   C98   1.399702 A    
C152  C164  1.415694 A    
N20   C123  1.356864 A    
C185  C281  1.488116 S    
C223  C231  1.418345 A    
O19   C7    1.280100 A    
O33   C21   1.280433 A    
C168  C192  1.422245 A    
C207  C303  1.517634 S    
C61   C93   1.401315 A    
C21   C110  1.484959 S    
C140  N36   1.363134 A    
C299  H112  1.108608 S    
C316  H162  1.106133 S    
Zn11  O6    1.915792 S    
Zn7   O3    1.935545 S    
N22   N27   1.330742 A    
C31   C63   1.398752 A    
C180  C276  1.483808 S    
C44   C76   1.398284 A    
C29   C61   1.402044 A    
C289  H82   1.109054 S    
C221  C317  1.516808 S    
C224  C320  1.520854 S    
C80   C98   1.399528 A    
C296  H102  1.108775 S    
C300  H115  1.107655 S    
C85   H29   1.084447 S    
C13   C118  1.481317 S    
C190  C286  1.488063 S    
C274  H66   1.085114 S    
Zn7   O18   1.918223 S    
Zn8   O17   1.918223 S    
C146  O62   1.348908 S    
C297  H105  1.108429 S    
C212  C228  1.415259 A    
Zn11  O29   1.930768 S    
O50   C16   1.283292 A    
N7    N10   1.330355 A    
C209  C305  1.514341 S    
C305  H130  1.109922 S    
C253  H45   1.085749 S    
C203  C299  1.513030 S    
C77   H21   1.088087 S    
N34   C237  1.481196 S    
C284  H76   1.084991 S    
C57   C89   1.397991 A    
N5    C132  1.356477 A    
C314  H157  1.110227 S    
C320  H174  1.107363 S    
O36   C24   1.278453 A    
C200  C236  1.421721 A    
C149  N37   1.363661 A    
C242  O70   1.219171 D    
C198  C294  1.517561 S    
