data_mof_unit_34142.cif
_audit_creation_date              2012-12-11T14:32:55-0500
_audit_creation_method            fapswitch 2.2
_symmetry_space_group_name_H-M    P1
_symmetry_Int_Tables_number       1
_space_group_crystal_system       triclinic
_cell_length_a                    7.014334
_cell_length_b                    14.305274
_cell_length_c                    17.837629
_cell_angle_alpha                 112.848786
_cell_angle_beta                  95.826769
_cell_angle_gamma                 90.233895
_cell_volume                      1639.04704562

loop_
_atom_site_label
_atom_site_type_symbol
_atom_type_description
_atom_site_fract_x
_atom_site_fract_y
_atom_site_fract_z
_atom_type_partial_charge
O1    O     O_R   0.484560 0.544530 0.414330 -0.522547
O2    O     O_R   0.197040 0.638810 0.585080 -0.497306
O3    O     O_R   0.026800 0.455470 0.585670 -0.521612
C1    C     C_R   0.374745 0.680458 0.606761 0.700688
O4    O     O_R   0.155000 0.556150 0.414940 -0.525689
O5    O     O_R   0.984450 0.372220 0.414320 -0.546891
C2    C     C_R   0.317212 0.562213 0.385223 0.747647
O6    O     O_R   0.526900 0.627780 0.585680 -0.562831
O7    O     O_3   0.339170 0.439750 0.499990 -0.383122
V1    V     V_3+5 0.064350 0.511180 0.500000 1.530427
O8    O     O_R   0.654880 0.361190 0.414920 -0.551146
C3    C     C_R   0.816416 0.325357 0.386115 0.642706
O9    O     O_R   0.696930 0.443850 0.585060 -0.555656
C4    C     C_R   0.873779 0.427060 0.609286 0.741187
V2    V     V_3+5 0.564340 0.488820 0.500000 1.434939
O10   O     O_3   0.839390 0.560250 0.500010 -0.352532
C5    C     C_R   0.046308 0.875045 0.830075 -0.219872
C6    C     C_R   0.909161 0.391230 0.679381 -0.127070
C7    C     C_R   0.940042 0.837025 0.687902 0.402196
C8    C     C_R   0.021235 0.807372 0.748996 0.149581
C9    C     C_R   0.026073 0.979674 0.848021 0.238120
C10   C     C_R   0.984361 0.015671 0.781313 -0.068195
C11   C     C_R   0.942083 0.939971 0.700181 -0.114325
C12   C     C_R   0.991120 0.120071 0.788473 -0.043056
C13   C     C_R   0.961446 0.144468 0.715744 -0.067197
C14   C     C_R   0.938567 0.065339 0.636958 0.194514
C15   C     C_R   0.922490 0.964694 0.630008 0.376497
C16   C     C_R   0.056577 0.202132 0.863014 0.385940
C17   C     C_R   0.131698 0.288184 0.860316 -0.194572
C18   C     C_R   0.046092 0.321260 0.802167 -0.041187
C19   C     C_R   0.966192 0.249730 0.725886 0.091145
C20   C     C_R   0.028765 0.425193 0.822742 0.231877
C21   C     C_R   0.972127 0.460133 0.760109 0.252245
C22   C     C_R   0.894931 0.287535 0.665280 -0.206727
H1    H     H_    0.822764 0.240138 0.607467 0.168310
H2    H     H_    0.216148 0.339330 0.915151 0.154966
H3    H     H_    0.109185 0.210858 0.320996 0.093340
C23   C     C_2   0.128650 0.034459 0.186204 -0.404518
C24   C     C_2   0.970924 0.067721 0.227105 0.347757
C25   C     C_2   0.807473 0.222810 0.316859 0.179195
C26   C     C_2   0.970310 0.173333 0.292246 -0.188312
H4    H     H_    0.256732 0.084194 0.202540 0.128879
C27   C     C_R   0.415214 0.788272 0.673254 -0.173880
C28   C     C_R   0.532146 0.466099 0.837407 -0.102269
C29   C     C_R   0.532267 0.893636 0.814838 -0.175966
C30   C     C_R   0.483185 0.798942 0.753713 0.290024
C31   C     C_R   0.397166 0.880627 0.658118 0.277137
C32   C     C_R   0.462524 0.980390 0.721756 0.028841
C33   C     C_R   0.519524 0.982625 0.800849 0.005399
C34   C     C_R   0.470766 0.079072 0.713562 -0.007758
C35   C     C_R   0.508459 0.173912 0.785986 0.034319
C36   C     C_R   0.542212 0.167154 0.861928 -0.182474
C37   C     C_R   0.558774 0.074159 0.868366 -0.171172
C38   C     C_R   0.450093 0.089120 0.637105 0.302398
C39   C     C_R   0.424431 0.183650 0.633631 -0.199905
C40   C     C_R   0.446760 0.274067 0.703413 0.049736
C41   C     C_R   0.507152 0.273086 0.780699 0.032521
C42   C     C_R   0.407793 0.365790 0.695685 0.345218
C43   C     C_R   0.431245 0.457562 0.764010 -0.268620
C44   C     C_R   0.556446 0.371741 0.848083 -0.226982
H5    H     H_    0.598540 0.074177 0.928709 0.108960
H6    H     H_    0.601607 0.376721 0.908881 0.098938
H7    H     H_    0.378467 0.525098 0.757881 0.124964
H8    H     H_    0.394682 0.185829 0.573520 0.184435
H9    H     H_    0.577435 0.897499 0.876013 0.161345
H10   H     H_    0.561565 0.233826 0.918162 0.117599
H11   H     H_    0.342223 0.671408 0.197578 0.069538
C45   C     C_2   0.316834 0.599781 0.317768 -0.426613
C46   C     C_2   0.462340 0.584137 0.269141 0.460377
C47   C     C_2   0.634803 0.646608 0.178829 0.223173
C48   C     C_2   0.472697 0.638676 0.212696 -0.171310
H12   H     H_    0.200568 0.646904 0.311127 0.144596
O11   O     O_R   0.421600 0.630430 0.917010 -0.535018
O12   O     O_R   0.793840 0.702190 0.087630 -0.552572
O13   O     O_R   0.964010 0.886170 0.088190 -0.516170
C49   C     C_R   0.631280 0.691820 0.115236 0.583109
O14   O     O_R   0.751460 0.619510 0.917500 -0.511762
O15   O     O_R   0.921330 0.802900 0.916840 -0.547762
C50   C     C_R   0.574359 0.575621 0.901654 0.710050
O16   O     O_R   0.464290 0.713700 0.088350 -0.546960
O17   O     O_3   0.609200 0.818520 0.002630 -0.364403
V3    V     V_3+5 0.884140 0.747190 0.002530 1.427151
O18   O     O_R   0.251150 0.814630 0.917340 -0.527354
C51   C     C_R   0.075561 0.833166 0.895485 0.702577
O19   O     O_R   0.293530 0.897310 0.087470 -0.550658
C52   C     C_R   0.130886 0.932420 0.117184 0.770199
V4    V     V_3+5 0.384070 0.769710 0.002370 1.420200
O20   O     O_3   0.109180 0.698190 0.002460 -0.370791
O21   O     O_3   0.896009 0.887445 0.552951 -0.604544
H13   H     H_    0.988233 0.898836 0.518632 0.329280
N1    N     N_2   0.076984 0.495521 0.905770 -0.484182
H14   H     H_    0.222519 0.504879 0.920118 0.253972
C53   C     C_3   0.990188 0.479737 0.971282 -0.469936
H15   H     H_    0.899935 0.542248 0.001997 0.218672
H16   H     H_    0.102971 0.477599 0.019105 0.157491
H17   H     H_    0.901299 0.408701 0.949401 0.187298
N2    N     N_2   0.807635 0.999605 0.209881 -0.454910
H18   H     H_    0.689585 0.013459 0.177010 0.293992
C54   C     C_3   0.766374 0.967911 0.274471 -0.475756
H19   H     H_    0.660349 0.902442 0.249166 0.177052
H20   H     H_    0.704051 0.030398 0.323481 0.207644
H21   H     H_    0.898884 0.943783 0.300341 0.184118
O22   O     O_3   0.631787 0.178320 0.275216 -0.660281
H22   H     H_    0.528617 0.225379 0.295955 0.285905
O23   O     O_3   0.485769 0.719602 0.778757 -0.660238
H23   H     H_    0.446021 0.655967 0.731733 0.260868
O24   O     O_3   0.299560 0.875519 0.585620 -0.631073
H24   H     H_    0.266793 0.804229 0.548153 0.300494
O25   O     O_3   0.465942 0.010739 0.563451 -0.633363
H25   H     H_    0.564700 0.966530 0.573169 0.343603
O26   O     O_3   0.344077 0.365078 0.620290 -0.637351
H26   H     H_    0.350452 0.436460 0.625978 0.320554
O27   O     O_3   0.601684 0.515568 0.268268 -0.585758
H27   H     H_    0.540800 0.456520 0.274226 0.278918
O28   O     O_3   0.803138 0.611154 0.203599 -0.605195
H28   H     H_    0.907174 0.619831 0.173000 0.285382
N3    N     N_2   0.982280 0.565252 0.778303 -0.538735
H29   H     H_    0.049635 0.610477 0.835118 0.293757
C55   C     C_3   0.809691 0.605352 0.754286 -0.418541
H30   H     H_    0.795927 0.682402 0.797567 0.245955
H31   H     H_    0.684849 0.559022 0.750621 0.170524
H32   H     H_    0.810811 0.608118 0.693742 0.203521
O29   O     O_3   0.869866 0.764284 0.613086 -0.585602
H33   H     H_    0.844945 0.701143 0.620679 0.337782
O30   O     O_3   0.085337 0.711150 0.724897 -0.651436
H34   H     H_    0.159242 0.702756 0.771185 0.328017
N4    N     N_2   0.027396 0.042224 0.932485 -0.499505
H35   H     H_    0.927719 0.018036 0.960638 0.234214
C56   C     C_3   0.212750 0.069693 0.981423 -0.446602
H36   H     H_    0.291226 0.126260 0.966704 0.231556
H37   H     H_    0.191825 0.105702 0.047296 0.178196
H38   H     H_    0.301225 0.003075 0.971947 0.168129
N5    N     N_2   0.977621 0.084865 0.566810 -0.522946
H39   H     H_    0.107369 0.059296 0.546833 0.298600
C57   C     C_3   0.829039 0.063042 0.498482 -0.569856
H40   H     H_    0.878045 0.095772 0.456223 0.188117
H41   H     H_    0.694360 0.098771 0.518714 0.230280
H42   H     H_    0.798914 0.980658 0.463448 0.225956
O31   O     O_3   0.010232 0.215800 0.939116 -0.639607
H43   H     H_    0.877461 0.189279 0.932289 0.315368

loop_
_geom_bond_atom_site_label_1
_geom_bond_atom_site_label_2
_ccdc_geom_bond_type
C13   C19   A    
C57   H42   S    
O18   V4    S    
V4    O20   S    
C21   N3    S    
C53   H15   S    
C4    C6    S    
O2    C1    A    
C7    C8    A    
C1    O6    A    
O17   V3    S    
C57   H40   S    
C24   C26   S    
C29   C30   A    
C17   H2    S    
C7    O29   S    
C14   C15   A    
C34   C38   A    
O12   C49   A    
C23   C52   S    
C9    C10   A    
C16   C17   A    
C23   H4    S    
O16   V4    S    
N3    C55   S    
O5    C3    A    
C23   C24   D    
C33   C37   A    
C24   N2    S    
C20   N1    S    
C28   C43   A    
V2    O10   S    
C30   O23   S    
C5    C8    A    
C40   C41   A    
C44   H6    S    
C22   H1    S    
C46   C48   S    
O11   V4    S    
C2    C45   S    
O8    V2    S    
C54   H19   S    
C45   C46   D    
O24   H24   S    
C47   C48   D    
C35   C41   A    
C11   C15   A    
C9    N4    S    
O7    V1    S    
C56   H38   S    
O19   V4    S    
C53   H16   S    
O9    C4    A    
H3    C26   S    
C16   O31   S    
C37   H5    S    
O12   V3    S    
N2    C54   S    
N2    H18   S    
C55   H31   S    
O31   H43   S    
C19   C22   A    
C42   O26   S    
C18   C20   A    
C31   C32   A    
C49   O16   A    
O29   H33   S    
C12   C13   A    
N1    H14   S    
O4    C2    A    
C56   H36   S    
C41   C44   A    
C42   C43   A    
O19   C52   A    
C5    C9    A    
C35   C36   A    
C38   O25   S    
C3    C25   S    
C7    C11   A    
N4    C56   S    
C17   C18   A    
N1    C53   S    
O15   V3    S    
O13   C52   A    
O18   C51   A    
C29   C33   A    
C18   C19   A    
C45   H12   S    
C46   O27   S    
C39   H8    S    
C39   C40   A    
C34   C35   A    
O11   C50   A    
O14   C50   A    
C6    C22   A    
O17   V4    S    
O3    C4    A    
O1    V2    S    
C32   C33   A    
C54   H20   S    
C53   H17   S    
C31   O24   S    
O9    V2    S    
C29   H9    S    
O30   H34   S    
C10   C12   A    
N4    H35   S    
O2    V1    S    
C36   H10   S    
C36   C37   A    
N5    C57   S    
O27   H27   S    
C55   H32   S    
C57   H41   S    
C38   C39   A    
C25   C26   D    
O26   H26   S    
O1    C2    A    
C28   C50   S    
C12   C16   A    
O5    V1    S    
C55   H30   S    
O13   V3    S    
C1    C27   S    
C47   O28   S    
O6    V2    S    
O23   H23   S    
C43   H7    S    
C5    C51   S    
C20   C21   A    
C13   C14   A    
C8    O30   S    
C14   N5    S    
V1    O10   S    
N3    H29   S    
C25   O22   S    
C47   C49   S    
N5    H39   S    
C27   C30   A    
O14   V3    S    
C28   C44   A    
V3    O20   S    
C32   C34   A    
C40   C42   A    
C15   O21   S    
H11   C48   S    
O7    V2    S    
C6    C21   A    
O15   C51   A    
O4    V1    S    
C54   H21   S    
O22   H22   S    
O3    V1    S    
C10   C11   A    
O21   H13   S    
O25   H25   S    
C27   C31   A    
O28   H28   S    
O8    C3    A    
C56   H37   S    
