data_mof_unit_17386.cif
_audit_creation_date              2012-12-11T15:10:50-0500
_audit_creation_method            fapswitch 2.2
_symmetry_space_group_name_H-M    P1
_symmetry_Int_Tables_number       1
_space_group_crystal_system       triclinic
_cell_length_a                    21.154474
_cell_length_b                    7.229342
_cell_length_c                    18.322889
_cell_angle_alpha                 90.000276
_cell_angle_beta                  93.161277
_cell_angle_gamma                 90.000032
_cell_volume                      2797.90888167

loop_
_atom_site_label
_atom_site_type_symbol
_atom_type_description
_atom_site_fract_x
_atom_site_fract_y
_atom_site_fract_z
_atom_type_partial_charge
O1    O     O_R   0.448880 0.506250 0.415280 -0.520573
O2    O     O_R   0.551120 0.006250 0.584720 -0.520575
O3    O     O_R   0.434830 0.174000 0.557310 -0.524019
O4    O     O_R   0.565170 0.674000 0.442690 -0.524019
C1    C     C_R   0.417323 0.344466 0.580118 0.728269
C2    C     C_R   0.582677 0.844465 0.419882 0.728272
O5    O     O_R   0.441680 0.176440 0.414130 -0.540183
O6    O     O_R   0.558320 0.676440 0.585870 -0.540181
O7    O     O_R   0.558020 0.007570 0.440520 -0.516654
O8    O     O_R   0.441980 0.507570 0.559480 -0.516653
C3    C     C_R   0.426429 0.345250 0.389666 0.770142
C4    C     C_R   0.573571 0.845250 0.610334 0.770144
O9    O     O_3   0.538160 0.339670 0.508820 -0.375679
O10   O     O_3   0.461840 0.839670 0.491180 -0.375680
V1    V     V_3+5 0.492920 0.064260 0.498360 1.393976
V2    V     V_3+5 0.507080 0.564260 0.501640 1.393979
C5    C     C_R   0.884608 0.947688 0.686713 0.473025
C6    C     C_R   0.115393 0.447713 0.313287 0.473023
H1    H     H_    0.970207 0.970075 0.755593 0.165919
H2    H     H_    0.029794 0.470102 0.244407 0.165919
H3    H     H_    0.802725 0.972193 0.569188 0.208241
H4    H     H_    0.197276 0.472219 0.430811 0.208239
C7    C     C_R   0.889265 0.939166 0.819258 -0.135861
C8    C     C_R   0.110735 0.439170 0.180742 -0.135862
C9    C     C_R   0.587266 0.798197 0.741712 -0.231994
C10   C     C_R   0.412733 0.298181 0.258289 -0.231992
C11   C     C_R   0.623283 0.759094 0.805188 -0.177994
C12   C     C_R   0.376714 0.259073 0.194814 -0.177996
C13   C     C_R   0.689245 0.773640 0.807849 0.300547
C14   C     C_R   0.310753 0.273623 0.192153 0.300546
C15   C     C_R   0.720070 0.851814 0.747583 0.017586
C16   C     C_R   0.279929 0.351810 0.252418 0.017585
C17   C     C_R   0.683002 0.881151 0.680165 -0.007242
C18   C     C_R   0.316998 0.381152 0.319835 -0.007243
C19   C     C_R   0.786809 0.893824 0.751102 0.028532
C20   C     C_R   0.213190 0.393826 0.248898 0.028533
C21   C     C_R   0.817716 0.924719 0.685211 -0.053951
C22   C     C_R   0.182284 0.424735 0.314789 -0.053950
C23   C     C_R   0.781048 0.940328 0.619678 -0.154063
C24   C     C_R   0.218953 0.440346 0.380322 -0.154064
C25   C     C_R   0.715043 0.933267 0.617340 0.205117
C26   C     C_R   0.284958 0.433278 0.382660 0.205117
C27   C     C_R   0.823539 0.913438 0.818089 -0.179696
C28   C     C_R   0.176460 0.413433 0.181911 -0.179697
C29   C     C_R   0.919303 0.952334 0.753824 -0.217023
C30   C     C_R   0.080698 0.452353 0.246176 -0.217023
C31   C     C_R   0.615755 0.850365 0.677974 -0.080212
C32   C     C_R   0.384245 0.350361 0.322027 -0.080212
H5    H     H_    0.801978 0.917136 0.870042 0.153866
H6    H     H_    0.198021 0.417120 0.129958 0.153866
H7    H     H_    0.536592 0.775002 0.740991 0.120727
H8    H     H_    0.463406 0.274981 0.259010 0.120727
H9    H     H_    0.599748 0.704090 0.851525 0.121471
H10   H     H_    0.400249 0.204058 0.148478 0.121472
C33   C     C_1   0.864509 0.938944 0.132086 -0.188370
C34   C     C_1   0.135491 0.438943 0.867914 -0.188370
C35   C     C_1   0.821620 0.924881 0.175800 0.021132
C36   C     C_1   0.178380 0.424881 0.824200 0.021132
C37   C     C_1   0.770993 0.905734 0.227825 0.019922
C38   C     C_1   0.229007 0.405734 0.772175 0.019922
C39   C     C_1   0.728342 0.889057 0.271711 0.017591
C40   C     C_1   0.271658 0.389057 0.728289 0.017591
C41   C     C_1   0.677685 0.869859 0.323685 0.007206
C42   C     C_1   0.322314 0.369860 0.676315 0.007205
C43   C     C_1   0.634792 0.855743 0.367375 -0.222942
C44   C     C_1   0.365208 0.355743 0.632624 -0.222942
O11   O     O_R   0.058070 0.289240 0.940580 -0.519497
O12   O     O_R   0.941930 0.789240 0.059420 -0.519497
O13   O     O_R   0.058330 0.616740 0.085880 -0.534743
O14   O     O_R   0.941670 0.116740 0.914120 -0.534742
C45   C     C_R   0.071994 0.448452 0.111476 0.715870
C46   C     C_R   0.928006 0.948451 0.888524 0.715872
O15   O     O_R   0.065180 0.619040 0.942700 -0.524102
O16   O     O_R   0.934820 0.119040 0.057300 -0.524102
O17   O     O_R   0.948870 0.787780 0.915270 -0.525799
O18   O     O_R   0.051130 0.287780 0.084730 -0.525798
C47   C     C_R   0.083209 0.450323 0.920197 0.708698
C48   C     C_R   0.916791 0.950323 0.079803 0.708698
O19   O     O_3   0.961870 0.453310 0.991210 -0.368203
O20   O     O_3   0.038130 0.953310 0.008790 -0.368203
V3    V     V_3+5 0.007070 0.728770 0.001630 1.435810
V4    V     V_3+5 0.992930 0.228770 0.998370 1.435811
S1    S     S_3+6 0.926899 0.972018 0.606126 0.035545
O21   O     O_2   0.997120 0.975341 0.624018 -0.302202
O22   O     O_2   0.911262 0.812539 0.555645 -0.306701
O23   O     O_3   0.905233 0.171090 0.564330 -0.492821
H11   H     H_    0.928351 0.172647 0.518765 0.406276
S2    S     S_3+6 0.073102 0.472062 0.393873 0.035547
O24   O     O_2   0.002881 0.475396 0.375982 -0.302192
O25   O     O_2   0.088736 0.312588 0.444357 -0.306708
O26   O     O_3   0.094772 0.671136 0.435666 -0.492824
H12   H     H_    0.071660 0.672696 0.481235 0.406274
N1    N     N_2   0.723691 0.688420 0.867830 -0.549225
H13   H     H_    0.700312 0.686825 0.915792 0.249160
C49   C     C_3   0.750317 0.509754 0.851275 -0.524286
H14   H     H_    0.779071 0.458341 0.899608 0.195524
H15   H     H_    0.781642 0.520304 0.804753 0.219914
H16   H     H_    0.711870 0.408723 0.837533 0.191673
N2    N     N_2   0.276305 0.188397 0.132174 -0.549224
H17   H     H_    0.299684 0.186792 0.084212 0.249160
C50   C     C_3   0.249678 0.009735 0.148733 -0.524281
H18   H     H_    0.220924 0.958317 0.100401 0.195524
H19   H     H_    0.218353 0.020296 0.195255 0.219915
H20   H     H_    0.288124 0.908704 0.162477 0.191672
N3    N     N_2   0.682024 0.984705 0.550899 -0.542119
H21   H     H_    0.698581 0.916126 0.506448 0.247026
C51   C     C_3   0.680112 0.182827 0.539160 -0.434483
H22   H     H_    0.654000 0.213891 0.486463 0.201743
H23   H     H_    0.728764 0.239710 0.536617 0.186660
H24   H     H_    0.655821 0.252091 0.583958 0.203467
N4    N     N_2   0.317977 0.484716 0.449101 -0.542118
H25   H     H_    0.301421 0.416136 0.493551 0.247024
C52   C     C_3   0.319889 0.682838 0.460841 -0.434479
H26   H     H_    0.346002 0.713900 0.513538 0.201743
H27   H     H_    0.271237 0.739720 0.463385 0.186656
H28   H     H_    0.344180 0.752103 0.416043 0.203467

loop_
_geom_bond_atom_site_label_1
_geom_bond_atom_site_label_2
_ccdc_geom_bond_type
C13   N1    S    
C41   C43   T    
N1    H13   S    
C7    C29   A    
C11   C13   A    
C49   H14   S    
O11   C47   A    
O2    C4    A    
C2    O7    A    
C49   H16   S    
C23   C25   A    
O5    C3    A    
N3    C51   S    
C50   H18   S    
C25   N3    S    
O12   V3    S    
C16   C20   A    
C19   C21   A    
C5    C29   A    
C46   O17   A    
C45   O18   A    
C35   C37   S    
C36   C38   S    
C7    C27   A    
C38   C40   T    
C39   C41   S    
C40   C42   S    
C2    C43   S    
S1    O21   D    
C12   C14   A    
C18   C26   A    
C51   H22   S    
C15   C17   A    
C14   C16   A    
C19   C27   A    
C9    C31   A    
C10   C32   A    
C52   H28   S    
C24   C26   A    
C50   H19   S    
C13   C15   A    
C51   H23   S    
C3    C32   S    
O16   V4    S    
C4    C31   S    
C6    C30   A    
O15   V3    S    
O12   C48   A    
C37   C39   T    
O13   C45   A    
H1    C29   S    
O4    C2    A    
O18   V4    S    
O26   H12   S    
C33   C48   S    
C12   H10   S    
O23   H11   S    
C27   H5    S    
C14   N2    S    
C6    S2    S    
C34   C47   S    
C5    S1    S    
C42   C44   T    
O4    V2    S    
C26   N4    S    
C9    H7    S    
C10   H8    S    
N2    H17   S    
H3    C23   S    
S2    O26   S    
O6    C4    A    
H4    C24   S    
C49   H15   S    
N4    C52   S    
O1    V2    S    
C5    C21   A    
O2    V1    S    
N2    C50   S    
S2    O25   D    
C50   H20   S    
C33   C35   T    
C17   C31   A    
C51   H24   S    
C15   C19   A    
C20   C28   A    
C18   C32   A    
O3    V1    S    
C52   H26   S    
C28   H6    S    
N4    H25   S    
S1    O22   D    
C7    C46   S    
O17   V3    S    
O20   V3    S    
O3    C1    A    
O19   V4    S    
C11   H9    S    
C9    C11   A    
N3    H21   S    
C10   C12   A    
C8    C30   A    
C20   C22   A    
C6    C22   A    
C17   C25   A    
C1    O8    A    
C21   C23   A    
O8    V2    S    
C1    C44   S    
C22   C24   A    
N1    C49   S    
C8    C28   A    
O5    V1    S    
C34   C36   T    
O7    V1    S    
O14   V4    S    
O13   V3    S    
S1    O23   S    
S2    O24   D    
O11   V4    S    
O6    V2    S    
O16   C48   A    
O9    V2    S    
O15   C47   A    
O10   V1    S    
O14   C46   A    
O1    C3    A    
H2    C30   S    
C8    C45   S    
C16   C18   A    
C52   H27   S    
