data_mof_unit_47847.cif
_audit_creation_date              2012-12-10T17:13:23-0500
_audit_creation_method            fapswitch 2.2
_symmetry_space_group_name_H-M    P1
_symmetry_Int_Tables_number       1
_space_group_crystal_system       triclinic
_cell_length_a                    18.274415
_cell_length_b                    18.18607
_cell_length_c                    18.262168
_cell_angle_alpha                 119.753386
_cell_angle_beta                  90.662306
_cell_angle_gamma                 119.653737
_cell_volume                      4304.98930043

loop_
_atom_site_label
_atom_site_type_symbol
_atom_type_description
_atom_site_fract_x
_atom_site_fract_y
_atom_site_fract_z
_atom_type_partial_charge
C1    C     C_R   0.639636 0.779702 0.639055 0.488634
C2    C     C_R   0.054627 0.899073 0.233050 0.043075
C3    C     C_R   0.148161 0.946479 0.241775 0.021711
C4    C     C_R   0.359775 0.220013 0.360075 0.543767
C5    C     C_R   0.208392 0.056794 0.301129 -0.038424
C6    C     C_R   0.298452 0.107504 0.303924 0.035583
C7    C     C_R   0.330221 0.051359 0.250086 0.229519
C8    C     C_R   0.274450 0.943996 0.198094 -0.136594
C9    C     C_R   0.185481 0.891502 0.194054 -0.012066
C10   C     C_R   0.842234 0.661968 0.438374 -0.091541
C11   C     C_R   0.932237 0.708311 0.478597 -0.140284
C12   C     C_3   0.836871 0.572004 0.768534 -0.125945
C13   C     C_R   0.977103 0.670517 0.428889 -0.134237
C14   C     C_R   0.934801 0.593935 0.336987 -0.089458
C15   C     C_R   0.846015 0.553348 0.293429 0.024627
C16   C     C_R   0.362052 0.502030 0.642200 0.523014
C17   C     C_R   0.795170 0.575629 0.347047 0.027418
C18   C     C_R   0.699957 0.510283 0.306825 0.007741
C19   C     C_R   0.660547 0.441006 0.213366 -0.170036
C20   C     C_R   0.713263 0.435435 0.159917 -0.166218
C21   C     C_R   0.806087 0.492117 0.198690 0.006098
C22   C     C_R   0.774623 0.888898 0.581726 -0.138813
C23   C     C_3   0.766170 0.594724 0.793919 -0.172546
C24   C     C_R   0.844653 0.939888 0.558101 -0.129352
C25   C     C_R   0.907323 0.048464 0.615874 0.292296
C26   C     C_R   0.892445 0.103685 0.693834 -0.069040
C27   C     C_R   0.821550 0.052842 0.719519 -0.068000
C28   C     C_R   0.640805 0.504009 0.360474 0.497179
C29   C     C_R   0.764066 0.943564 0.663755 0.003463
C30   C     C_R   0.694794 0.891481 0.689423 -0.008690
C31   C     C_R   0.676897 0.946070 0.764069 -0.123103
C32   C     C_R   0.731089 0.053263 0.818440 0.248421
C33   C     C_R   0.804360 0.107359 0.797601 0.020489
C34   C     C_3   0.732396 0.523564 0.826865 -0.154386
C35   C     C_R   0.184896 0.455241 0.379051 -0.094323
C36   C     C_R   0.103133 0.437099 0.388343 -0.122556
C37   C     C_R   0.049023 0.437273 0.334311 -0.133990
C38   C     C_R   0.076312 0.455217 0.270478 -0.105890
C39   C     C_R   0.159779 0.475528 0.261011 0.028354
C40   C     C_R   0.357075 0.498256 0.358941 0.494177
C41   C     C_R   0.214620 0.475631 0.315870 0.025480
C42   C     C_R   0.296394 0.492810 0.303463 0.032757
C43   C     C_R   0.321489 0.504389 0.236193 -0.150624
C44   C     C_R   0.268043 0.504217 0.182708 -0.150073
C45   C     C_3   0.663291 0.428708 0.731676 -0.130121
C46   C     C_R   0.189222 0.492510 0.196220 0.033276
C47   C     C_R   0.411702 0.699220 0.804718 -0.098918
C48   C     C_R   0.433678 0.792644 0.880483 -0.119163
C49   C     C_R   0.380660 0.792864 0.934336 -0.122806
C50   C     C_R   0.305151 0.699662 0.912670 -0.089160
C51   C     C_R   0.279880 0.603697 0.834742 0.013341
C52   C     C_R   0.641455 0.500138 0.641946 0.537809
C53   C     C_R   0.334121 0.603336 0.779793 -0.021770
C54   C     C_R   0.311856 0.507018 0.704361 0.023633
C55   C     C_R   0.242950 0.413245 0.689843 0.241842
C56   C     C_3   0.698172 0.499963 0.699543 0.075787
C57   C     C_R   0.187164 0.414480 0.741144 -0.142694
C58   C     C_R   0.203997 0.507890 0.811985 -0.027543
C59   C     C_R   0.860379 0.496117 0.140476 0.484679
C60   C     C_R   0.142059 0.502056 0.862021 0.496082
C61   C     C_R   0.136655 0.779734 0.139659 0.495660
C62   C     C_R   0.860204 0.219991 0.857553 0.502377
C63   C     C_R   0.139225 0.498035 0.141040 0.496351
C64   C     C_3   0.767469 0.477055 0.674549 0.297428
C65   C     C_R   0.858500 0.499754 0.857942 0.491812
C66   C     C_3   0.733440 0.405817 0.706022 0.020290
C67   C     C_R   0.177145 0.115191 0.354676 -0.106871
C68   C     C_3   0.801733 0.500032 0.800369 0.021966
C69   C     C_3   0.717064 0.299506 0.658169 -0.271301
C70   C     C_3   0.643237 0.221998 0.566707 -0.418612
C71   C     C_3   0.977875 0.788066 0.158957 -0.269307
C72   C     C_3   0.959847 0.774462 0.069704 -0.417054
C73   C     C_3   0.859611 0.460305 0.589588 0.003678
C74   C     C_3   0.922667 0.552452 0.585954 -0.254999
C75   C     C_3   0.009711 0.562542 0.578205 -0.481997
C76   C     C_3   0.002764 0.048522 0.528272 0.006901
C77   C     C_3   0.040584 0.999147 0.549120 -0.286492
C78   C     C_R   0.088563 0.067513 0.349799 -0.146492
C79   C     C_3   0.066339 0.942349 0.471842 -0.471694
C80   C     C_3   0.758263 0.131933 0.969927 0.021632
C81   C     C_3   0.696084 0.062523 0.996964 -0.273637
C82   C     C_3   0.742522 0.099296 0.089928 -0.485267
C83   C     C_3   0.234228 0.265977 0.649951 0.013539
C84   C     C_3   0.332124 0.316713 0.698957 -0.258793
C85   C     C_3   0.338250 0.257262 0.732400 -0.495127
C86   C     C_3   0.426107 0.095330 0.177172 0.016089
C87   C     C_3   0.524954 0.162738 0.189771 -0.246582
C88   C     C_3   0.536770 0.157204 0.104985 -0.485291
C89   C     C_R   0.028090 0.961268 0.289836 -0.116109
H1    H     H_    0.958604 0.927942 0.285432 0.099045
H2    H     H_    0.728083 0.805947 0.533672 0.131725
H3    H     H_    0.848346 0.892045 0.494601 0.090906
H4    H     H_    0.937592 0.187127 0.733321 0.154954
H5    H     H_    0.383822 0.516064 0.226540 0.125353
H6    H     H_    0.223262 0.451102 0.420568 0.132751
H7    H     H_    0.081199 0.421428 0.436823 0.111175
H8    H     H_    0.985093 0.421989 0.340962 0.105372
H9    H     H_    0.030625 0.450903 0.227868 0.114444
H10   H     H_    0.908457 0.630347 0.784605 0.115640
H11   H     H_    0.289272 0.515803 0.131929 0.127124
H12   H     H_    0.301461 0.900875 0.161334 0.117370
H13   H     H_    0.458078 0.703764 0.768322 0.131118
H14   H     H_    0.493191 0.865129 0.898483 0.104481
H15   H     H_    0.399072 0.865521 0.994154 0.098586
H16   H     H_    0.268872 0.704294 0.959197 0.134914
H17   H     H_    0.128891 0.341753 0.724446 0.158848
H18   H     H_    0.777846 0.671852 0.829018 0.114269
H19   H     H_    0.719313 0.543165 0.890997 0.118618
H20   H     H_    0.591737 0.370751 0.716218 0.122299
H21   H     H_    0.220510 0.198798 0.400397 0.143363
H22   H     H_    0.065856 0.113927 0.390765 0.120488
H23   H     H_    0.588534 0.391807 0.181088 0.142378
H24   H     H_    0.579530 0.212607 0.574215 0.157882
H25   H     H_    0.662337 0.248295 0.522366 0.193954
H26   H     H_    0.632440 0.145546 0.534597 0.137893
H27   H     H_    0.780053 0.307438 0.649504 0.131542
H28   H     H_    0.697403 0.270067 0.700326 0.165483
H29   H     H_    0.939005 0.824459 0.075262 0.140133
H30   H     H_    0.020241 0.795604 0.049729 0.181359
H31   H     H_    0.904825 0.692612 0.016662 0.140673
H32   H     H_    0.986574 0.729777 0.152753 0.169943
H33   H     H_    0.914832 0.767571 0.174676 0.118930
H34   H     H_    0.812220 0.697723 0.479338 0.145850
H35   H     H_    0.844996 0.388505 0.527846 0.146141
H36   H     H_    0.893233 0.468347 0.647124 0.117727
H37   H     H_    0.889073 0.542023 0.527055 0.191795
H38   H     H_    0.938315 0.625013 0.647547 0.161834
H39   H     H_    0.045715 0.575662 0.637498 0.158506
H40   H     H_    0.053398 0.629281 0.574735 0.152715
H41   H     H_    0.995394 0.491134 0.516333 0.141673
H42   H     H_    0.055231 0.103761 0.517066 0.170557
H43   H     H_    0.945373 0.991912 0.464306 0.116501
H44   H     H_    0.100470 0.060221 0.611037 0.155273
H45   H     H_    0.966644 0.772317 0.548882 0.110740
H46   H     H_    0.991079 0.943055 0.561418 0.161313
H47   H     H_    0.006681 0.879203 0.409690 0.162852
H48   H     H_    0.093275 0.907688 0.488801 0.155398
H49   H     H_    0.118647 0.996906 0.459671 0.161103
H50   H     H_    0.784465 0.213665 0.023293 0.153687
H51   H     H_    0.817664 0.128543 0.966277 0.108028
H52   H     H_    0.635628 0.063200 0.997262 0.173135
H53   H     H_    0.674421 0.981645 0.947269 0.145999
H54   H     H_    0.802823 0.098333 0.091118 0.150549
H55   H     H_    0.695792 0.046913 0.107106 0.148540
H56   H     H_    0.045590 0.702557 0.460986 0.116102
H57   H     H_    0.762610 0.179142 0.141130 0.143903
H58   H     H_    0.208638 0.187653 0.589913 0.147306
H59   H     H_    0.192381 0.254561 0.692121 0.141116
H60   H     H_    0.370505 0.316891 0.652274 0.207931
H61   H     H_    0.363196 0.397959 0.757315 0.158661
H62   H     H_    0.302204 0.257560 0.781003 0.152701
H63   H     H_    0.409609 0.294684 0.766440 0.149375
H64   H     H_    0.308697 0.175875 0.675242 0.148789
H65   H     H_    0.390826 0.123701 0.161004 0.149108
H66   H     H_    0.396981 0.013821 0.120174 0.116352
H67   H     H_    0.971804 0.565480 0.301776 0.142664
H68   H     H_    0.554749 0.244620 0.246115 0.190297
H69   H     H_    0.561298 0.136132 0.206873 0.169422
H70   H     H_    0.508393 0.076128 0.047976 0.141848
H71   H     H_    0.609201 0.206432 0.116313 0.156348
H72   H     H_    0.502764 0.185786 0.087718 0.151014
H73   H     H_    0.680903 0.385963 0.087790 0.151274
H74   H     H_    0.621279 0.905118 0.781234 0.127996
O1    O     O_3   0.500000 0.500000 0.500000 -0.441259
O2    O     O_R   0.945270 0.268330 0.884560 -0.567347
O3    O     O_R   0.117250 0.560610 0.177960 -0.550150
O4    O     O_R   0.676930 0.731590 0.616180 -0.555462
O5    O     O_R   0.821970 0.439270 0.882700 -0.543171
O6    O     O_R   0.117250 0.439170 0.056520 -0.542159
O7    O     O_R   0.943420 0.560710 0.882700 -0.553107
O8    O     O_R   0.115410 0.731560 0.054670 -0.556552
O9    O     O_R   0.823040 0.268350 0.883790 -0.499099
O10   O     O_R   0.945270 0.560650 0.176870 -0.566477
O11   O     O_R   0.116170 0.439210 0.884560 -0.545131
O12   O     O_R   0.384570 0.439270 0.616180 -0.526738
O13   O     O_R   0.384570 0.268390 0.445310 -0.544598
O14   O     O_R   0.383800 0.560730 0.615410 -0.561539
O15   O     O_R   0.554710 0.439290 0.323100 -0.548867
O16   O     O_R   0.382720 0.560770 0.443450 -0.544052
O17   O     O_R   0.678010 0.560670 0.617270 -0.518055
O18   O     O_R   0.382720 0.439330 0.322010 -0.548569
O19   O     O_R   0.556550 0.439230 0.617270 -0.563542
O20   O     O_3   0.777736 0.449832 0.590234 -0.567286
O21   O     O_3   0.983301 0.106743 0.601256 -0.588047
O22   O     O_3   0.709124 0.105000 0.889917 -0.548944
O23   O     O_R   0.676930 0.560710 0.445310 -0.553225
O24   O     O_3   0.225654 0.320031 0.618964 -0.561356
O25   O     O_3   0.419519 0.102244 0.257048 -0.564209
O26   O     O_R   0.554710 0.731610 0.615410 -0.544843
O27   O     O_R   0.383800 0.268410 0.323100 -0.538039
O28   O     O_3   0.999970 0.499940 0.999970 -0.437288
O29   O     O_R   0.823040 0.439240 0.054670 -0.541438
O30   O     O_R   0.115410 0.560680 0.883790 -0.546308
O31   O     O_R   0.116170 0.731530 0.176870 -0.537441
Zn1   Zn    Zn3+2 0.457160 0.413230 0.543930 0.929111
Zn2   Zn    Zn3+2 0.456070 0.586770 0.542830 0.918091
Zn3   Zn    Zn3+2 0.456070 0.413260 0.369320 0.930604
Zn4   Zn    Zn3+2 0.630700 0.586740 0.543930 0.931651
Zn5   Zn    Zn3+2 0.042810 0.586720 0.956040 0.905254
Zn6   Zn    Zn3+2 0.043900 0.586680 0.130650 0.908798
Zn7   Zn    Zn3+2 0.043900 0.413170 0.957150 0.919184
Zn8   Zn    Zn3+2 0.869280 0.413210 0.956040 0.932482

loop_
_geom_bond_atom_site_label_1
_geom_bond_atom_site_label_2
_ccdc_geom_bond_type
C66   C68   S    
C87   C88   S    
C69   H27   S    
C86   O25   S    
O14   Zn2   S    
C27   C29   A    
C60   O11   A    
C41   C42   A    
C71   H33   S    
C35   C36   A    
C13   H56   S    
C38   H9    S    
O18   Zn3   S    
C49   H15   S    
C37   H8    S    
C81   C82   S    
O1    Zn1   S    
C23   C56   S    
C39   C41   A    
C53   C54   A    
C27   C33   A    
C79   H47   S    
C12   C68   S    
C65   O5    A    
C26   C27   A    
C29   C30   A    
C32   O22   S    
C9    C61   S    
C5    C6    A    
C36   C37   A    
C22   C29   A    
O28   Zn5   S    
C21   C59   S    
C30   C31   A    
C12   C64   S    
C76   H42   S    
C45   H20   S    
C63   O6    A    
C66   C69   S    
C1    O4    A    
C10   C17   A    
C58   C60   S    
C88   H72   S    
C25   O21   S    
C11   C13   A    
C43   H5    S    
C18   C19   A    
C75   H39   S    
C73   C74   S    
C88   H70   S    
O2    Zn7   S    
C12   H10   S    
O8    Zn5   S    
C64   O20   S    
C63   O3    A    
O31   Zn6   S    
C47   C48   A    
C45   C56   S    
O1    Zn4   S    
C8    C9    A    
C79   H49   S    
C50   H16   S    
C22   H2    S    
C56   C64   S    
C78   H22   S    
C61   O8    A    
O28   Zn8   S    
C55   O24   S    
C8    H12   S    
C75   H41   S    
C5    C67   A    
C47   C53   A    
C84   H60   S    
C65   C68   S    
C26   H4    S    
C81   H52   S    
C57   H17   S    
C20   H73   S    
C85   H62   S    
C78   C89   A    
C47   H13   S    
C13   C14   A    
O10   Zn6   S    
C83   O24   S    
C59   O29   A    
C69   C70   S    
C67   C78   A    
C77   H44   S    
C74   H38   S    
C24   H3    S    
O12   Zn1   S    
O7    Zn5   S    
C82   H57   S    
C44   C46   A    
C60   O30   A    
C50   C51   A    
O3    Zn6   S    
O16   Zn2   S    
C77   C79   S    
C70   H24   S    
C38   C39   A    
C31   H74   S    
C74   C75   S    
C4    O27   A    
C7    O25   S    
C7    C8    A    
C18   C28   S    
C24   C25   A    
C4    C6    S    
C10   H34   S    
C11   H45   S    
C34   C68   S    
C51   C58   A    
C86   C87   S    
C33   C62   S    
C85   H64   S    
C3    C5    A    
C25   C26   A    
C80   H51   S    
C48   H14   S    
O11   Zn7   S    
C70   H25   S    
C87   H68   S    
C51   C53   A    
C64   C66   S    
C2    C89   A    
C86   H66   S    
C52   O17   A    
C37   C38   A    
C3    C9    A    
C28   O23   A    
C40   O16   A    
C36   H7    S    
C67   H21   S    
C40   C42   S    
C83   C84   S    
C12   C23   S    
C15   C21   A    
C80   O22   S    
C73   H35   S    
C23   H18   S    
C72   H31   S    
C17   C18   A    
C34   C45   S    
C19   H23   S    
C84   C85   S    
O9    Zn8   S    
C39   C46   A    
C83   H58   S    
C16   O12   A    
C82   H55   S    
C81   H53   S    
C79   H48   S    
O15   Zn3   S    
C55   C57   A    
C43   C44   A    
C82   H54   S    
C22   C24   A    
C42   C43   A    
C2    C71   S    
C73   H36   S    
C77   H46   S    
O1    Zn3   S    
C40   O18   A    
C15   C17   A    
C54   C55   A    
C48   C49   A    
C23   C34   S    
C14   H67   S    
C71   H32   S    
C31   C32   A    
C52   O19   A    
C80   C81   S    
C59   O10   A    
O1    Zn2   S    
C6    C7    A    
C35   H6    S    
C70   H26   S    
C80   H50   S    
C62   O9    A    
C46   C63   S    
C87   H69   S    
C65   O7    A    
C34   H19   S    
C32   C33   A    
C19   C20   A    
C2    C3    A    
C86   H65   S    
C85   H63   S    
O28   Zn6   S    
O30   Zn5   S    
C76   H43   S    
C76   C77   S    
C44   H11   S    
O26   Zn2   S    
C57   C58   A    
C74   H37   S    
C73   O20   S    
C72   H30   S    
C69   H28   S    
C1    C30   S    
O4    Zn4   S    
O5    Zn8   S    
C88   H71   S    
O13   Zn1   S    
C16   O14   A    
C35   C41   A    
C16   C54   S    
O17   Zn4   S    
C10   C11   A    
O6    Zn7   S    
C83   H59   S    
C75   H40   S    
C71   C72   S    
C62   O2    A    
C20   C21   A    
C49   C50   A    
C4    O13   A    
C72   H29   S    
C45   C66   S    
O29   Zn8   S    
C14   C15   A    
O23   Zn4   S    
O19   Zn1   S    
O28   Zn7   S    
C89   H1    S    
C76   O21   S    
C28   O15   A    
C61   O31   A    
C52   C56   S    
O27   Zn3   S    
C1    O26   A    
C84   H61   S    
