data_mof_unit_29909.cif
_audit_creation_date              2012-12-11T15:34:59-0500
_audit_creation_method            fapswitch 2.2
_symmetry_space_group_name_H-M    P1
_symmetry_Int_Tables_number       1
_space_group_crystal_system       triclinic
_cell_length_a                    30.446075
_cell_length_b                    7.238223
_cell_length_c                    26.00055
_cell_angle_alpha                 90.576508
_cell_angle_beta                  112.1078
_cell_angle_gamma                 90.772458
_cell_volume                      5307.4168176

loop_
_atom_site_label
_atom_site_type_symbol
_atom_type_description
_atom_site_fract_x
_atom_site_fract_y
_atom_site_fract_z
_atom_type_partial_charge
O1    O     O_R   0.295360 0.592990 0.320420 -0.534603
O2    O     O_R   0.704640 0.407010 0.679580 -0.534617
O3    O     O_R   0.204640 0.092990 0.179580 -0.535121
O4    O     O_R   0.795360 0.907010 0.820420 -0.535119
O5    O     O_R   0.294060 0.265620 0.213230 -0.538371
O6    O     O_R   0.705940 0.734380 0.786770 -0.538355
O7    O     O_R   0.205940 0.765620 0.286770 -0.533721
O8    O     O_R   0.794060 0.234380 0.713230 -0.533740
C1    C     C_R   0.304327 0.432650 0.199783 0.723737
C2    C     C_R   0.695674 0.567349 0.800217 0.723726
C3    C     C_R   0.195640 0.932020 0.300080 0.724542
C4    C     C_R   0.804356 0.067981 0.699916 0.724565
O9    O     O_R   0.300850 0.263360 0.322080 -0.532957
O10   O     O_R   0.699150 0.736640 0.677920 -0.532959
O11   O     O_R   0.199150 0.763360 0.177920 -0.534571
O12   O     O_R   0.800850 0.236640 0.822080 -0.534576
O13   O     O_R   0.211480 0.091820 0.289210 -0.529934
O14   O     O_R   0.788520 0.908180 0.710790 -0.529923
O15   O     O_R   0.288520 0.591820 0.210790 -0.535599
O16   O     O_R   0.711480 0.408180 0.789210 -0.535587
C5    C     C_R   0.313298 0.433541 0.343139 0.684218
C6    C     C_R   0.686702 0.566459 0.656860 0.684201
C7    C     C_R   0.186515 0.929282 0.156512 0.674804
C8    C     C_R   0.813485 0.070717 0.843489 0.674805
O17   O     O_3   0.220670 0.426670 0.239090 -0.369496
O18   O     O_3   0.779330 0.573330 0.760910 -0.369502
O19   O     O_3   0.279330 0.926670 0.260910 -0.377301
O20   O     O_3   0.720670 0.073330 0.739090 -0.377289
V1    V     V_3+5 0.255440 0.152290 0.252020 1.403933
V2    V     V_3+5 0.744560 0.847710 0.747980 1.404001
V3    V     V_3+5 0.244560 0.652290 0.247980 1.410516
V4    V     V_3+5 0.755440 0.347710 0.752020 1.410558
C9    C     C_R   0.850817 0.077075 0.900173 -0.051456
C10   C     C_R   0.149180 0.922922 0.099830 -0.051450
C11   C     C_R   0.650197 0.551549 0.600415 -0.041138
C12   C     C_R   0.349802 0.448454 0.399585 -0.041136
C13   C     C_R   0.881281 0.240446 0.988658 -0.155005
C14   C     C_R   0.118711 0.759538 0.011347 -0.154997
C15   C     C_R   0.630302 0.516652 0.501808 -0.145780
C16   C     C_R   0.369691 0.483308 0.498192 -0.145775
C17   C     C_R   0.843692 0.190395 0.939971 -0.155725
C18   C     C_R   0.156303 0.809611 0.060029 -0.155729
C19   C     C_R   0.664133 0.529984 0.555552 -0.168309
C20   C     C_R   0.335862 0.469946 0.444447 -0.168327
C21   C     C_R   0.895846 0.001015 0.912250 -0.204975
C22   C     C_R   0.104149 0.998954 0.087760 -0.204958
C23   C     C_R   0.601759 0.549034 0.591325 -0.203192
C24   C     C_R   0.398240 0.451054 0.408677 -0.203183
C25   C     C_R   0.934187 0.039425 0.963809 0.059126
C26   C     C_R   0.065805 0.960531 0.036204 0.059123
C27   C     C_R   0.566554 0.515617 0.537456 0.065373
C28   C     C_R   0.433442 0.484478 0.462548 0.065365
C29   C     C_R   0.927457 0.175841 0.999653 0.078154
C30   C     C_R   0.072534 0.824112 0.000360 0.078146
C31   C     C_R   0.581275 0.516507 0.491704 0.082613
C32   C     C_R   0.418719 0.483547 0.508298 0.082616
C33   C     C_R   0.979862 0.956866 0.978798 -0.040015
C34   C     C_R   0.020129 0.043077 0.021220 -0.040011
C35   C     C_R   0.517165 0.489588 0.527536 -0.038444
C36   C     C_R   0.482831 0.510540 0.472471 -0.038446
C37   C     C_R   0.013327 0.209486 0.046818 0.147925
C38   C     C_R   0.986662 0.790446 0.953204 0.147929
C39   C     C_R   0.499193 0.558068 0.429512 0.164228
C40   C     C_R   0.500803 0.442077 0.570497 0.164244
C41   C     C_R   0.967200 0.256858 0.042589 0.126548
C42   C     C_R   0.032788 0.743060 0.957434 0.126559
C43   C     C_R   0.547116 0.530550 0.437202 0.131688
C44   C     C_R   0.452877 0.469564 0.562803 0.131692
H1    H     H_    0.190607 0.748722 0.068446 0.116036
H2    H     H_    0.809389 0.251304 0.931548 0.116041
H3    H     H_    0.298581 0.469876 0.438007 0.113356
H4    H     H_    0.701415 0.529983 0.561992 0.113349
C45   C     C_R   0.076402 0.127041 0.455908 0.585889
C46   C     C_R   0.923595 0.872878 0.544093 0.585911
C47   C     C_R   0.422890 0.620352 0.042832 0.583589
C48   C     C_R   0.577124 0.379677 0.957180 0.583613
N1    N     N_R   0.071837 0.976939 0.421641 -0.547453
N2    N     N_R   0.928160 0.022977 0.578360 -0.547451
N3    N     N_R   0.428304 0.476064 0.078284 -0.546479
N4    N     N_R   0.571714 0.523980 0.921733 -0.546485
C49   C     C_R   0.040176 0.836895 0.417752 0.569471
C50   C     C_R   0.959827 0.163008 0.582256 0.569461
C51   C     C_R   0.460360 0.340896 0.082880 0.566103
C52   C     C_R   0.539662 0.659158 0.917142 0.566090
C53   C     C_R   0.011211 0.843727 0.449000 -0.072479
C54   C     C_R   0.988793 0.156170 0.551011 -0.072493
C55   C     C_R   0.489081 0.347552 0.051422 -0.067846
C56   C     C_R   0.510938 0.652493 0.948597 -0.067858
C57   C     C_R   0.014741 0.996727 0.484307 -0.049212
C58   C     C_R   0.985262 0.003174 0.515702 -0.049210
C59   C     C_R   0.485232 0.496379 0.015609 -0.050676
C60   C     C_R   0.514785 0.503661 0.984407 -0.050676
C61   C     C_R   0.047710 0.142548 0.488214 -0.042427
C62   C     C_R   0.952293 0.857355 0.511794 -0.042420
C63   C     C_R   0.451894 0.637262 0.011027 -0.041725
C64   C     C_R   0.548121 0.362771 0.988986 -0.041731
C65   C     C_R   0.978976 0.699562 0.445403 -0.142412
C66   C     C_R   0.021033 0.300323 0.554614 -0.142421
C67   C     C_R   0.521415 0.207444 0.055364 -0.142804
C68   C     C_R   0.478601 0.792595 0.944652 -0.142808
C69   C     C_R   0.949542 0.703353 0.475899 0.139430
C70   C     C_R   0.050467 0.296533 0.524118 0.139443
C71   C     C_R   0.550822 0.211794 0.024881 0.140006
C72   C     C_R   0.449191 0.788233 0.975130 0.140008
O21   O     O_2   0.108633 0.259520 0.458255 -0.522882
O22   O     O_2   0.891355 0.740422 0.541735 -0.522884
O23   O     O_2   0.389478 0.745641 0.038830 -0.526083
O24   O     O_2   0.610530 0.254370 0.961175 -0.526063
O25   O     O_2   0.036749 0.691000 0.383619 -0.524903
O26   O     O_2   0.963255 0.308895 0.616392 -0.524882
O27   O     O_2   0.464479 0.200264 0.118019 -0.532476
O28   O     O_2   0.535548 0.799805 0.882010 -0.532462
C73   C     C_R   0.912156 0.955729 0.663775 0.169444
C74   C     C_R   0.087865 0.044438 0.336255 0.169396
C75   C     C_R   0.592135 0.419482 0.841839 0.170201
C76   C     C_R   0.407863 0.580602 0.158161 0.170201
C77   C     C_R   0.881925 0.970582 0.694145 0.078946
C78   C     C_R   0.118095 0.029612 0.305883 0.078942
C79   C     C_R   0.623405 0.428226 0.812612 0.066079
C80   C     C_R   0.376591 0.571827 0.187386 0.066098
C81   C     C_R   0.837421 0.059322 0.670022 -0.080798
C82   C     C_R   0.162574 0.940675 0.329974 -0.080887
C83   C     C_R   0.662393 0.556900 0.830126 -0.103414
C84   C     C_R   0.337616 0.443099 0.169879 -0.103469
C85   C     C_R   0.824508 0.136987 0.616560 0.081709
C86   C     C_R   0.175457 0.862758 0.383400 0.081675
C87   C     C_R   0.669646 0.674210 0.876765 0.070373
C88   C     C_R   0.330383 0.325725 0.123258 0.070402
C89   C     C_R   0.855445 0.125545 0.588196 -0.134639
C90   C     C_R   0.144517 0.874152 0.411761 -0.134642
C91   C     C_R   0.639041 0.660621 0.905489 -0.128338
C92   C     C_R   0.360993 0.339335 0.094539 -0.128317
C93   C     C_R   0.898537 0.034679 0.610623 0.320035
C94   C     C_R   0.101456 0.965248 0.389372 0.319992
C95   C     C_R   0.600925 0.534910 0.889022 0.313619
C96   C     C_R   0.399091 0.465124 0.110992 0.313583
C97   C     C_3   0.960544 0.406136 0.080329 -0.787585
H5    H     H_    0.936571 0.353875 0.100426 0.205578
H6    H     H_    0.993984 0.447749 0.114693 0.223104
H7    H     H_    0.945260 0.530669 0.055865 0.212697
C98   C     C_3   0.039444 0.593735 0.919707 -0.787576
H8    H     H_    0.063405 0.645985 0.899591 0.205577
H9    H     H_    0.054743 0.469247 0.944184 0.212691
H10   H     H_    0.006003 0.552046 0.885356 0.223100
C99   C     C_3   0.562237 0.531825 0.387808 -0.787980
H11   H     H_    0.582825 0.406159 0.388058 0.205509
H12   H     H_    0.531952 0.528869 0.347329 0.223257
H13   H     H_    0.584287 0.657098 0.389718 0.210115
C100  C     C_3   0.437756 0.468309 0.612197 -0.787996
H14   H     H_    0.417141 0.593916 0.611924 0.205506
H15   H     H_    0.415733 0.342975 0.610309 0.210122
H16   H     H_    0.468042 0.471408 0.652675 0.223256
C101  C     C_3   0.777683 0.229409 0.587059 -0.754372
H17   H     H_    0.752799 0.217270 0.608860 0.205176
H18   H     H_    0.784124 0.378314 0.582106 0.215302
H19   H     H_    0.759703 0.165034 0.545246 0.204725
C102  C     C_3   0.222252 0.770084 0.412863 -0.754169
H20   H     H_    0.247185 0.782667 0.391139 0.205140
H21   H     H_    0.240200 0.833920 0.454759 0.204654
H22   H     H_    0.215773 0.621077 0.417624 0.215317
C103  C     C_3   0.710816 0.810339 0.898108 -0.714240
H23   H     H_    0.744556 0.739423 0.904528 0.191502
H24   H     H_    0.705750 0.923852 0.868140 0.216962
H25   H     H_    0.714089 0.874089 0.938461 0.203436
C104  C     C_3   0.289234 0.189504 0.101927 -0.714332
H26   H     H_    0.255478 0.260431 0.095411 0.191519
H27   H     H_    0.286025 0.125433 0.061635 0.203490
H28   H     H_    0.294271 0.076204 0.131952 0.216994
H29   H     H_    0.845533 0.185154 0.547370 0.143774
H30   H     H_    0.154406 0.814342 0.452558 0.143807
H31   H     H_    0.644903 0.747918 0.941676 0.146483
H32   H     H_    0.355143 0.252001 0.058362 0.146496
H33   H     H_    0.098461 0.075421 0.120472 0.127847
H34   H     H_    0.901536 0.924535 0.879541 0.127870
H35   H     H_    0.407814 0.423773 0.373416 0.119767
H36   H     H_    0.592189 0.576368 0.626586 0.119776
H37   H     H_    0.873971 0.339186 0.015737 0.131502
H38   H     H_    0.126021 0.660808 0.984266 0.131498
H39   H     H_    0.643277 0.511322 0.468436 0.131163
H40   H     H_    0.356713 0.488581 0.531563 0.131165
C105  C     C_3   0.052455 0.355952 0.068595 -0.769006
H41   H     H_    0.038219 0.493983 0.053303 0.225140
H42   H     H_    0.067285 0.360946 0.114667 0.202864
H43   H     H_    0.081237 0.333902 0.052918 0.214829
C106  C     C_3   0.947531 0.643992 0.931429 -0.769006
H44   H     H_    0.961763 0.505963 0.946728 0.225137
H45   H     H_    0.918747 0.666070 0.947102 0.214830
H46   H     H_    0.932703 0.638983 0.885357 0.202864
C107  C     C_3   0.469558 0.672476 0.380515 -0.797555
H47   H     H_    0.491289 0.788683 0.374532 0.222373
H48   H     H_    0.456581 0.585883 0.342171 0.202593
H49   H     H_    0.439435 0.738502 0.387219 0.218725
C108  C     C_3   0.530440 0.327709 0.619504 -0.797588
H50   H     H_    0.508711 0.211522 0.625500 0.222376
H51   H     H_    0.560560 0.261653 0.612801 0.218726
H52   H     H_    0.543422 0.414341 0.657840 0.202592
H53   H     H_    0.976648 0.581678 0.418404 0.168097
H54   H     H_    0.023364 0.418198 0.581618 0.168099
H55   H     H_    0.523780 0.092235 0.082533 0.167244
H56   H     H_    0.476237 0.907803 0.917482 0.167247
C109  C     C_3   0.915942 0.540640 0.468359 -0.678207
H57   H     H_    0.923085 0.473074 0.508702 0.246855
H58   H     H_    0.878701 0.587192 0.450438 0.229203
H59   H     H_    0.920005 0.433362 0.439686 0.176894
C110  C     C_3   0.084078 0.459219 0.531671 -0.678216
H60   H     H_    0.076930 0.526866 0.491339 0.246823
H61   H     H_    0.080034 0.566441 0.560371 0.176895
H62   H     H_    0.121315 0.412618 0.549569 0.229207
C111  C     C_3   0.583986 0.052125 0.032003 -0.679657
H63   H     H_    0.576933 0.982863 0.991365 0.242606
H64   H     H_    0.621368 0.102276 0.050565 0.231294
H65   H     H_    0.579299 0.945219 0.059972 0.177634
C112  C     C_3   0.416020 0.947883 0.968000 -0.679668
H66   H     H_    0.423072 0.017167 0.008634 0.242579
H67   H     H_    0.420703 0.054777 0.940024 0.177636
H68   H     H_    0.378641 0.897708 0.949439 0.231303
C113  C     C_3   0.958797 0.856460 0.688362 -0.680431
H69   H     H_    0.978474 0.850449 0.660197 0.210463
H70   H     H_    0.982216 0.928423 0.727048 0.196320
H71   H     H_    0.952248 0.711843 0.697800 0.221506
C114  C     C_3   0.041251 0.143912 0.311703 -0.680330
H72   H     H_    0.017817 0.072151 0.272987 0.196253
H73   H     H_    0.021569 0.149851 0.339865 0.210472
H74   H     H_    0.047840 0.288554 0.302328 0.221596
C115  C     C_3   0.549596 0.288451 0.822745 -0.675632
H75   H     H_    0.528000 0.295753 0.848723 0.211252
H76   H     H_    0.525566 0.323220 0.779996 0.185791
H77   H     H_    0.561566 0.143851 0.823635 0.236690
C116  C     C_3   0.450385 0.711712 0.177246 -0.675570
H78   H     H_    0.474420 0.676983 0.219997 0.185795
H79   H     H_    0.471979 0.704469 0.151265 0.211274
H80   H     H_    0.438398 0.856291 0.176351 0.236666
C117  C     C_3   0.898325 0.894216 0.752452 -0.757280
H81   H     H_    0.874454 0.925498 0.774488 0.188510
H82   H     H_    0.901315 0.741792 0.750827 0.216514
H83   H     H_    0.933358 0.955851 0.778402 0.205571
C118  C     C_3   0.101714 0.106199 0.247603 -0.757253
H84   H     H_    0.125570 0.074883 0.225550 0.188566
H85   H     H_    0.066663 0.044758 0.221635 0.205536
H86   H     H_    0.098773 0.258633 0.249283 0.216534
C119  C     C_3   0.615840 0.300978 0.763055 -0.730152
H87   H     H_    0.619675 0.380040 0.728583 0.184145
H88   H     H_    0.642389 0.189777 0.775366 0.227638
H89   H     H_    0.580436 0.233139 0.745874 0.204359
C120  C     C_3   0.384147 0.699070 0.236940 -0.730186
H90   H     H_    0.380358 0.619941 0.271426 0.184126
H91   H     H_    0.419525 0.767123 0.254088 0.204368
H92   H     H_    0.357559 0.810123 0.224643 0.227672

loop_
_geom_bond_atom_site_label_1
_geom_bond_atom_site_label_2
_ccdc_geom_bond_type
O17   V3    S    
C67   C71   A    
O1    C5    A    
C104  H26   S    
C14   H38   S    
C55   C59   A    
C76   C116  S    
O19   V1    S    
C9    C21   A    
C109  H57   S    
C46   C62   A    
O3    C7    A    
C10   C18   A    
C45   C61   A    
N4    C52   A    
C11   C23   A    
C71   C111  S    
C99   H11   S    
C106  H44   S    
C76   C96   A    
C47   C63   A    
C33   C38   A    
C5    C12   S    
C90   C94   A    
C112  H66   S    
C113  H71   S    
O7    C3    A    
C6    C11   S    
C97   H6    S    
C91   H31   S    
O5    C1    A    
C52   O28   S    
N4    C95   S    
C75   C95   A    
C36   C39   A    
C50   O26   S    
C89   H29   S    
C72   C112  S    
C14   C18   A    
C114  H74   S    
C91   C95   A    
C98   H9    S    
O4    C8    A    
C106  H45   S    
C86   C90   A    
O1    V3    S    
C111  H65   S    
O13   V1    S    
C20   H3    S    
O2    V4    S    
C119  H87   S    
C78   C82   A    
C21   H34   S    
O3    V1    S    
C77   C81   A    
C44   C100  S    
C28   C36   A    
C103  H24   S    
C16   H40   S    
C45   O21   S    
C1    O15   A    
C68   C72   A    
C15   C31   A    
C4    C81   S    
C56   C60   A    
C62   C69   A    
C2    O16   A    
C16   C32   A    
O12   C8    A    
C43   C99   S    
C10   C22   A    
C77   C117  S    
C101  H18   S    
C11   C19   A    
C117  H81   S    
C16   C20   A    
O5    V1    S    
C23   H36   S    
C108  H50   S    
C92   C96   A    
C84   C88   A    
C24   H35   S    
C13   C29   A    
C7    C10   S    
C34   C37   A    
O11   C7    A    
C80   C120  S    
O15   V3    S    
C35   C36   A    
C48   O24   S    
C73   C93   A    
C120  H90   S    
C102  H20   S    
C109  H58   S    
C100  H15   S    
C104  H27   S    
O10   V2    S    
C88   C92   A    
C73   C113  S    
C99   H12   S    
C85   C101  S    
C58   C62   A    
C55   C67   A    
C112  H67   S    
C60   C64   A    
C115  H76   S    
C97   H7    S    
C39   C43   A    
O7    V3    S    
C66   H54   S    
C28   C32   A    
C26   C34   A    
C65   H53   S    
C47   O23   S    
C53   C65   A    
C111  H63   S    
C2    C83   S    
C54   C58   A    
C105  H42   S    
C59   C60   A    
C42   C98   S    
C38   C42   A    
O18   V4    S    
C106  H46   S    
C15   C19   A    
C108  H51   S    
C113  H69   S    
C105  H41   S    
C18   H1    S    
O4    V2    S    
C76   C80   A    
C15   H39   S    
C119  H88   S    
O8    V4    S    
C82   C86   A    
C107  H49   S    
C99   H13   S    
C81   C85   A    
C116  H78   S    
N3    C96   S    
C66   C70   A    
C46   O22   S    
C114  H72   S    
C117  H82   S    
C117  H83   S    
N2    C50   A    
C83   C87   A    
C14   C30   A    
C21   C25   A    
O8    C4    A    
C108  H52   S    
C65   C69   A    
C40   C108  S    
C115  H75   S    
C74   C94   A    
C22   H33   S    
O9    C5    A    
C26   C30   A    
C101  H19   S    
O11   V3    S    
C79   C119  S    
C51   C55   A    
C74   C78   A    
C38   C106  S    
C73   C77   A    
C23   C27   A    
C100  H16   S    
C78   C118  S    
O6    V2    S    
C49   O25   S    
C89   C93   A    
C104  H28   S    
C75   C79   A    
C120  H91   S    
C88   C104  S    
C109  H59   S    
C51   O27   S    
C98   H10   S    
C3    C82   S    
O12   V4    S    
N1    C94   S    
C102  H21   S    
C115  H77   S    
C56   C68   A    
C40   C44   A    
C68   H56   S    
C103  H25   S    
C29   C41   A    
C63   C72   A    
O16   V4    S    
C86   C102  S    
O9    V1    S    
C19   H4    S    
C110  H60   S    
C118  H86   S    
C3    O13   A    
C53   C57   A    
C105  H43   S    
C70   C110  S    
C48   N4    A    
C39   C107  S    
C35   C40   A    
C61   C70   A    
O6    C2    A    
C25   C33   A    
C31   C43   A    
C75   C115  S    
C112  H68   S    
C30   C42   A    
C79   C83   A    
C102  H22   S    
C113  H70   S    
C13   H37   S    
C97   H5    S    
C22   C26   A    
C37   C105  S    
C8    C9    S    
C114  H73   S    
C119  H89   S    
C9    C17   A    
O10   C6    A    
C118  H85   S    
C57   C58   A    
C41   C97   S    
C13   C17   A    
C116  H79   S    
C32   C44   A    
C100  H14   S    
C48   C64   A    
C50   C54   A    
C33   C34   A    
C64   C71   A    
C52   C56   A    
C103  H23   S    
C90   H30   S    
C67   H55   S    
C25   C29   A    
C118  H84   S    
O20   V2    S    
O2    C6    A    
C111  H64   S    
C12   C24   A    
C27   C31   A    
C1    C84   S    
C74   C114  S    
C57   C61   A    
C107  H47   S    
C54   C66   A    
N2    C93   S    
C87   C91   A    
C12   C20   A    
O14   V2    S    
C59   C63   A    
C116  H80   S    
N3    C51   A    
C85   C89   A    
C24   C28   A    
C27   C35   A    
C87   C103  S    
N1    C49   A    
C46   N2    A    
C120  H92   S    
C4    O14   A    
C45   N1    A    
C69   C109  S    
C110  H62   S    
C92   H32   S    
C107  H48   S    
C101  H17   S    
C98   H8    S    
C110  H61   S    
C47   N3    A    
C49   C53   A    
C80   C84   A    
C17   H2    S    
C37   C41   A    
