data_mof_unit_27903.cif
_audit_creation_date              2012-12-10T17:21:39-0500
_audit_creation_method            fapswitch 2.2
_symmetry_space_group_name_H-M    P1
_symmetry_Int_Tables_number       1
_space_group_crystal_system       triclinic
_cell_length_a                    10.726002
_cell_length_b                    10.76799
_cell_length_c                    9.608376
_cell_angle_alpha                 89.995427
_cell_angle_beta                  90.041035
_cell_angle_gamma                 92.721238
_cell_volume                      1108.49154407

loop_
_atom_site_label
_atom_site_type_symbol
_atom_type_description
_atom_site_fract_x
_atom_site_fract_y
_atom_site_fract_z
_atom_type_partial_charge
C1    C     C_R   0.495965 0.262614 0.500029 0.795810
C2    C     C_3   0.878190 0.501790 0.501030 0.161236
C3    C     C_3   0.933467 0.613224 0.415041 -0.400730
C4    C     C_3   0.922152 0.379325 0.436749 -0.366232
C5    C     C_R   0.291698 0.119324 0.635959 -0.300318
C6    C     C_R   0.195056 0.049837 0.701906 0.072602
C7    C     C_R   0.196781 0.919995 0.702108 -0.125797
C8    C     C_R   0.293383 0.860319 0.637117 -0.244982
C9    C     C_R   0.391696 0.929113 0.570661 0.112501
C10   C     C_R   0.391058 0.060283 0.570347 0.104881
C11   C     C_R   0.487942 0.128404 0.499930 -0.090269
C12   C     C_R   0.260035 0.500706 0.500175 0.732170
C13   C     C_R   0.579496 0.068021 0.426484 -0.191274
C14   C     C_R   0.579801 0.939914 0.426441 -0.203489
C15   C     C_R   0.488694 0.870532 0.500085 -0.082654
C16   C     C_R   0.666161 0.665366 0.143974 -0.158153
C17   C     C_R   0.747762 0.745904 0.071914 -0.209329
C18   C     C_R   0.747836 0.745890 0.928472 -0.194652
C19   C     C_R   0.666223 0.665401 0.856227 -0.155702
C20   C     C_R   0.581700 0.581272 0.925287 0.213885
C21   C     C_R   0.581675 0.581234 0.074789 0.217408
C22   C     C_R   0.422044 0.422868 0.073790 -0.059149
C23   C     C_R   0.496909 0.737106 0.500010 0.767907
C24   C     C_R   0.422060 0.422905 0.925945 -0.057343
C25   C     C_R   0.740057 0.501154 0.500248 0.735664
C26   C     C_3   0.072178 0.513548 0.651975 -0.369026
C27   C     C_3   0.929454 0.513183 0.652083 -0.363576
C28   C     C_3   0.077369 0.613173 0.414980 -0.362542
C29   C     C_3   0.066022 0.379221 0.436791 -0.381844
C30   C     C_3   0.122001 0.501673 0.500932 0.152941
Cu1   Cu    Cu3+1 0.499990 0.499990 0.640660 0.924569
Cu2   Cu    Cu3+1 0.500010 0.500010 0.359340 0.929014
H1    H     H_    0.110394 0.601313 0.700287 0.164537
H2    H     H_    0.887185 0.368848 0.328077 0.175623
H3    H     H_    0.111226 0.607615 0.305786 0.179517
H4    H     H_    0.899267 0.607396 0.305802 0.176349
H5    H     H_    0.652654 0.120606 0.371304 0.148270
H6    H     H_    0.286862 0.219430 0.634200 0.125770
H7    H     H_    0.122580 0.864166 0.751348 0.162252
H8    H     H_    0.288529 0.759934 0.637456 0.153229
H9    H     H_    0.653124 0.894628 0.371168 0.134716
H10   H     H_    0.358091 0.359606 0.128830 0.136978
H11   H     H_    0.102755 0.435201 0.717148 0.161327
H12   H     H_    0.673669 0.673248 0.253680 0.190892
H13   H     H_    0.811403 0.808873 0.128145 0.155499
H14   H     H_    0.811591 0.808818 0.872412 0.177869
H15   H     H_    0.673775 0.673300 0.746495 0.195724
H16   H     H_    0.358109 0.359669 0.870737 0.129845
H17   H     H_    0.891991 0.434119 0.716769 0.184497
H18   H     H_    0.899492 0.600675 0.700773 0.162488
H19   H     H_    0.116377 0.702115 0.459534 0.155092
H20   H     H_    0.902739 0.702187 0.459532 0.146555
H21   H     H_    0.099887 0.368539 0.328165 0.171897
H22   H     H_    0.096789 0.298096 0.497393 0.145205
H23   H     H_    0.883455 0.298197 0.497285 0.157357
N1    N     N_R   0.501200 0.501210 0.147910 -0.198766
N2    N     N_R   0.501250 0.501290 0.852040 -0.197804
O1    O     O_R   0.499990 0.319640 0.618810 -0.569944
O2    O     O_R   0.500000 0.319660 0.381240 -0.573424
O3    O     O_R   0.317680 0.499970 0.618790 -0.598240
O4    O     O_R   0.317700 0.499990 0.381210 -0.581174
O5    O     O_R   0.500000 0.680340 0.618760 -0.595506
O6    O     O_R   0.500010 0.680360 0.381190 -0.588341
O7    O     O_R   0.682300 0.500010 0.618790 -0.599806
O8    O     O_R   0.682320 0.500030 0.381210 -0.601107
C31   C     C_2   0.092151 0.114390 0.768694 0.322439
H24   H     H_    0.092450 0.215102 0.767858 0.049009
O9    O     O_2   0.005890 0.056172 0.825392 -0.562353

loop_
_geom_bond_atom_site_label_1
_geom_bond_atom_site_label_2
_ccdc_geom_bond_type
Cu1   O3    S    
C26   H11   S    
C21   N1    A    
C31   O9    D    
C3    H20   S    
C16   C21   A    
C26   C30   S    
C29   C30   S    
C9    C10   A    
C16   H12   S    
C26   H1    S    
C2    C4    S    
C4    C29   S    
C1    C11   S    
C27   H18   S    
C22   N1    A    
Cu1   N2    S    
C19   C20   A    
C15   C23   S    
C17   C18   A    
C9    C15   A    
C5    C10   A    
C22   H10   S    
C1    O1    A    
C12   O4    A    
C11   C13   A    
Cu1   O5    S    
C26   C27   S    
C2    C27   S    
C29   H21   S    
C3    H4    S    
C14   H9    S    
C18   H14   S    
Cu1   O1    S    
C28   C30   S    
C3    C28   S    
C17   H13   S    
Cu2   O4    S    
C5    H6    S    
C2    C25   S    
C22   C24   A    
C1    O2    A    
C4    H23   S    
C5    C6    A    
C28   H19   S    
C4    H2    S    
C23   O6    A    
C7    C8    A    
C29   H22   S    
Cu2   O8    S    
C24   H16   S    
C16   C17   A    
C6    C31   S    
C25   O8    A    
C20   C21   A    
Cu2   O6    S    
Cu1   Cu2   S    
C18   C19   A    
C10   C11   A    
C19   H15   S    
C31   H24   S    
C7    H7    S    
C14   C15   A    
C24   N2    A    
C2    C3    S    
C8    H8    S    
Cu2   O2    S    
C12   C30   S    
C20   N2    A    
C13   C14   A    
C13   H5    S    
Cu1   O7    S    
Cu2   N1    S    
C23   O5    A    
C6    C7    A    
C27   H17   S    
C28   H3    S    
C8    C9    A    
C25   O7    A    
C12   O3    A    
