data_mof_unit_21801.cif
_audit_creation_date              2012-12-11T14:08:40-0500
_audit_creation_method            fapswitch 2.2
_symmetry_space_group_name_H-M    P1
_symmetry_Int_Tables_number       1
_space_group_crystal_system       triclinic
_cell_length_a                    28.215844
_cell_length_b                    7.189379
_cell_length_c                    17.194729
_cell_angle_alpha                 90.002079
_cell_angle_beta                  102.030449
_cell_angle_gamma                 90.000147
_cell_volume                      3411.41874443

loop_
_atom_site_label
_atom_site_type_symbol
_atom_type_description
_atom_site_fract_x
_atom_site_fract_y
_atom_site_fract_z
_atom_type_partial_charge
O1    O     O_R   0.000700 0.436510 0.857920 -0.532873
O2    O     O_R   0.999300 0.563490 0.142080 -0.532881
O3    O     O_R   0.999300 0.936510 0.642080 -0.532878
O4    O     O_R   0.000700 0.063490 0.357920 -0.532886
O5    O     O_R   0.930080 0.766380 0.721890 -0.542361
O6    O     O_R   0.069920 0.233620 0.278110 -0.542295
O7    O     O_R   0.069920 0.266380 0.778110 -0.542363
O8    O     O_R   0.930080 0.733620 0.221890 -0.542298
C1    C     C_R   0.910523 0.597512 0.709424 0.696497
C2    C     C_R   0.089428 0.402411 0.291631 0.696431
C3    C     C_R   0.089477 0.097514 0.790573 0.696499
C4    C     C_R   0.910572 0.902409 0.208372 0.696424
O9    O     O_R   0.996180 0.766230 0.862310 -0.543376
O10   O     O_R   0.003820 0.233770 0.137690 -0.543374
O11   O     O_R   0.003820 0.266230 0.637690 -0.543379
O12   O     O_R   0.996180 0.733770 0.362310 -0.543378
O13   O     O_R   0.065870 0.936460 0.783500 -0.539473
O14   O     O_R   0.934130 0.063540 0.216500 -0.539509
O15   O     O_R   0.934130 0.436460 0.716500 -0.539468
O16   O     O_R   0.065870 0.563540 0.283500 -0.539508
C5    C     C_R   0.998484 0.596449 0.894496 0.761094
C6    C     C_R   0.001510 0.403550 0.105502 0.761462
C7    C     C_R   0.001515 0.096446 0.605504 0.761092
C8    C     C_R   0.998490 0.903553 0.394497 0.761462
O17   O     O_3   0.022790 0.603020 0.723980 -0.377909
O18   O     O_3   0.977210 0.396980 0.276020 -0.377916
O19   O     O_3   0.977210 0.103020 0.776020 -0.377900
O20   O     O_3   0.022790 0.896980 0.223980 -0.377908
V1    V     V_3+5 0.995770 0.877900 0.754830 1.411256
V2    V     V_3+5 0.004230 0.122100 0.245170 1.410925
V3    V     V_3+5 0.004230 0.377900 0.745170 1.411252
V4    V     V_3+5 0.995770 0.622100 0.254830 1.410915
C9    C     C_2   0.001712 0.082684 0.519574 -0.330324
C10   C     C_2   0.998302 0.917314 0.480431 -0.330658
C11   C     C_2   0.998288 0.582685 0.980428 -0.330308
C12   C     C_2   0.001697 0.417312 0.019567 -0.330643
H1    H     H_    0.004502 0.211618 0.487907 0.153536
H2    H     H_    0.995513 0.788379 0.512098 0.153623
H3    H     H_    0.995498 0.711620 0.012098 0.153535
H4    H     H_    0.004486 0.288377 0.987896 0.153622
C13   C     C_R   0.681951 0.874475 0.025462 0.590946
C14   C     C_R   0.319425 0.128998 0.958404 0.589338
C15   C     C_R   0.318061 0.374180 0.474504 0.590946
C16   C     C_R   0.680558 0.629444 0.541691 0.589340
O21   O     O_2   0.709478 0.786651 0.981418 -0.516102
O22   O     O_2   0.292228 0.215740 0.003318 -0.518056
O23   O     O_2   0.290551 0.285979 0.518465 -0.516116
O24   O     O_2   0.707739 0.716593 0.496862 -0.518065
N1    N     N_R   0.703296 0.949519 0.097603 -0.555495
N2    N     N_R   0.297650 0.053601 0.886612 -0.559739
N3    N     N_R   0.296702 0.449583 0.402443 -0.555469
N4    N     N_R   0.702350 0.553635 0.613392 -0.559724
C17   C     C_R   0.676188 0.045117 0.141852 0.579199
C18   C     C_R   0.324466 0.959325 0.841439 0.585144
C19   C     C_R   0.323796 0.545551 0.358285 0.579231
C20   C     C_R   0.675549 0.458990 0.658480 0.585193
C21   C     C_R   0.777767 0.762829 0.143087 -0.080987
C22   C     C_R   0.222545 0.238304 0.845113 -0.073783
C23   C     C_R   0.222240 0.262886 0.356844 -0.080964
C24   C     C_R   0.777448 0.738290 0.655104 -0.073768
C25   C     C_R   0.828093 0.751155 0.170454 -0.193611
C26   C     C_R   0.171970 0.249316 0.822272 -0.194276
C27   C     C_R   0.171914 0.251196 0.329467 -0.193628
C28   C     C_R   0.828023 0.749297 0.677945 -0.194287
C29   C     C_R   0.833897 0.086574 0.163124 -0.193582
C30   C     C_R   0.166802 0.913710 0.829570 -0.193093
C31   C     C_R   0.166090 0.586574 0.337006 -0.193599
C32   C     C_R   0.833206 0.413729 0.670188 -0.193071
C33   C     C_R   0.783731 0.097781 0.135711 -0.083665
C34   C     C_R   0.217290 0.903145 0.852466 -0.087132
C35   C     C_R   0.216255 0.597793 0.364436 -0.083651
C36   C     C_R   0.782718 0.403170 0.647292 -0.087161
C37   C     C_R   0.755202 0.936311 0.125535 0.372151
C38   C     C_R   0.245596 0.065155 0.860542 0.372974
C39   C     C_R   0.244795 0.436355 0.374508 0.372054
C40   C     C_R   0.754404 0.565164 0.639448 0.372956
C41   C     C_R   0.602927 0.982562 0.042213 -0.041925
C42   C     C_R   0.398239 0.022789 0.939835 -0.040667
C43   C     C_R   0.397070 0.482651 0.457843 -0.041988
C44   C     C_R   0.601758 0.522884 0.560188 -0.040510
C45   C     C_R   0.631526 0.891627 0.996142 -0.077411
C46   C     C_R   0.369896 0.113021 0.986614 -0.030300
C47   C     C_R   0.368485 0.391350 0.503834 -0.077394
C48   C     C_R   0.630087 0.613475 0.513482 -0.030180
C49   C     C_R   0.610027 0.833386 0.919342 -0.104490
C50   C     C_R   0.391677 0.171107 0.063248 -0.199827
C51   C     C_R   0.389996 0.332764 0.580578 -0.104501
C52   C     C_R   0.608292 0.671924 0.436906 -0.199946
C53   C     C_R   0.625817 0.065036 0.114632 -0.037628
C54   C     C_R   0.375024 0.940863 0.867523 -0.015135
C55   C     C_R   0.374166 0.565476 0.385511 -0.037651
C56   C     C_R   0.624988 0.440586 0.632410 -0.015140
C57   C     C_R   0.856899 0.913095 0.180869 -0.052593
C58   C     C_R   0.143336 0.087030 0.814361 -0.052827
C59   C     C_R   0.143099 0.413109 0.319148 -0.052600
C60   C     C_R   0.856664 0.587028 0.685630 -0.052831
H5    H     H_    0.854604 0.214501 0.169935 0.135534
H6    H     H_    0.146225 0.785550 0.824269 0.135676
H7    H     H_    0.145376 0.714478 0.330275 0.135544
H8    H     H_    0.853788 0.285582 0.675301 0.135662
H9    H     H_    0.766978 0.232683 0.122026 0.127324
H10   H     H_    0.234431 0.768515 0.864769 0.127033
H11   H     H_    0.232997 0.732685 0.378209 0.127451
H12   H     H_    0.765581 0.268564 0.634810 0.127130
H13   H     H_    0.632796 0.779819 0.880899 0.208067
H14   H     H_    0.369301 0.224388 0.102437 0.168665
H15   H     H_    0.367237 0.278906 0.618979 0.208094
H16   H     H_    0.630658 0.725489 0.397756 0.168664
C61   C     C_R   0.477598 0.920624 0.917310 0.046621
C62   C     C_R   0.523556 0.084963 0.063839 0.051682
C63   C     C_R   0.522411 0.420410 0.582655 0.046588
C64   C     C_R   0.476427 0.585404 0.436286 0.051567
C65   C     C_R   0.471894 0.081620 0.042118 0.025437
C66   C     C_R   0.529414 0.922494 0.939405 -0.049385
C67   C     C_R   0.528090 0.582079 0.457985 0.025454
C68   C     C_R   0.470595 0.422257 0.560578 -0.049360
C69   C     C_R   0.449541 0.010642 0.966123 0.067146
C70   C     C_R   0.551681 0.994511 0.015350 0.057914
C71   C     C_R   0.550456 0.510755 0.533910 0.067304
C72   C     C_R   0.448315 0.494611 0.484702 0.057885
C73   C     C_R   0.452307 0.818441 0.851262 -0.167881
C74   C     C_R   0.548515 0.188800 0.129517 -0.103870
C75   C     C_R   0.547713 0.317940 0.648603 -0.168143
C76   C     C_R   0.451456 0.689544 0.370716 -0.103825
C77   C     C_R   0.402377 0.834147 0.825070 -0.074095
C78   C     C_R   0.598340 0.173197 0.156298 -0.136804
C79   C     C_R   0.597646 0.333584 0.674780 -0.074527
C80   C     C_R   0.401630 0.673968 0.343942 -0.136540
O25   O     O_2   0.302386 0.884208 0.771312 -0.514393
O26   O     O_2   0.697811 0.119942 0.212313 -0.520302
O27   O     O_2   0.697646 0.383445 0.728510 -0.514431
O28   O     O_2   0.302161 0.620732 0.287907 -0.520333
C81   C     C_R   0.560517 0.862712 0.888062 -0.018588
C82   C     C_R   0.440983 0.140358 0.093875 -0.031558
C83   C     C_R   0.439504 0.362116 0.611879 -0.018595
C84   C     C_R   0.558988 0.641168 0.406264 -0.032180
H17   H     H_    0.155397 0.385172 0.811040 0.134346
H18   H     H_    0.844346 0.615175 0.183257 0.134260
H19   H     H_    0.844589 0.885136 0.689365 0.134412
H20   H     H_    0.155669 0.115227 0.316574 0.134302
H21   H     H_    0.243852 0.364750 0.851032 0.130931
H22   H     H_    0.756273 0.636801 0.135797 0.129973
H23   H     H_    0.756134 0.864724 0.649369 0.131069
H24   H     H_    0.243741 0.136881 0.364052 0.130109
H25   H     H_    0.385159 0.758092 0.772321 0.167275
H26   H     H_    0.615344 0.249692 0.209047 0.175054
H27   H     H_    0.614874 0.257267 0.727449 0.167425
H28   H     H_    0.384615 0.750725 0.291274 0.175019
H29   H     H_    0.470237 0.719384 0.820195 0.121455
H30   H     H_    0.530179 0.287178 0.160304 0.169986
H31   H     H_    0.529789 0.218700 0.679590 0.121584
H32   H     H_    0.469786 0.788136 0.340018 0.170035
C85   C     C_2   0.545190 0.862431 0.799877 0.316467
H33   H     H_    0.515137 0.948653 0.770768 0.084490
O29   O     O_2   0.566469 0.768896 0.758650 -0.530062
C86   C     C_2   0.455231 0.139571 0.181977 0.376501
H34   H     H_    0.437985 0.234714 0.216578 0.089080
O30   O     O_2   0.483942 0.025015 0.216814 -0.533812
C87   C     C_2   0.454836 0.361494 0.700066 0.316504
H35   H     H_    0.484880 0.447690 0.729240 0.084305
O31   O     O_2   0.433569 0.267707 0.741226 -0.530103
C88   C     C_2   0.544730 0.640741 0.318159 0.377273
H36   H     H_    0.561971 0.736074 0.283628 0.089390
O32   O     O_2   0.516020 0.526275 0.283234 -0.533568

loop_
_geom_bond_atom_site_label_1
_geom_bond_atom_site_label_2
_ccdc_geom_bond_type
O17   V3    S    
C47   C51   A    
N1    C17   A    
C22   C26   A    
O1    C5    A    
O19   V1    S    
O13   V1    S    
C27   H20   S    
O3    C7    A    
C11   C12   D    
C14   C46   A    
C44   C48   A    
O15   V3    S    
C62   C70   A    
C78   H26   S    
C61   C69   A    
C68   C83   A    
C84   C88   S    
C42   C54   A    
O7    C3    A    
C41   C53   A    
C32   C60   A    
C21   H22   S    
C81   C85   S    
C74   H30   S    
C63   C71   A    
C86   H34   S    
N3    C39   S    
C18   C54   A    
N2    C38   S    
C24   H23   S    
C52   H16   S    
C25   C57   A    
C25   H18   S    
C31   C35   A    
C67   C84   A    
C27   C59   A    
O1    V3    S    
C15   C47   A    
O2    V4    S    
C14   O22   S    
C21   C37   A    
O3    V1    S    
C34   C38   A    
C19   C55   A    
C73   C77   A    
C1    O15   A    
C82   C86   S    
C2    O16   A    
C7    C9    S    
O2    C6    A    
C87   O31   D    
C33   C37   A    
C63   C68   A    
O14   V2    S    
C85   O29   D    
C79   H27   S    
C43   C55   A    
C31   H7    S    
C30   C58   A    
C16   N4    A    
O11   C7    A    
C76   H32   S    
C44   C71   A    
O12   C8    A    
C31   C59   A    
C50   H14   S    
O10   V2    S    
C49   H13   S    
C13   N1    A    
C50   C82   A    
C45   C49   A    
O5    V1    S    
C53   C78   A    
C75   H31   S    
C83   C87   S    
C55   C80   A    
C63   C75   A    
O8    V4    S    
C51   C83   A    
C12   H4    S    
C42   C69   A    
O7    V3    S    
C28   C60   A    
C41   C70   A    
C64   C72   A    
O18   V4    S    
C80   H28   S    
C36   H12   S    
N4    C40   S    
C46   C50   A    
O11   V3    S    
C24   C40   A    
C8    C10   S    
C68   C72   A    
C32   C36   A    
C74   C78   A    
C11   H3    S    
C32   H8    S    
O5    C1    A    
C54   C77   A    
C42   C46   A    
C75   C79   A    
C87   H35   S    
C1    C60   S    
C41   C45   A    
O8    C4    A    
C13   C45   A    
C43   C72   A    
C9    C10   D    
O9    C5    A    
C36   C40   A    
N2    C18   A    
C21   C25   A    
C44   C56   A    
C62   C65   A    
C52   C84   A    
C66   C70   A    
C61   C66   A    
C14   N2    A    
C65   C69   A    
C3    C58   S    
O6    V2    S    
C23   H24   S    
C67   C71   A    
C65   C82   A    
C26   C58   A    
C17   C53   A    
O10   C6    A    
N1    C37   S    
C4    C57   S    
C56   C79   A    
C23   C39   A    
C22   C38   A    
C88   H36   S    
O16   V4    S    
O9    V1    S    
C18   O25   S    
C35   H11   S    
C3    O13   A    
C10   H2    S    
C48   C52   A    
C17   O26   S    
C16   C48   A    
O6    C2    A    
C34   H10   S    
C64   C76   A    
C5    C11   S    
C33   H9    S    
O12   V4    S    
C6    C12   S    
C23   C27   A    
C76   C80   A    
C24   C28   A    
C30   H6    S    
C86   O30   D    
C29   H5    S    
C88   O32   D    
C77   H25   S    
C62   C74   A    
C35   C39   A    
C22   H21   S    
C15   N3    A    
C30   C34   A    
C2    C59   S    
O4    C8    A    
C29   C33   A    
O20   V2    S    
C29   C57   A    
C66   C81   A    
C73   H29   S    
N3    C19   A    
C26   H17   S    
C9    H1    S    
C20   O27   S    
C43   C47   A    
N4    C20   A    
C20   C56   A    
C51   H15   S    
C19   O28   S    
C4    O14   A    
C13   O21   S    
C61   C73   A    
C85   H33   S    
C15   O23   S    
C64   C67   A    
O4    V2    S    
C16   O24   S    
C49   C81   A    
C28   H19   S    
