data_mof_unit_43845.cif
_audit_creation_date              2012-12-10T20:38:25-0500
_audit_creation_method            fapswitch 2.2
_symmetry_space_group_name_H-M    P1
_symmetry_Int_Tables_number       1
_space_group_crystal_system       triclinic
_cell_length_a                    9.869369
_cell_length_b                    10.679763
_cell_length_c                    16.640214
_cell_angle_alpha                 90.165181
_cell_angle_beta                  84.668815
_cell_angle_gamma                 89.878837
_cell_volume                      1746.32128562

loop_
_atom_site_label
_atom_site_type_symbol
_atom_type_description
_atom_site_fract_x
_atom_site_fract_y
_atom_site_fract_z
_atom_type_partial_charge
C1    C     C_R   0.499726 0.739881 0.500943 0.877105
C2    C     C_R   0.346312 0.549960 0.784078 -0.203577
C3    C     C_R   0.654457 0.542113 0.129066 0.163552
C4    C     C_R   0.634279 0.489570 0.206631 0.108691
C5    C     C_R   0.455561 0.643150 0.242180 -0.231938
C6    C     C_R   0.473274 0.694162 0.165709 0.109368
C7    C     C_R   0.570513 0.642268 0.108259 -0.036988
C8    C     C_2   0.458213 0.614688 0.989161 -0.333894
C9    C     C_2   0.561117 0.670583 0.023257 0.536840
C10   C     C_R   0.533682 0.540726 0.262668 -0.152477
C11   C     C_R   0.382707 0.936514 0.489027 0.142887
C12   C     C_R   0.480756 0.500745 0.653734 0.851823
C13   C     C_R   0.497111 0.871640 0.508598 -0.094424
C14   C     C_R   0.605057 0.935193 0.539596 -0.214965
C15   C     C_R   0.605167 0.064742 0.539644 -0.211959
C16   C     C_R   0.496997 0.128505 0.509018 -0.085838
C17   C     C_R   0.382111 0.064030 0.489753 0.085306
C18   C     C_3   0.308054 0.071558 0.415496 -0.459182
C19   C     C_3   0.309336 0.929592 0.414528 -0.426318
C20   C     C_R   0.917575 0.525613 0.569074 0.130302
C21   C     C_R   0.938594 0.462955 0.433847 -0.090010
C22   C     C_R   0.082400 0.462484 0.433912 -0.102297
C23   C     C_R   0.499881 0.260144 0.501076 0.889872
C24   C     C_R   0.059938 0.527210 0.568881 0.120283
C25   C     C_3   0.054943 0.645630 0.617510 0.354795
C26   C     C_3   0.900611 0.642243 0.617960 -0.556060
C27   C     C_R   0.519558 0.502518 0.346566 0.917702
C28   C     C_R   0.470132 0.516237 0.741151 -0.032953
C29   C     C_R   0.588557 0.509228 0.781198 -0.240818
C30   C     C_R   0.585192 0.542771 0.861594 -0.080111
C31   C     C_R   0.463392 0.584051 0.903351 0.186464
C32   C     C_R   0.342949 0.583272 0.865199 -0.161801
H1    H     H_    0.684686 0.479812 0.750140 0.157576
H2    H     H_    0.691120 0.885590 0.560130 0.163430
H3    H     H_    0.691462 0.114224 0.560010 0.167893
H4    H     H_    0.204353 0.111975 0.428250 0.209211
H5    H     H_    0.370481 0.113891 0.363477 0.221577
H6    H     H_    0.206359 0.887852 0.426311 0.240673
H7    H     H_    0.373118 0.889287 0.362136 0.205970
H8    H     H_    0.893199 0.435207 0.379999 0.179392
H9    H     H_    0.144676 0.433817 0.380103 0.161324
H10   H     H_    0.092761 0.631468 0.677762 0.053610
H11   H     H_    0.848337 0.625071 0.678916 0.161410
H12   H     H_    0.857225 0.720198 0.584334 0.229110
H13   H     H_    0.380995 0.684736 0.286307 0.180280
H14   H     H_    0.247203 0.610473 0.897780 0.160051
H15   H     H_    0.253349 0.553617 0.754719 0.144252
H16   H     H_    0.372491 0.577178 0.027457 0.161147
H17   H     H_    0.677965 0.534987 0.890820 0.197453
N1    N     N_R   0.857140 0.500860 0.500530 -0.094210
N2    N     N_R   0.142780 0.500820 0.500530 -0.089314
O1    O     O_R   0.385310 0.683210 0.499990 -0.567678
O2    O     O_R   0.614650 0.683240 0.500000 -0.619346
O3    O     O_R   0.371780 0.500000 0.615800 -0.624397
O4    O     O_R   0.601120 0.500040 0.615800 -0.618130
O5    O     O_R   0.385350 0.316760 0.500000 -0.621159
O6    O     O_R   0.614690 0.316790 0.500010 -0.613517
O7    O     O_R   0.398880 0.499960 0.384200 -0.626763
O8    O     O_R   0.628220 0.500000 0.384200 -0.594552
Zn1   Zn    Zn3+2 0.346870 0.499980 0.499990 0.976958
Zn2   Zn    Zn3+2 0.653130 0.500020 0.500010 0.966650
I1    I     I_    0.346580 0.847271 0.140013 -0.375853
I2    I     I_    0.743623 0.325619 0.237193 -0.315362
O9    O     O_3   0.112542 0.747572 0.572660 -0.558914
C33   C     C_3   0.117792 0.852054 0.624351 -0.305672
H18   H     H_    0.200266 0.839795 0.664881 0.166112
H19   H     H_    0.018768 0.869591 0.660479 0.153873
H20   H     H_    0.140613 0.936706 0.587268 0.188253
O10   O     O_3   0.671835 0.723099 0.978339 -0.596936
C34   C     C_3   0.634327 0.842737 0.952501 -0.232271
H21   H     H_    0.605640 0.905483 0.004880 0.192601
H22   H     H_    0.550236 0.837574 0.912468 0.160339
H23   H     H_    0.723303 0.885062 0.917056 0.186596
I3    I     I_    0.806756 0.466436 0.042351 -0.291052

loop_
_geom_bond_atom_site_label_1
_geom_bond_atom_site_label_2
_ccdc_geom_bond_type
C10   C27   S    
C14   H2    S    
C34   H22   S    
C8    H16   S    
O6    Zn2   S    
C34   H21   S    
O3    Zn1   S    
C19   H6    S    
C29   H1    S    
C2    H15   S    
C29   C30   A    
C31   C32   A    
C27   O8    A    
C30   C31   A    
C33   H20   S    
O9    C33   S    
C6    I1    S    
C34   H23   S    
C17   C18   S    
C25   O9    S    
C26   H12   S    
C23   O5    A    
C20   C26   S    
C5    H13   S    
C21   C22   A    
C11   C13   A    
C4    I2    S    
C11   C19   S    
C6    C7    A    
C21   H8    S    
C32   H14   S    
C12   C28   S    
C23   O6    A    
C25   H10   S    
C19   H7    S    
C2    C32   A    
C15   H3    S    
C21   N1    A    
C30   H17   S    
C9    O10   S    
C26   H11   S    
C18   C19   S    
C16   C23   S    
C3    C7    A    
O10   C34   S    
C5    C6    A    
C1    O1    A    
O8    Zn2   S    
C24   N2    A    
C1    C13   S    
O7    Zn1   S    
C15   C16   A    
C12   O4    A    
C16   C17   A    
O4    Zn2   S    
C5    C10   A    
O5    Zn1   S    
C24   C25   S    
C28   C29   A    
O2    Zn2   S    
C20   N1    A    
C33   H18   S    
C7    C9    S    
C3    I3    S    
C1    O2    A    
C14   C15   A    
C22   N2    A    
C2    C28   A    
N2    Zn1   S    
O1    Zn1   S    
C25   C26   S    
C13   C14   A    
C8    C31   S    
C18   H4    S    
N1    Zn2   S    
C20   C24   A    
C12   O3    A    
C22   H9    S    
C3    C4    A    
C4    C10   A    
C18   H5    S    
C8    C9    D    
C33   H19   S    
C27   O7    A    
C11   C17   A    
