data_mof_unit_58043.cif
_audit_creation_date              2012-12-11T17:06:32-0500
_audit_creation_method            fapswitch 2.2
_symmetry_space_group_name_H-M    P1
_symmetry_Int_Tables_number       1
_space_group_crystal_system       triclinic
_cell_length_a                    6.959819
_cell_length_b                    14.509187
_cell_length_c                    15.970129
_cell_angle_alpha                 90.506703
_cell_angle_beta                  89.915914
_cell_angle_gamma                 89.899728
_cell_volume                      1612.61732619

loop_
_atom_site_label
_atom_site_type_symbol
_atom_type_description
_atom_site_fract_x
_atom_site_fract_y
_atom_site_fract_z
_atom_type_partial_charge
O1    O     O_R   0.494400 0.415450 0.412630 -0.537408
O2    O     O_R   0.823940 0.405730 0.586760 -0.543425
O3    O     O_R   0.994240 0.584550 0.587370 -0.537977
C1    C     C_R   0.655160 0.383429 0.615178 0.696547
O4    O     O_R   0.824110 0.404430 0.413240 -0.543629
O5    O     O_R   0.994420 0.583240 0.412620 -0.539316
C2    C     C_R   0.655527 0.382119 0.384312 0.691035
O6    O     O_R   0.494230 0.416760 0.587380 -0.537010
O7    O     O_3   0.660800 0.558670 0.500000 -0.367579
V1    V     V_3+5 0.935650 0.489120 0.500000 1.385579
O8    O     O_R   0.324140 0.594270 0.413240 -0.539681
C3    C     C_R   0.155083 0.616032 0.384196 0.691732
O9    O     O_R   0.323960 0.595570 0.586760 -0.540786
C4    C     C_R   0.154758 0.617702 0.615500 0.688783
V2    V     V_3+5 0.435660 0.510880 0.500000 1.392512
O10   O     O_3   0.160640 0.441330 0.500000 -0.371352
C5    C     C_3   0.955251 0.716787 0.730223 -0.116980
C6    C     C_3   0.058330 0.708123 0.815866 -0.177755
H1    H     H_    0.997298 0.675290 0.872483 0.107687
H2    H     H_    0.808835 0.690947 0.715708 0.111180
C7    C     C_3   0.122580 0.809428 0.809880 -0.056449
C8    C     C_3   0.021225 0.818090 0.725016 0.185559
C9    C     C_3   0.207570 0.788753 0.679206 -0.152763
C10   C     C_3   0.309831 0.779798 0.765057 -0.140866
C11   C     C_3   0.245528 0.677741 0.770410 -0.134438
C12   C     C_3   0.142977 0.687453 0.685523 -0.033229
H3    H     H_    0.268643 0.821740 0.622658 0.103336
H4    H     H_    0.456221 0.805580 0.779664 0.119497
H5    H     H_    0.338826 0.619133 0.788636 0.102427
C13   C     C_R   0.272029 0.815780 0.239741 0.101154
C14   C     C_R   0.118350 0.815320 0.183101 -0.113245
C15   C     C_R   0.967061 0.753397 0.198774 -0.180230
H6    H     H_    0.844909 0.750660 0.157177 0.132053
C16   C     C_R   0.978154 0.689750 0.264807 -0.178568
H7    H     H_    0.863644 0.640201 0.272181 0.126163
C17   C     C_R   0.141180 0.685827 0.317035 -0.111219
C18   C     C_R   0.283433 0.752560 0.304842 0.100592
C19   C     C_3   0.494520 0.740671 0.293428 -0.408777
C20   C     C_3   0.482207 0.809930 0.222813 -0.398024
H8    H     H_    0.532032 0.669947 0.271626 0.165855
H9    H     H_    0.577340 0.766352 0.348306 0.176330
H10   H     H_    0.513364 0.779624 0.160075 0.170152
H11   H     H_    0.557149 0.875826 0.237021 0.168616
C21   C     C_R   0.492944 0.315457 0.741034 0.095176
C22   C     C_R   0.647456 0.316816 0.684765 -0.111672
C23   C     C_R   0.798891 0.254225 0.698513 -0.177981
H12   H     H_    0.921283 0.252744 0.656832 0.133164
C24   C     C_R   0.787607 0.188429 0.762602 -0.177315
H13   H     H_    0.902300 0.138575 0.768730 0.123897
C25   C     C_R   0.624252 0.183132 0.814581 -0.108387
C26   C     C_R   0.481411 0.250125 0.804248 0.100216
C27   C     C_3   0.270714 0.238115 0.791955 -0.407196
C28   C     C_3   0.283185 0.309748 0.723389 -0.398036
H14   H     H_    0.186342 0.261743 0.847285 0.173951
H15   H     H_    0.234779 0.168057 0.768095 0.164983
H16   H     H_    0.206858 0.374991 0.739240 0.166077
H17   H     H_    0.253639 0.281478 0.659790 0.171354
C29   C     C_R   0.491631 0.250723 0.309355 0.101805
C30   C     C_R   0.647743 0.310966 0.317298 -0.110450
C31   C     C_R   0.799910 0.300173 0.259817 -0.180638
H18   H     H_    0.922941 0.345290 0.263299 0.129772
C32   C     C_R   0.788114 0.235832 0.193397 -0.180010
H19   H     H_    0.903581 0.232426 0.148115 0.129644
C33   C     C_R   0.623181 0.180912 0.182195 -0.110395
C34   C     C_R   0.479586 0.187327 0.243452 0.098780
C35   C     C_3   0.269558 0.203381 0.233303 -0.414727
C36   C     C_3   0.282577 0.272089 0.305401 -0.396033
H20   H     H_    0.183526 0.141244 0.248524 0.172984
H21   H     H_    0.235488 0.236008 0.172391 0.169920
H22   H     H_    0.204701 0.249519 0.362455 0.173221
H23   H     H_    0.255235 0.344480 0.286463 0.166051
O11   O     O_R   0.771650 0.079500 0.908680 -0.541178
O12   O     O_R   0.441690 0.091800 0.082800 -0.539053
O13   O     O_R   0.271460 0.912980 0.083410 -0.535781
C37   C     C_R   0.610546 0.114242 0.111627 0.697126
O14   O     O_R   0.441930 0.090510 0.909280 -0.539907
O15   O     O_R   0.271690 0.911670 0.908660 -0.537954
C38   C     C_R   0.610917 0.112324 0.880465 0.692135
O16   O     O_R   0.771410 0.080810 0.083440 -0.538604
O17   O     O_3   0.605100 0.937580 0.996050 -0.370116
V3    V     V_3+5 0.330220 0.007110 0.996030 1.392256
O18   O     O_R   0.941980 0.900620 0.909250 -0.544610
C39   C     C_R   0.111128 0.878743 0.880338 0.677889
O19   O     O_R   0.941740 0.901920 0.082770 -0.542486
C40   C     C_R   0.110513 0.880179 0.111810 0.697432
V4    V     V_3+5 0.830220 0.985300 0.996000 1.383048
O20   O     O_3   0.105210 0.054870 0.996020 -0.369407
C41   C     C_3   0.892567 0.898972 0.700620 -0.374705
C42   C     C_3   0.805504 0.884681 0.613904 -0.767547
H24   H     H_    0.920680 0.877266 0.566089 0.223831
H25   H     H_    0.713719 0.822120 0.612856 0.224013
H26   H     H_    0.715181 0.945144 0.597878 0.217408
H27   H     H_    0.774936 0.906338 0.747300 0.177524
H28   H     H_    0.978914 0.963295 0.701319 0.164451

loop_
_geom_bond_atom_site_label_1
_geom_bond_atom_site_label_2
_ccdc_geom_bond_type
C35   H20   S    
C14   C40   S    
C6    C7    S    
C1    O6    A    
C22   C23   A    
C27   C28   S    
C32   H19   S    
C5    C12   S    
C17   C18   A    
O19   V4    S    
C16   H7    S    
O5    C3    A    
C19   C20   S    
C35   H21   S    
O15   C39   A    
V2    O10   S    
C5    H2    S    
C31   C32   A    
C6    H1    S    
C9    C12   S    
O12   V3    S    
O17   V4    S    
C23   H12   S    
O8    V2    S    
C21   C28   S    
C7    C39   S    
C32   C33   A    
C9    C10   S    
O1    V2    S    
C8    C41   S    
C42   H25   S    
O7    V1    S    
C36   H23   S    
C27   H15   S    
C24   C25   A    
C35   C36   S    
C30   C31   A    
O9    C4    A    
O12   C37   A    
C6    C11   S    
C25   C38   S    
C2    C30   S    
C27   H14   S    
C25   C26   A    
C20   H10   S    
C41   H28   S    
C1    C22   S    
C11   H5    S    
C23   C24   A    
C26   C27   S    
O19   C40   A    
C10   C11   S    
C19   H9    S    
O4    C2    A    
C28   H17   S    
V4    O20   S    
C20   H11   S    
C29   C30   A    
O18   V4    S    
C13   C18   A    
C31   H18   S    
C15   C16   A    
O2    C1    A    
C18   C19   S    
C29   C34   A    
C14   C15   A    
O15   V3    S    
C5    C6    S    
C4    C12   S    
C42   H26   S    
V3    O20   S    
O3    C4    A    
C21   C26   A    
C24   H13   S    
O18   C39   A    
O6    V2    S    
C9    H3    S    
O9    V2    S    
C3    C17   S    
O13   V3    S    
O2    V1    S    
C21   C22   A    
C28   H16   S    
C41   H27   S    
O1    C2    A    
C10   H4    S    
O14   C38   A    
O17   V3    S    
O14   V3    S    
O5    V1    S    
O11   V4    S    
O8    C3    A    
C5    C8    S    
C36   H22   S    
C15   H6    S    
C11   C12   S    
O4    V1    S    
O3    V1    S    
V1    O10   S    
C33   C34   A    
C19   H8    S    
C13   C14   A    
C33   C37   S    
C13   C20   S    
C16   C17   A    
O13   C40   A    
O7    V2    S    
C29   C36   S    
C41   C42   S    
C34   C35   S    
C7    C10   S    
O11   C38   A    
C8    C9    S    
C42   H24   S    
C7    C8    S    
C37   O16   A    
O16   V4    S    
