data_mof_unit_48278.cif
_audit_creation_date              2012-12-11T17:01:14-0500
_audit_creation_method            fapswitch 2.2
_symmetry_space_group_name_H-M    P1
_symmetry_Int_Tables_number       1
_space_group_crystal_system       triclinic
_cell_length_a                    19.182011
_cell_length_b                    7.102149
_cell_length_c                    17.886451
_cell_angle_alpha                 90.000286
_cell_angle_beta                  108.5592
_cell_angle_gamma                 90.000109
_cell_volume                      2310.01221206

loop_
_atom_site_label
_atom_site_type_symbol
_atom_type_description
_atom_site_fract_x
_atom_site_fract_y
_atom_site_fract_z
_atom_type_partial_charge
O1    O     O_R   0.413720 0.494330 0.415730 -0.539497
O2    O     O_R   0.586280 0.994330 0.584270 -0.539498
O3    O     O_R   0.560210 0.819300 0.430070 -0.549547
O4    O     O_R   0.439790 0.319300 0.569930 -0.549544
C1    C     C_R   0.582138 0.655376 0.414953 0.753815
C2    C     C_R   0.417860 0.155375 0.585045 0.753766
O5    O     O_R   0.412670 0.823730 0.406310 -0.539794
O6    O     O_R   0.587330 0.323730 0.593690 -0.539772
O7    O     O_R   0.437690 0.998790 0.560340 -0.517991
O8    O     O_R   0.562310 0.498790 0.439660 -0.518015
C3    C     C_R   0.384882 0.655616 0.383809 0.698496
C4    C     C_R   0.615116 0.155614 0.616193 0.698499
O9    O     O_3   0.508380 0.662350 0.550560 -0.375578
O10   O     O_3   0.491620 0.162350 0.449440 -0.375597
V1    V     V_3+5 0.498450 0.935370 0.490620 1.461551
V2    V     V_3+5 0.501550 0.435370 0.509380 1.461573
C5    C     C_R   0.694913 0.003018 0.740802 -0.030756
C6    C     C_R   0.305083 0.503020 0.259203 -0.030768
C7    C     C_R   0.683464 0.149614 0.685652 -0.175197
C8    C     C_R   0.316533 0.649624 0.314349 -0.175226
C9    C     C_R   0.737950 0.294564 0.702124 0.330138
C10   C     C_R   0.262050 0.794583 0.297871 0.330138
C11   C     C_R   0.801318 0.282149 0.768609 -0.115509
C12   C     C_R   0.198682 0.782159 0.231387 -0.115473
H1    H     H_    0.842390 0.392071 0.778144 0.140529
H2    H     H_    0.157612 0.892085 0.221848 0.140542
C13   C     C_R   0.815506 0.123263 0.817829 -0.196199
C14   C     C_R   0.184493 0.623265 0.182171 -0.196217
C15   C     C_R   0.759561 0.988944 0.804589 0.026320
C16   C     C_R   0.240436 0.488942 0.195416 0.026319
C17   C     C_3   0.761944 0.779785 0.795898 0.236098
C18   C     C_3   0.238048 0.279786 0.204115 0.236116
C19   C     C_3   0.690513 0.795875 0.727222 -0.372702
C20   C     C_3   0.309478 0.295882 0.272792 -0.372673
H3    H     H_    0.809703 0.730785 0.778662 0.125713
H4    H     H_    0.190287 0.230803 0.221351 0.125708
H5    H     H_    0.641832 0.732407 0.738515 0.180479
H6    H     H_    0.358159 0.232398 0.261504 0.180480
H7    H     H_    0.696370 0.761472 0.669077 0.190201
H8    H     H_    0.303618 0.261510 0.330938 0.190199
C21   C     C_R   0.315946 0.003710 0.625700 0.440582
C22   C     C_R   0.684072 0.503773 0.374320 0.440517
C23   C     C_R   0.369352 0.146976 0.635844 -0.187139
C24   C     C_R   0.630644 0.646985 0.364152 -0.187110
C25   C     C_R   0.373728 0.288773 0.692286 -0.242830
C26   C     C_R   0.626254 0.788753 0.307696 -0.242854
C27   C     C_R   0.327156 0.286979 0.739500 0.056294
C28   C     C_R   0.672832 0.786968 0.260487 0.056310
C29   C     C_R   0.279814 0.131778 0.734584 -0.079343
C30   C     C_R   0.720185 0.631785 0.265415 -0.079327
C31   C     C_R   0.277347 0.984683 0.680747 0.023855
C32   C     C_R   0.722668 0.484724 0.319271 0.023842
C33   C     C_R   0.326842 0.437086 0.791252 0.369932
C34   C     C_R   0.673145 0.937071 0.208733 0.369949
C35   C     C_R   0.277755 0.432649 0.835736 -0.284521
C36   C     C_R   0.722234 0.932634 0.164251 -0.284502
C37   C     C_R   0.230330 0.279362 0.830601 0.050430
C38   C     C_R   0.769663 0.779354 0.169391 0.050433
C39   C     C_R   0.232599 0.126399 0.781249 0.075620
C40   C     C_R   0.767402 0.626405 0.218753 0.075605
C41   C     C_R   0.186418 0.969339 0.777166 0.113263
C42   C     C_R   0.813596 0.469364 0.222851 0.113261
C43   C     C_R   0.188749 0.817655 0.728061 -0.218239
C44   C     C_R   0.811282 0.317710 0.271979 -0.218196
C45   C     C_R   0.233699 0.825175 0.680350 -0.147812
C46   C     C_R   0.766339 0.325248 0.319697 -0.147848
C47   C     C_R   0.180336 0.276789 0.873669 -0.185400
C48   C     C_R   0.819657 0.776778 0.126322 -0.185383
C49   C     C_R   0.133745 0.120848 0.869311 -0.082839
C50   C     C_R   0.866256 0.620851 0.130690 -0.082839
C51   C     C_R   0.138112 0.966752 0.821642 -0.227842
C52   C     C_R   0.861900 0.466772 0.178374 -0.227845
H9    H     H_    0.412503 0.403024 0.697974 0.194897
H10   H     H_    0.587467 0.902980 0.301995 0.194876
H11   H     H_    0.276389 0.549643 0.874171 0.131762
H12   H     H_    0.723598 0.049623 0.125813 0.131754
H13   H     H_    0.178407 0.394953 0.911335 0.130897
H14   H     H_    0.821579 0.894930 0.088648 0.130898
H15   H     H_    0.102844 0.845434 0.817913 0.128252
H16   H     H_    0.897178 0.345469 0.182113 0.128246
H17   H     H_    0.154672 0.694483 0.725337 0.129297
H18   H     H_    0.845373 0.194557 0.274719 0.129287
H19   H     H_    0.233421 0.706748 0.642062 0.151045
H20   H     H_    0.766641 0.206864 0.358014 0.151042
O11   O     O_R   0.937800 0.775460 0.060470 -0.540243
O12   O     O_R   0.062200 0.275460 0.939530 -0.540245
O13   O     O_R   0.087350 0.441340 0.093710 -0.537488
O14   O     O_R   0.912650 0.941340 0.906290 -0.537488
C53   C     C_R   0.115087 0.610088 0.115622 0.713339
C54   C     C_R   0.884913 0.110088 0.884378 0.713341
O15   O     O_R   0.939820 0.446010 0.069950 -0.545493
O16   O     O_R   0.060180 0.946010 0.930050 -0.545495
O17   O     O_R   0.913690 0.271230 0.915700 -0.532929
O18   O     O_R   0.086310 0.771230 0.084300 -0.532929
C55   C     C_R   0.917672 0.614286 0.083775 0.721229
C56   C     C_R   0.082328 0.114286 0.916226 0.721229
O19   O     O_3   0.991670 0.603050 0.949510 -0.377625
O20   O     O_3   0.008330 0.103050 0.050490 -0.377624
V3    V     V_3+5 0.001550 0.329940 0.009370 1.442301
V4    V     V_3+5 0.998450 0.829940 0.990630 1.442300
O21   O     O_3   0.735119 0.444267 0.652744 -0.674575
H21   H     H_    0.702793 0.412266 0.599457 0.308080
O22   O     O_3   0.264881 0.944312 0.347240 -0.674589
H22   H     H_    0.297230 0.912378 0.400523 0.308061
O23   O     O_3   0.754262 0.681283 0.861157 -0.631461
H23   H     H_    0.713625 0.739166 0.876459 0.298715
O24   O     O_3   0.245731 0.181261 0.138861 -0.631460
H24   H     H_    0.286370 0.239129 0.123558 0.298715
O25   O     O_3   0.296081 0.898107 0.556879 -0.569798
C57   C     C_3   0.224708 0.953115 0.507742 0.043863
H25   H     H_    0.181749 0.934800 0.536525 0.118921
H26   H     H_    0.207921 0.856557 0.456415 0.160882
C58   C     C_3   0.222187 0.156691 0.477940 -0.744938
H27   H     H_    0.271151 0.189055 0.460004 0.229070
H28   H     H_    0.171854 0.177997 0.426648 0.199724
H29   H     H_    0.220636 0.256788 0.525094 0.199064
O26   O     O_3   0.703984 0.398304 0.443176 -0.569826
C59   C     C_3   0.775337 0.453556 0.492283 0.043843
H30   H     H_    0.818290 0.435455 0.463475 0.118917
H31   H     H_    0.792199 0.357020 0.543615 0.160926
C60   C     C_3   0.777745 0.657114 0.522078 -0.744820
H32   H     H_    0.728799 0.689212 0.540085 0.229101
H33   H     H_    0.828101 0.678635 0.573320 0.199632
H34   H     H_    0.779169 0.757272 0.474897 0.199081
O27   O     O_3   0.373553 0.588125 0.796294 -0.647346
H35   H     H_    0.365484 0.681882 0.833805 0.295992
O28   O     O_3   0.626433 0.088110 0.203690 -0.647346
H36   H     H_    0.634508 0.181874 0.166185 0.295984

loop_
_geom_bond_atom_site_label_1
_geom_bond_atom_site_label_2
_ccdc_geom_bond_type
C43   C45   A    
O21   H21   S    
C36   H12   S    
C13   C15   A    
C5    C15   A    
C47   H13   S    
C49   C56   S    
O2    C4    A    
C2    O7    A    
C51   H15   S    
C32   C46   A    
C27   C29   A    
C28   C34   A    
C19   H7    S    
C5    C19   S    
C43   H17   S    
C20   H8    S    
C18   H4    S    
C25   H9    S    
C7    C9    A    
C12   H2    S    
C37   C39   A    
C38   C40   A    
O16   C56   A    
C13   C54   S    
C40   C42   A    
C31   C45   A    
C25   C27   A    
C53   O18   A    
C49   C51   A    
C57   H25   S    
C60   H34   S    
C42   C44   A    
C59   H30   S    
O13   C53   A    
C29   C31   A    
C18   O24   S    
O1    C3    A    
C30   C32   A    
O24   H24   S    
C17   C19   S    
C14   C53   S    
C6    C16   A    
C11   C13   A    
O17   V3    S    
C6    C8    A    
C27   C33   A    
C58   H29   S    
C9    O21   S    
C41   C51   A    
C28   C30   A    
O6    V2    S    
C21   O25   S    
C17   O23   S    
C22   C24   A    
C37   C47   A    
O19   V3    S    
C24   C26   A    
O13   V3    S    
C33   C35   A    
C48   H14   S    
C34   C36   A    
C3    C8    S    
C39   C41   A    
O4    C2    A    
O5    V1    S    
O15   C55   A    
C19   H5    S    
C10   O22   S    
C47   C49   A    
C59   C60   S    
C44   C46   A    
O4    V2    S    
O5    C3    A    
O2    V1    S    
C23   C25   A    
O18   V4    S    
O6    C4    A    
C41   C43   A    
C42   C52   A    
O1    V2    S    
O12   C56   A    
O12   V3    S    
C6    C20   S    
C57   C58   S    
C44   H18   S    
C60   H32   S    
O14   V4    S    
C33   O27   S    
C59   H31   S    
C38   C48   A    
C1    C24   S    
C8    C10   A    
O20   V4    S    
C2    C23   S    
C35   C37   A    
O27   H35   S    
C17   H3    S    
O28   H36   S    
C26   H10   S    
O19   V4    S    
O3    V1    S    
O16   V4    S    
C54   O17   A    
C58   H27   S    
O23   H23   S    
C20   H6    S    
C21   C23   A    
C12   C14   A    
O14   C54   A    
O3    C1    A    
C22   O26   S    
C34   O28   S    
C29   C39   A    
C30   C40   A    
C9    C11   A    
C50   C55   S    
O7    V1    S    
C35   H11   S    
C1    O8    A    
C15   C17   S    
O11   V4    S    
O8    V2    S    
O26   C59   S    
C16   C18   S    
O11   C55   A    
C4    C7    S    
C14   C16   A    
C5    C7    A    
C36   C38   A    
C10   C12   A    
C11   H1    S    
C57   H26   S    
C60   H33   S    
C45   H19   S    
C46   H20   S    
C26   C28   A    
C52   H16   S    
O20   V3    S    
O9    V2    S    
C22   C32   A    
O22   H22   S    
C48   C50   A    
O10   V1    S    
C50   C52   A    
O15   V3    S    
O25   C57   S    
C21   C31   A    
C18   C20   S    
C58   H28   S    
