data_mof_unit_31622.cif
_audit_creation_date              2012-12-11T15:30:37-0500
_audit_creation_method            fapswitch 2.2
_symmetry_space_group_name_H-M    P1
_symmetry_Int_Tables_number       1
_space_group_crystal_system       triclinic
_cell_length_a                    7.003616
_cell_length_b                    20.475194
_cell_length_c                    24.37599
_cell_angle_alpha                 89.721338
_cell_angle_beta                  90.416313
_cell_angle_gamma                 90.131447
_cell_volume                      3495.38409404

loop_
_atom_site_label
_atom_site_type_symbol
_atom_type_description
_atom_site_fract_x
_atom_site_fract_y
_atom_site_fract_z
_atom_type_partial_charge
O1    O     O_R   0.507310 0.423620 0.460450 -0.534456
O2    O     O_R   0.170760 0.556060 0.437190 -0.543528
O3    O     O_R   0.004040 0.576380 0.539550 -0.530449
C1    C     C_R   0.339701 0.576374 0.421603 0.714421
O4    O     O_R   0.177350 0.422870 0.454070 -0.537095
O5    O     O_R   0.010680 0.442240 0.556560 -0.525554
C2    C     C_R   0.344954 0.398873 0.443606 0.697442
O6    O     O_R   0.500670 0.557760 0.443440 -0.539605
O7    O     O_3   0.340380 0.506510 0.533610 -0.365274
V1    V     V_3+5 0.064130 0.498790 0.493770 1.414997
O8    O     O_R   0.681170 0.443940 0.562810 -0.537413
C3    C     C_R   0.850168 0.424141 0.578706 0.739850
O9    O     O_R   0.674570 0.577130 0.545930 -0.546320
C4    C     C_R   0.843148 0.601226 0.556100 0.783230
V2    V     V_3+5 0.564560 0.501210 0.506230 1.401704
O10   O     O_3   0.838170 0.493490 0.466390 -0.379547
C5    C     C_R   0.970736 0.839436 0.910076 -0.229504
C6    C     C_R   0.846580 0.662752 0.587255 -0.209544
C7    C     C_R   0.980026 0.721699 0.906253 0.652332
C8    C     C_R   0.981692 0.779079 0.936475 -0.350704
C9    C     C_R   0.955094 0.842604 0.852493 0.544660
C10   C     C_R   0.939126 0.784280 0.820609 -0.077174
C11   C     C_R   0.960270 0.723665 0.848777 -0.061731
C12   C     C_R   0.902883 0.783251 0.762319 0.059266
C13   C     C_R   0.916067 0.723129 0.732668 0.089388
C14   C     C_R   0.938305 0.664864 0.763018 -0.163914
C15   C     C_R   0.958619 0.665210 0.819601 -0.133364
C16   C     C_R   0.838396 0.838931 0.733538 -0.233377
C17   C     C_R   0.792496 0.837090 0.677798 0.419527
C18   C     C_R   0.807208 0.778420 0.648367 -0.135024
C19   C     C_R   0.885549 0.722039 0.674303 -0.155649
C20   C     C_R   0.741568 0.774766 0.593534 0.670511
C21   C     C_R   0.753379 0.716665 0.564714 -0.352878
C22   C     C_R   0.925855 0.666575 0.640456 0.344679
H1    H     H_    0.971164 0.618699 0.840721 0.185552
H2    H     H_    0.692139 0.714077 0.523829 0.156082
H3    H     H_    0.995414 0.776498 0.980749 0.161015
H4    H     H_    0.925660 0.617385 0.744520 0.181151
H5    H     H_    0.806565 0.884086 0.753773 0.218559
C23   C     C_3   0.778251 0.260752 0.804610 -0.436762
C24   C     C_3   0.124700 0.243538 0.781540 -0.487491
C25   C     C_3   0.100165 0.296540 0.735070 0.325416
H6    H     H_    0.779423 0.360240 0.770816 0.164228
H7    H     H_    0.821052 0.288006 0.842140 0.170112
H8    H     H_    0.236661 0.206950 0.772973 0.192785
H9    H     H_    0.171771 0.268072 0.820012 0.138405
H10   H     H_    0.107845 0.344175 0.756871 0.107952
C26   C     C_1   0.861479 0.379043 0.624700 -0.178788
C27   C     C_3   0.931223 0.207994 0.791692 0.153028
C28   C     C_3   0.754414 0.309635 0.755881 -0.438827
C29   C     C_3   0.896027 0.293423 0.709119 0.120831
C30   C     C_3   0.851383 0.222725 0.689783 -0.429649
C31   C     C_3   0.870273 0.171961 0.737982 0.921337
C32   C     C_1   0.875066 0.340843 0.662837 0.026467
C33   C     C_1   0.949911 0.160801 0.838271 0.043703
C34   C     C_1   0.962899 0.122094 0.876071 -0.158234
H11   H     H_    0.707843 0.221066 0.672104 0.134050
H12   H     H_    0.638300 0.237242 0.813396 0.191848
H13   H     H_    0.605324 0.308551 0.740430 0.210402
H14   H     H_    0.935987 0.208814 0.653626 0.144571
C35   C     C_3   0.632562 0.710542 0.273803 0.191179
C36   C     C_3   0.287875 0.692377 0.243606 0.877374
C37   C     C_3   0.337567 0.737630 0.194770 -0.467239
H15   H     H_    0.733325 0.745169 0.193397 0.097882
H16   H     H_    0.662542 0.663855 0.251967 0.067350
H17   H     H_    0.413885 0.709355 0.162773 0.128840
H18   H     H_    0.203085 0.754389 0.175008 0.209831
C38   C     C_1   0.474555 0.879311 0.125154 -0.200008
C39   C     C_3   0.417117 0.709807 0.293893 -0.119531
C40   C     C_3   0.665479 0.767747 0.229791 0.247301
C41   C     C_3   0.464756 0.796179 0.212470 -0.153770
C42   C     C_3   0.382717 0.829100 0.264823 0.507411
C43   C     C_3   0.369960 0.780166 0.313888 0.298754
C44   C     C_1   0.468617 0.841986 0.164232 0.036036
C45   C     C_1   0.380223 0.661769 0.339316 0.107340
C46   C     C_1   0.354343 0.622722 0.376421 -0.224313
H19   H     H_    0.482854 0.793145 0.344723 0.023959
H20   H     H_    0.474234 0.870453 0.278002 0.026932
C47   C     C_R   0.481970 0.162566 0.088291 -0.113450
C48   C     C_R   0.344512 0.338181 0.411108 -0.043463
C49   C     C_R   0.630629 0.268702 0.101325 0.405658
C50   C     C_R   0.592016 0.214435 0.068649 -0.248522
C51   C     C_R   0.406832 0.165552 0.141566 -0.238130
C52   C     C_R   0.444166 0.220133 0.176400 0.067673
C53   C     C_R   0.553355 0.272652 0.154519 0.033615
C54   C     C_R   0.384497 0.223319 0.232734 -0.008250
C55   C     C_R   0.428891 0.279825 0.265255 0.061108
C56   C     C_R   0.529771 0.331506 0.240315 -0.177048
C57   C     C_R   0.590719 0.327776 0.186476 -0.181700
C58   C     C_R   0.286703 0.171128 0.258081 -0.267098
C59   C     C_R   0.236644 0.172971 0.313068 0.597744
C60   C     C_R   0.278633 0.227605 0.345207 0.005708
C61   C     C_R   0.373400 0.282404 0.321890 0.009445
C62   C     C_R   0.223475 0.228195 0.400508 -0.097218
C63   C     C_R   0.254687 0.283010 0.432825 -0.188859
C64   C     C_R   0.405533 0.337758 0.356247 -0.175564
H21   H     H_    0.671254 0.368609 0.170101 0.166628
H22   H     H_    0.468657 0.382326 0.341209 0.093273
H23   H     H_    0.204018 0.283028 0.474734 0.109724
H24   H     H_    0.655084 0.211717 0.028238 0.126459
H25   H     H_    0.327747 0.123386 0.155131 0.120156
H26   H     H_    0.568866 0.375431 0.261743 0.119583
H27   H     H_    0.248292 0.127152 0.236645 0.157990
H28   H     H_    0.151382 0.186639 0.418728 0.175991
O11   O     O_R   0.323590 0.942280 0.056590 -0.537706
O12   O     O_R   0.647030 0.077140 0.045940 -0.543034
O13   O     O_R   0.813570 0.057750 0.943430 -0.533435
C65   C     C_R   0.479588 0.101323 0.056319 0.713191
O14   O     O_R   0.653510 0.943950 0.062820 -0.543951
O15   O     O_R   0.820100 0.923600 0.960440 -0.536798
C66   C     C_R   0.484771 0.924038 0.078713 0.717918
O16   O     O_R   0.317060 0.076430 0.039590 -0.541628
O17   O     O_3   0.483830 0.993520 0.966410 -0.359622
V3    V     V_3+5 0.760140 0.001200 0.006230 1.430969
O18   O     O_R   0.149560 0.922820 0.954030 -0.531602
C67   C     C_R   0.980537 0.899271 0.943274 0.831036
O19   O     O_R   0.143080 0.056020 0.937150 -0.533774
C68   C     C_R   0.974125 0.076200 0.921522 0.748820
V4    V     V_3+5 0.259690 0.998730 0.993720 1.463211
O20   O     O_3   0.986120 0.006480 0.033580 -0.382986
F1    F     F_    0.655966 0.826181 0.568098 -0.663780
O21   O     O_3   0.246944 0.301779 0.695196 -0.554366
C69   C     C_3   0.317645 0.241821 0.675846 0.093278
H29   H     H_    0.216388 0.201192 0.676547 0.168712
H30   H     H_    0.434798 0.226002 0.702925 0.147611
C70   C     C_3   0.385139 0.250746 0.617086 -0.734185
H31   H     H_    0.494002 0.290168 0.614965 0.230872
H32   H     H_    0.448342 0.204540 0.602029 0.177929
H33   H     H_    0.262319 0.264094 0.590244 0.220207
O22   O     O_3   0.691627 0.140466 0.747191 -0.583389
C71   C     C_3   0.664791 0.086452 0.712076 0.088383
H34   H     H_    0.762361 0.046055 0.724244 0.203975
H35   H     H_    0.689342 0.100264 0.668481 0.119345
C72   C     C_3   0.461424 0.061325 0.717390 -0.670069
H36   H     H_    0.359870 0.098983 0.702667 0.245733
H37   H     H_    0.442391 0.016698 0.692204 0.202216
H38   H     H_    0.430302 0.049267 0.760898 0.253100
F2    F     F_    0.011753 0.126719 0.725664 -0.764170
O23   O     O_3   0.044655 0.616598 0.657804 -0.568253
C73   C     C_3   0.235989 0.637378 0.651765 0.106089
H39   H     H_    0.266459 0.681431 0.677056 0.129415
H40   H     H_    0.267759 0.648519 0.607956 0.133551
C74   C     C_3   0.369199 0.583163 0.670864 -0.659322
H41   H     H_    0.343859 0.538424 0.646273 0.232542
H42   H     H_    0.519999 0.598847 0.665770 0.173293
H43   H     H_    0.343864 0.571935 0.714840 0.213238
F3    F     F_    0.098451 0.703427 0.257028 -0.650828
O24   O     O_3   0.318805 0.625848 0.229363 -0.595178
C75   C     C_3   0.163521 0.599465 0.199324 0.123775
H44   H     H_    0.122030 0.631510 0.164201 0.135158
H45   H     H_    0.038515 0.592161 0.226619 0.154070
C76   C     C_3   0.220514 0.533242 0.176752 -0.738458
H46   H     H_    0.259887 0.499690 0.210935 0.222292
H47   H     H_    0.099133 0.511726 0.153449 0.186700
H48   H     H_    0.344388 0.538808 0.148910 0.234799
O25   O     O_3   0.185596 0.782326 0.337983 -0.468964
C77   C     C_3   0.177550 0.831499 0.378535 0.192406
H49   H     H_    0.255854 0.876656 0.366178 0.110014
H50   H     H_    0.240010 0.812548 0.417533 0.089469
C78   C     C_3   0.970632 0.850518 0.388302 -0.551441
H51   H     H_    0.886342 0.807691 0.402045 0.223520
H52   H     H_    0.964230 0.888617 0.420494 0.153542
H53   H     H_    0.906393 0.870315 0.349963 0.244509
O26   O     O_3   0.759803 0.718635 0.319207 -0.483775
C79   C     C_3   0.817232 0.658203 0.342995 0.262525
H54   H     H_    0.958998 0.643856 0.327579 0.183531
H55   H     H_    0.719944 0.616619 0.333917 0.049469
C80   C     C_3   0.832695 0.665908 0.404932 -0.720629
H56   H     H_    0.702224 0.689512 0.421068 0.201772
H57   H     H_    0.848436 0.617367 0.424656 0.201749
H58   H     H_    0.959406 0.696005 0.415671 0.218081
O27   O     O_3   0.796223 0.814651 0.252524 -0.484306
C81   C     C_3   0.822445 0.873594 0.222008 0.281604
H59   H     H_    0.916846 0.906017 0.246276 0.192954
H60   H     H_    0.692770 0.903910 0.219902 0.038046
C82   C     C_3   0.912410 0.864888 0.165132 -0.671136
H61   H     H_    0.837498 0.828027 0.139836 0.177870
H62   H     H_    0.908008 0.912299 0.142922 0.176873
H63   H     H_    0.063244 0.850685 0.168138 0.261681
F4    F     F_    0.207368 0.855493 0.253924 -0.665406
F5    F     F_    0.144563 0.120558 0.334905 -0.686962
O28   O     O_3   0.748516 0.317532 0.081356 -0.555223
C83   C     C_3   0.940305 0.298717 0.090612 0.074370
H64   H     H_    0.977469 0.255797 0.064926 0.124405
H65   H     H_    0.966834 0.286484 0.134666 0.124416
C84   C     C_3   0.072129 0.354903 0.075224 -0.661601
H66   H     H_    0.040029 0.398265 0.100726 0.217819
H67   H     H_    0.223067 0.340430 0.082371 0.187105
H68   H     H_    0.052498 0.367769 0.031235 0.228961
O29   O     O_3   0.723769 0.893063 0.652653 -0.520395
C85   C     C_3   0.880132 0.933284 0.638339 0.153565
H69   H     H_    0.001025 0.904925 0.620744 0.123790
H70   H     H_    0.932203 0.960114 0.675094 0.123644
C86   C     C_3   0.815871 0.982444 0.595045 -0.636853
H71   H     H_    0.685782 0.008277 0.608752 0.207536
H72   H     H_    0.931107 0.018711 0.587664 0.167394
H73   H     H_    0.782861 0.956888 0.556018 0.253995
F6    F     F_    0.996402 0.663897 0.933469 -0.677088
F7    F     F_    0.971272 0.902536 0.829016 -0.712156

loop_
_geom_bond_atom_site_label_1
_geom_bond_atom_site_label_2
_ccdc_geom_bond_type
C35   C40   S    
C13   C19   A    
C74   H43   S    
C86   H72   S    
C55   C56   A    
C27   C31   S    
O29   C85   S    
C35   O26   S    
C24   C25   S    
C4    C6    S    
O2    C1    A    
C7    C8    A    
C73   C74   S    
C1    O6    A    
C71   C72   S    
C21   H2    S    
C72   H38   S    
C49   C50   A    
C69   H29   S    
O13   V3    S    
C81   H59   S    
O27   C81   S    
C26   C32   T    
C14   C15   A    
C79   H54   S    
O12   V3    S    
C28   H13   S    
C9    C10   A    
C16   C17   A    
C73   H40   S    
O19   V4    S    
O5    C3    A    
C18   C19   A    
C63   H23   S    
C33   C34   T    
C69   H30   S    
C86   H73   S    
C38   C44   T    
C74   H41   S    
C55   C61   A    
C22   O23   S    
C5    C8    A    
C40   O27   S    
O28   C83   S    
C42   H20   S    
C30   H14   S    
C41   C44   S    
O17   V4    S    
O8    V2    S    
C77   H49   S    
C64   H22   S    
C24   H9    S    
C12   C13   A    
C39   C43   S    
C40   C41   S    
O1    V2    S    
H15   C40   S    
C48   C64   A    
O7    V1    S    
O15   V3    S    
O13   C68   A    
C3    C26   S    
C25   C29   S    
C25   H10   S    
C56   C57   A    
C80   H57   S    
C86   H71   S    
O11   C66   A    
C37   H17   S    
C62   H28   S    
C77   H50   S    
C36   O24   S    
O9    C4    A    
C75   H45   S    
C50   H24   S    
C49   O28   S    
C9    F7    S    
C24   C27   S    
C81   H60   S    
O23   C73   S    
C37   H18   S    
C23   H12   S    
V2    O10   S    
C29   C30   S    
C18   C20   A    
C78   H53   S    
C80   H56   S    
C52   C53   A    
C54   C58   A    
C83   C84   S    
C59   C60   A    
O4    C2    A    
C53   C57   A    
C54   C55   A    
C14   H4    S    
C69   C70   S    
C72   H37   S    
O6    V2    S    
C70   H33   S    
C15   H1    S    
C13   C14   A    
C27   C33   S    
C5    C9    A    
C85   H69   S    
C36   C39   S    
C57   H21   S    
C38   C66   S    
O25   C77   S    
C7    C11   A    
C45   C46   T    
C85   H70   S    
C83   H64   S    
C17   C18   A    
C35   H16   S    
C47   C50   A    
C51   C52   A    
C76   H48   S    
C23   H7    S    
V4    O20   S    
C36   C37   S    
C60   C62   A    
C28   C29   S    
C19   C22   A    
C73   H39   S    
C48   C63   A    
C6    C22   A    
C23   C27   S    
O3    C4    A    
O14   V3    S    
C82   H61   S    
C76   H47   S    
C61   C64   A    
C11   C15   A    
C36   F3    S    
O9    V2    S    
C10   C12   A    
C75   C76   S    
C42   F4    S    
C84   H67   S    
C71   H34   S    
O2    V1    S    
O15   C67   A    
C30   C31   S    
C25   O21   S    
O17   V3    S    
C81   C82   S    
C35   C39   S    
C74   H42   S    
O26   C79   S    
C7    F6    S    
C70   H32   S    
C51   H25   S    
O1    C2    A    
C34   C68   S    
C20   F1    S    
C12   C16   A    
C37   C41   S    
C42   C43   S    
C71   H35   S    
O5    V1    S    
O16   V4    S    
C56   H26   S    
O8    C3    A    
H6    C28   S    
O21   C69   S    
C72   H36   S    
C77   C78   S    
O18   V4    S    
C79   C80   S    
C16   H5    S    
C29   C32   S    
C20   C21   A    
C82   H63   S    
C84   H68   S    
C83   H65   S    
O22   C71   S    
O7    V2    S    
C85   C86   S    
O4    V1    S    
O3    V1    S    
V1    O10   S    
C75   H44   S    
C78   H51   S    
C47   C51   A    
C8    H3    S    
C58   C59   A    
O12   C65   A    
C70   H31   S    
C23   C28   S    
O14   C66   A    
C43   O25   S    
C82   H62   S    
C60   C61   A    
C47   C65   S    
C39   C45   S    
O24   C75   S    
C62   C63   A    
C6    C21   A    
C49   C53   A    
C58   H27   S    
C1    C46   S    
C30   H11   S    
C59   F5    S    
C65   O16   A    
C41   C42   S    
C76   H46   S    
C43   H19   S    
C79   H55   S    
C17   O29   S    
C24   H8    S    
C10   C11   A    
O11   V4    S    
C31   O22   S    
C80   H58   S    
C31   F2    S    
C84   H66   S    
O19   C68   A    
V3    O20   S    
O18   C67   A    
C5    C67   S    
C78   H52   S    
C2    C48   S    
C52   C54   A    
