data_mof_unit_12769.cif
_audit_creation_date              2012-12-11T14:49:40-0500
_audit_creation_method            fapswitch 2.2
_symmetry_space_group_name_H-M    P1
_symmetry_Int_Tables_number       1
_space_group_crystal_system       triclinic
_cell_length_a                    16.784888
_cell_length_b                    7.017231
_cell_length_c                    16.93235
_cell_angle_alpha                 90.000421
_cell_angle_beta                  100.623725
_cell_angle_gamma                 89.999859
_cell_volume                      1960.165398

loop_
_atom_site_label
_atom_site_type_symbol
_atom_type_description
_atom_site_fract_x
_atom_site_fract_y
_atom_site_fract_z
_atom_type_partial_charge
O1    O     O_R   0.579510 0.506290 0.439030 -0.538092
O2    O     O_R   0.420490 0.006290 0.560970 -0.538093
O3    O     O_R   0.412540 0.170090 0.405290 -0.551988
O4    O     O_R   0.587460 0.670090 0.594710 -0.551992
C1    C     C_R   0.385359 0.345488 0.381987 0.688845
C2    C     C_R   0.614641 0.845488 0.618013 0.688854
O5    O     O_R   0.578390 0.176230 0.429330 -0.533540
O6    O     O_R   0.421610 0.676230 0.570670 -0.533546
O7    O     O_R   0.587530 0.011250 0.585190 -0.522039
O8    O     O_R   0.412470 0.511250 0.414810 -0.522041
C3    C     C_R   0.605217 0.346207 0.414029 0.694865
C4    C     C_R   0.394783 0.846208 0.585971 0.694865
O9    O     O_3   0.502800 0.340940 0.551110 -0.370901
O10   O     O_3   0.497200 0.840940 0.448890 -0.370898
V1    V     V_3+5 0.499480 0.064020 0.490520 1.407120
V2    V     V_3+5 0.500520 0.564020 0.509480 1.407109
C5    C     C_R   0.170519 0.901994 0.864895 -0.156303
C6    C     C_R   0.829481 0.401998 0.135105 -0.156303
C7    C     C_R   0.331170 0.865523 0.636154 -0.058199
C8    C     C_R   0.668830 0.365518 0.363846 -0.058186
C9    C     C_R   0.211557 0.033145 0.662918 -0.134072
C10   C     C_R   0.788456 0.533098 0.337093 -0.134076
C11   C     C_R   0.267665 0.996160 0.613189 -0.161172
C12   C     C_R   0.732346 0.496120 0.386820 -0.161177
C13   C     C_R   0.338133 0.773666 0.710798 -0.217484
C14   C     C_R   0.661857 0.273693 0.289195 -0.217481
C15   C     C_R   0.284810 0.819181 0.764308 0.021338
C16   C     C_R   0.715184 0.319203 0.235687 0.021335
C17   C     C_R   0.219574 0.946975 0.738728 0.121566
C18   C     C_R   0.780430 0.446961 0.261276 0.121565
C19   C     C_R   0.163056 0.986803 0.788845 -0.313302
C20   C     C_R   0.836950 0.486784 0.211160 -0.313314
C21   C     C_R   0.238053 0.783165 0.892389 0.276694
C22   C     C_R   0.761942 0.283192 0.107607 0.276678
C23   C     C_R   0.295120 0.742212 0.843043 0.279994
C24   C     C_R   0.704868 0.242259 0.156948 0.280007
H1    H     H_    0.111791 0.079226 0.767692 0.134404
H2    H     H_    0.888222 0.579184 0.232318 0.134399
H3    H     H_    0.162702 0.132694 0.642664 0.107955
H4    H     H_    0.837320 0.632615 0.357353 0.107955
H5    H     H_    0.261572 0.070681 0.556343 0.099703
H6    H     H_    0.738445 0.570617 0.443671 0.099696
H7    H     H_    0.386831 0.672080 0.727107 0.123695
H8    H     H_    0.613151 0.172131 0.272879 0.123682
C25   C     C_3   0.772394 0.699464 0.811007 0.198847
C26   C     C_3   0.227601 0.199459 0.188997 0.198847
H9    H     H_    0.750114 0.687874 0.868527 0.130049
H10   H     H_    0.249883 0.187859 0.131478 0.130055
C27   C     C_3   0.699772 0.675169 0.739650 0.096649
C28   C     C_3   0.300222 0.175163 0.260355 0.096658
H11   H     H_    0.717822 0.565631 0.698951 0.075995
H12   H     H_    0.282169 0.065635 0.301056 0.075990
H13   H     H_    0.891158 0.834776 0.723021 0.100821
H14   H     H_    0.108841 0.334795 0.276983 0.100817
H15   H     H_    0.782347 0.763948 0.627422 0.035047
H16   H     H_    0.217651 0.263970 0.372583 0.035049
C29   C     C_3   0.840667 0.933255 0.728602 -0.354162
C30   C     C_3   0.159333 0.433268 0.271399 -0.354158
C31   C     C_3   0.746215 0.051546 0.815589 -0.418893
C32   C     C_3   0.253786 0.551536 0.184410 -0.418894
C33   C     C_3   0.813131 0.902545 0.810439 -0.033530
C34   C     C_3   0.186868 0.402544 0.189562 -0.033532
H17   H     H_    0.771988 0.197295 0.816342 0.212293
H18   H     H_    0.228016 0.697289 0.183653 0.212292
H19   H     H_    0.723294 0.031122 0.872393 0.147194
H20   H     H_    0.276707 0.531098 0.127606 0.147193
C35   C     C_3   0.686195 0.862647 0.688238 -0.002671
C36   C     C_3   0.313803 0.362647 0.311763 -0.002669
C37   C     C_3   0.767752 0.898810 0.656561 0.161593
C38   C     C_3   0.232247 0.398825 0.343440 0.161587
C39   C     C_3   0.674841 0.035070 0.743380 -0.300853
C40   C     C_3   0.325160 0.535063 0.256619 -0.300852
H21   H     H_    0.616559 0.028826 0.764710 0.141077
H22   H     H_    0.383442 0.528816 0.235289 0.141068
H23   H     H_    0.670783 0.169465 0.708355 0.182564
H24   H     H_    0.329217 0.669462 0.291642 0.182569
H25   H     H_    0.867878 0.076898 0.729031 0.165570
H26   H     H_    0.132123 0.576913 0.270967 0.165571
O11   O     O_R   0.087500 0.266000 0.085220 -0.518255
O12   O     O_R   0.912500 0.766000 0.914780 -0.518251
O13   O     O_R   0.921600 0.589950 0.070670 -0.547102
O14   O     O_R   0.078400 0.089950 0.929330 -0.547102
C41   C     C_R   0.894906 0.420608 0.086421 0.753616
C42   C     C_R   0.105094 0.920607 0.913578 0.753598
O15   O     O_R   0.087460 0.596020 0.094710 -0.534422
O16   O     O_R   0.912540 0.096020 0.905290 -0.534421
O17   O     O_R   0.079520 0.760970 0.939020 -0.524640
O18   O     O_R   0.920480 0.260970 0.060980 -0.524643
C43   C     C_R   0.115875 0.425062 0.118391 0.698444
C44   C     C_R   0.884124 0.925062 0.881610 0.698441
O19   O     O_3   0.997180 0.425140 0.948910 -0.361960
O20   O     O_3   0.002820 0.925140 0.051090 -0.361964
V3    V     V_3+5 0.000520 0.702080 0.009480 1.478458
V4    V     V_3+5 0.999480 0.202080 0.990520 1.478457
N1    N     N_2   0.757920 0.044415 0.593339 -0.493944
H27   H     H_    0.756591 0.993908 0.535870 0.244580
C45   C     C_3   0.789273 0.236177 0.606953 -0.536753
H28   H     H_    0.854884 0.238448 0.604342 0.182019
H29   H     H_    0.779641 0.291992 0.665486 0.193909
H30   H     H_    0.756943 0.331506 0.559342 0.177765
N2    N     N_2   0.242084 0.544439 0.406660 -0.493941
H31   H     H_    0.243424 0.493938 0.464131 0.244578
C46   C     C_3   0.210724 0.736195 0.393047 -0.536750
H32   H     H_    0.145114 0.738454 0.395663 0.182022
H33   H     H_    0.220350 0.792008 0.334511 0.193914
H34   H     H_    0.243055 0.831536 0.440655 0.177760
N3    N     N_2   0.252065 0.716116 0.973084 -0.516204
H35   H     H_    0.281508 0.586913 0.983007 0.277669
C47   C     C_3   0.280854 0.859579 0.033218 -0.534550
H36   H     H_    0.338440 0.812695 0.071695 0.203454
H37   H     H_    0.234403 0.880484 0.070978 0.226196
H38   H     H_    0.291972 0.999341 0.006088 0.187003
N4    N     N_2   0.747930 0.216146 0.026912 -0.516210
H39   H     H_    0.718501 0.086928 0.016993 0.277656
C48   C     C_3   0.719119 0.359594 0.966780 -0.534525
H40   H     H_    0.661526 0.312696 0.928323 0.203458
H41   H     H_    0.765552 0.380495 0.929002 0.226193
H42   H     H_    0.708008 0.499360 0.993911 0.187004
O21   O     O_3   0.361083 0.631085 0.874986 -0.649655
H43   H     H_    0.409299 0.681676 0.856161 0.281911
O22   O     O_3   0.638894 0.131182 0.124995 -0.649651
H44   H     H_    0.590685 0.181787 0.143827 0.281912
O23   O     O_3   0.828283 0.549238 0.810983 -0.653826
H45   H     H_    0.848684 0.552290 0.759705 0.268499
O24   O     O_3   0.171710 0.049238 0.189022 -0.653828
H46   H     H_    0.151306 0.052302 0.240299 0.268500
N5    N     N_2   0.628143 0.594643 0.765356 -0.521670
H47   H     H_    0.593735 0.502292 0.725600 0.271494
C49   C     C_3   0.582782 0.696082 0.816884 -0.568040
H48   H     H_    0.552780 0.590844 0.850610 0.204865
H49   H     H_    0.534748 0.783426 0.779919 0.177064
H50   H     H_    0.622293 0.785962 0.861534 0.197423
N6    N     N_2   0.371849 0.094619 0.234650 -0.521667
H51   H     H_    0.406250 0.002253 0.274405 0.271493
C50   C     C_3   0.417219 0.196054 0.183131 -0.568038
H52   H     H_    0.447231 0.090813 0.149415 0.204869
H53   H     H_    0.465245 0.283406 0.220101 0.177058
H54   H     H_    0.377713 0.285924 0.138473 0.197424

loop_
_geom_bond_atom_site_label_1
_geom_bond_atom_site_label_2
_ccdc_geom_bond_type
C30   C34   S    
C50   H54   S    
C18   C20   A    
N2    H31   S    
O14   V4    S    
C15   C17   A    
C12   H6    S    
C26   O24   S    
C23   O21   S    
N1    H27   S    
O1    C3    A    
C42   O17   A    
C40   H24   S    
O2    C4    A    
C13   H7    S    
C2    O7    A    
C45   H28   S    
C38   N2    S    
C14   H8    S    
C50   H52   S    
C25   O23   S    
C22   N4    S    
O5    C3    A    
C26   C34   S    
C49   H48   S    
C47   H37   S    
C32   C40   S    
C48   H40   S    
C34   C43   S    
C32   C34   S    
C27   H11   S    
O16   V4    S    
C45   H29   S    
O15   V3    S    
C8    C12   A    
C48   H41   S    
C21   N3    S    
C28   H12   S    
N3    H35   S    
C20   H2    S    
C27   C35   S    
C22   C24   A    
C36   C40   S    
C49   H50   S    
O5    V1    S    
C41   O18   A    
C32   H20   S    
O6    V2    S    
N3    C47   S    
C5    C21   A    
C1    C36   S    
O13   C41   A    
C26   H10   S    
C25   H9    S    
C27   N5    S    
O18   V4    S    
C3    C8    S    
C31   C33   S    
C29   H25   S    
O23   H45   S    
O11   V4    S    
C40   H22   S    
O16   C44   A    
C47   H38   S    
C39   H21   S    
O15   C43   A    
C30   C38   S    
C15   C23   A    
C9    C17   A    
C19   H1    S    
N4    C48   S    
C35   C37   S    
O4    V2    S    
C7    C11   A    
N5    C49   S    
O19   V3    S    
O13   V3    S    
C9    H3    S    
C25   C27   S    
O6    C4    A    
C48   H42   S    
C10   H4    S    
O20   V4    S    
C6    C41   S    
C46   H33   S    
O1    V2    S    
O2    V1    S    
C6    C22   A    
O22   H44   S    
H15   C37   S    
O4    C2    A    
C2    C35   S    
H16   C38   S    
C9    C11   A    
O24   H46   S    
C5    C19   A    
C10   C12   A    
C31   H17   S    
C6    C20   A    
N5    H47   S    
O3    C1    A    
C45   H30   S    
O3    V1    S    
C33   C44   S    
N4    H39   S    
H14   C30   S    
C50   H53   S    
H13   C29   S    
C10   C18   A    
C14   C16   A    
C37   N1    S    
C28   N6    S    
O21   H43   S    
N1    C45   S    
C29   C33   S    
C13   C15   A    
C26   C28   S    
O14   C42   A    
C11   H5    S    
C32   H18   S    
C5    C42   S    
C16   C18   A    
C24   O22   S    
O7    V1    S    
C1    O8    A    
C17   C19   A    
O8    V2    S    
C47   H36   S    
C31   H19   S    
O19   V4    S    
C39   H23   S    
N6    H51   S    
C8    C14   A    
O17   V3    S    
C4    C7    S    
C25   C33   S    
O20   V3    S    
C21   C23   A    
C46   H34   S    
C35   C39   S    
O12   C44   A    
C7    C13   A    
O11   C43   A    
C30   H26   S    
C16   C24   A    
N2    C46   S    
O9    V2    S    
C46   H32   S    
N6    C50   S    
C36   C38   S    
O10   V1    S    
C29   C37   S    
O12   V3    S    
C28   C36   S    
C31   C39   S    
C49   H49   S    
