data_mof_unit_60781.cif
_audit_creation_date              2013-03-05T16:01:03-0500
_audit_creation_method            fapswitch 2.2
_symmetry_space_group_name_H-M    P1
_symmetry_Int_Tables_number       1
_space_group_crystal_system       triclinic
_cell_length_a                    18.47485
_cell_length_b                    19.113518
_cell_length_c                    18.535459
_cell_angle_alpha                 109.987261
_cell_angle_beta                  108.677619
_cell_angle_gamma                 109.680993
_cell_volume                      5042.19162914

loop_
_atom_site_label
_atom_site_type_symbol
_atom_site_description
_atom_site_fract_x
_atom_site_fract_y
_atom_site_fract_z
_atom_type_partial_charge
O1    O     O_R   0.591120 0.552750 0.643890 -0.566230
O2    O     O_R   0.408880 0.447250 0.356110 -0.569792
O3    O     O_R   0.591210 0.447270 0.538420 -0.595899
O4    O     O_R   0.408790 0.552730 0.461580 -0.588063
C1    C     C_R   0.620552 0.500933 0.620187 0.772117
C2    C     C_R   0.378895 0.498452 0.379723 0.776376
O5    O     O_R   0.408810 0.461590 0.552740 -0.551380
O6    O     O_R   0.591190 0.538410 0.447260 -0.552030
O7    O     O_R   0.408900 0.356100 0.447280 -0.592454
O8    O     O_R   0.591100 0.643900 0.552720 -0.589797
C3    C     C_R   0.382383 0.381412 0.503185 0.803125
C4    C     C_R   0.617737 0.618666 0.496978 0.805729
Cu1   Cu    Cu3+1 0.499950 0.562450 0.562440 1.052044
Cu2   Cu    Cu3+1 0.500050 0.437550 0.437560 1.035196
H1    H     H_    0.121617 0.399562 0.815892 0.206643
H2    H     H_    0.873060 0.604306 0.176896 0.227199
C5    C     C_3   0.051499 0.349787 0.766130 -0.344850
C6    C     C_3   0.943270 0.650202 0.229201 -0.328873
C7    C     C_3   0.907553 0.241641 0.738457 -0.349198
C8    C     C_3   0.093643 0.755738 0.264985 -0.315640
H3    H     H_    0.116338 0.293236 0.705054 0.162425
H4    H     H_    0.880418 0.709310 0.290816 0.166040
C9    C     C_3   0.003078 0.190463 0.691097 0.018016
C10   C     C_3   0.998444 0.810648 0.309379 0.008733
H5    H     H_    0.011322 0.269578 0.627929 0.196937
H6    H     H_    0.982434 0.727476 0.367670 0.203753
C11   C     C_3   0.048154 0.276329 0.692887 -0.464556
C12   C     C_3   0.948338 0.723798 0.303784 -0.468385
C13   C     C_3   0.294830 0.351165 0.582139 0.185747
C14   C     C_3   0.704476 0.649353 0.417645 0.183984
H7    H     H_    0.261573 0.386850 0.565252 0.107716
H8    H     H_    0.737467 0.613160 0.433585 0.108310
C15   C     C_3   0.225955 0.275681 0.581839 -0.346277
C16   C     C_3   0.773251 0.724897 0.418020 -0.349064
H9    H     H_    0.168222 0.285407 0.573082 0.082763
H10   H     H_    0.830636 0.714752 0.425822 0.084869
H11   H     H_    0.209266 0.311655 0.405891 0.145226
H12   H     H_    0.791122 0.687588 0.593276 0.144963
H13   H     H_    0.111028 0.225744 0.426163 0.136956
H14   H     H_    0.889315 0.774090 0.573315 0.137800
C17   C     C_3   0.228950 0.265618 0.417117 -0.509622
C18   C     C_3   0.771658 0.734054 0.582959 -0.510642
C19   C     C_3   0.346060 0.249575 0.513263 -0.397970
C20   C     C_3   0.654715 0.751492 0.488549 -0.398125
C21   C     C_3   0.315199 0.314228 0.505950 -0.083790
C22   C     C_3   0.685015 0.686115 0.494532 -0.083219
H15   H     H_    0.362807 0.226852 0.460213 0.172746
H16   H     H_    0.638479 0.774025 0.542054 0.175684
H17   H     H_    0.410534 0.283766 0.573799 0.236368
H18   H     H_    0.590073 0.717985 0.428422 0.231260
C23   C     C_3   0.192506 0.186890 0.500063 -0.176163
C24   C     C_3   0.807684 0.813581 0.500549 -0.176426
C25   C     C_3   0.153873 0.197904 0.417138 0.128936
C26   C     C_3   0.846704 0.802016 0.583021 0.129151
C27   C     C_3   0.274046 0.171661 0.506831 0.208109
C28   C     C_3   0.726884 0.829583 0.495336 0.210733
H19   H     H_    0.241260 0.236277 0.362587 0.249393
H20   H     H_    0.759860 0.763136 0.637991 0.249901
C29   C     C_3   0.772422 0.589867 0.748186 -0.377911
C30   C     C_3   0.271211 0.422999 0.217396 -0.323333
H21   H     H_    0.757336 0.640350 0.778808 0.222482
H22   H     H_    0.323970 0.424994 0.200053 0.230952
H23   H     H_    0.799568 0.606439 0.706954 0.165635
H24   H     H_    0.240450 0.361063 0.215884 0.187524
C31   C     C_3   0.841745 0.589613 0.821237 -0.389808
C32   C     C_3   0.201181 0.426480 0.148201 -0.435549
H25   H     H_    0.902433 0.608017 0.814994 0.202245
H26   H     H_    0.136976 0.365992 0.114335 0.188501
H27   H     H_    0.860914 0.640156 0.887098 0.219747
H28   H     H_    0.216684 0.425825 0.095054 0.220807
H29   H     H_    0.632514 0.528479 0.776670 0.237278
H30   H     H_    0.406428 0.583831 0.292198 0.217070
C33   C     C_3   0.651092 0.480386 0.748899 -0.375189
C34   C     C_3   0.354958 0.583952 0.310972 -0.422812
C35   C     C_3   0.711373 0.431546 0.648680 -0.356534
C36   C     C_3   0.236011 0.495935 0.332991 -0.400173
C37   C     C_3   0.687903 0.500603 0.690019 -0.002266
C38   C     C_3   0.311061 0.499525 0.311063 0.014027
H31   H     H_    0.650613 0.366873 0.608640 0.207692
H32   H     H_    0.263642 0.553582 0.397840 0.220288
H33   H     H_    0.733890 0.442977 0.602695 0.175869
H34   H     H_    0.208499 0.438504 0.339856 0.151139
C39   C     C_3   0.806531 0.499044 0.813602 -0.084679
C40   C     C_3   0.191649 0.505728 0.192997 -0.077912
C41   C     C_3   0.718963 0.476369 0.822611 0.550437
C42   C     C_3   0.284985 0.593096 0.245776 0.560831
C43   C     C_3   0.785600 0.434697 0.720488 -0.246369
C44   C     C_3   0.161529 0.491124 0.259486 -0.210999
H35   H     H_    0.845878 0.458493 0.714101 0.139336
H36   H     H_    0.103492 0.425173 0.223617 0.169257
H37   H     H_    0.586461 0.419719 0.706046 0.204795
H38   H     H_    0.393634 0.639601 0.379157 0.204302
H39   H     H_    0.868669 0.214584 0.766850 0.224521
H40   H     H_    0.135574 0.783081 0.239148 0.232521
H41   H     H_    0.871789 0.107865 0.666396 0.223491
H42   H     H_    0.133131 0.890653 0.339032 0.223052
H43   H     H_    0.870167 0.159754 0.603305 0.198928
H44   H     H_    0.128003 0.836085 0.399489 0.210052
H45   H     H_    0.875082 0.269393 0.705039 0.172216
H46   H     H_    0.123446 0.725716 0.297493 0.227697
H47   H     H_    0.020155 0.381037 0.736910 0.173356
H48   H     H_    0.968269 0.614152 0.255912 0.199083
C45   C     C_3   0.002962 0.313821 0.811127 0.067474
C46   C     C_3   0.998113 0.686972 0.189223 0.023524
O9    O     O_R   0.052750 0.091090 0.643890 -0.546457
O10   O     O_R   0.947250 0.908910 0.356110 -0.549415
O11   O     O_R   0.947230 0.091150 0.538450 -0.584114
O12   O     O_R   0.052770 0.908850 0.461550 -0.582418
C47   C     C_R   0.000903 0.120388 0.620722 0.740633
C48   C     C_R   0.999928 0.880334 0.379384 0.747509
O13   O     O_R   0.143910 0.091120 0.552710 -0.541483
O14   O     O_R   0.856090 0.908880 0.447290 -0.541121
O15   O     O_R   0.038380 0.091180 0.447270 -0.548512
O16   O     O_R   0.961620 0.908820 0.552730 -0.546890
C49   C     C_R   0.120770 0.116943 0.497355 0.757939
C50   C     C_R   0.879280 0.883304 0.502904 0.759308
Cu3   Cu    Cu3+1 0.062480 0.999960 0.562430 1.136467
Cu4   Cu    Cu3+1 0.937520 0.000040 0.437570 1.131094
O17   O     O_R   0.052740 0.643910 0.091070 -0.567468
O18   O     O_R   0.947260 0.356090 0.908930 -0.579277
O19   O     O_R   0.947240 0.538460 0.091150 -0.562057
O20   O     O_R   0.052760 0.461540 0.908850 -0.586388
C51   C     C_R   0.999911 0.619153 0.120802 0.810404
C52   C     C_R   0.000164 0.380981 0.879174 0.745800
O21   O     O_R   0.961590 0.552710 0.908800 -0.603120
O22   O     O_R   0.038410 0.447290 0.091200 -0.603123
O23   O     O_R   0.856080 0.447270 0.908890 -0.516720
O24   O     O_R   0.143920 0.552730 0.091110 -0.513524
C53   C     C_R   0.878982 0.501680 0.882722 0.774530
C54   C     C_R   0.120705 0.502852 0.122233 0.775816
Cu5   Cu    Cu3+1 0.062470 0.562430 0.999950 1.074348
Cu6   Cu    Cu3+1 0.937530 0.437570 0.000050 1.080506
C55   C     C_3   0.907495 0.168919 0.669457 -0.330234
C56   C     C_3   0.094030 0.829201 0.333795 -0.339003
C57   C     C_3   0.056550 0.206344 0.785968 0.206472
C58   C     C_3   0.949737 0.798452 0.215483 0.197165
H49   H     H_    0.127202 0.232499 0.802772 0.131172
H50   H     H_    0.878271 0.772071 0.195495 0.146964
C59   C     C_3   0.051444 0.275477 0.855037 -0.421497
C60   C     C_3   0.957415 0.731334 0.147457 -0.409927
H51   H     H_    0.016993 0.248201 0.886480 0.216369
H52   H     H_    0.998208 0.761238 0.122040 0.218521
H53   H     H_    0.119485 0.327339 0.908943 0.147672
H54   H     H_    0.890892 0.683725 0.089833 0.219488
N1    N     N_R   0.312245 0.160069 0.582882 0.139236
O25   O     O_R   0.379448 0.224418 0.658335 -0.254787
O26   O     O_R   0.288498 0.083076 0.571808 -0.317562
N2    N     N_R   0.688642 0.842363 0.420255 0.137562
O27   O     O_R   0.620838 0.778729 0.344779 -0.264541
O28   O     O_R   0.713339 0.919774 0.432322 -0.323841
C61   C     C_1   0.247517 0.093989 0.426537 0.324444
N3    N     N_1   0.230405 0.034433 0.364995 -0.176496
C62   C     C_1   0.754468 0.906907 0.576639 0.322164
N4    N     N_1   0.772597 0.966132 0.639188 -0.182258
N5    N     N_R   0.097173 0.117424 0.331060 0.158705
O29   O     O_R   0.012191 0.086625 0.293941 -0.265034
O30   O     O_R   0.129197 0.091856 0.280815 -0.287212
N6    N     N_R   0.903843 0.882372 0.669383 0.157395
O31   O     O_R   0.988917 0.913961 0.705458 -0.264104
O32   O     O_R   0.872584 0.907491 0.720640 -0.288694
N7    N     N_R   0.742175 0.540777 0.911366 0.104226
O33   O     O_R   0.734426 0.608688 0.924372 -0.362902
O34   O     O_R   0.781858 0.536651 0.980494 -0.349150
N8    N     N_R   0.316826 0.609717 0.186019 0.133466
O35   O     O_R   0.335742 0.557433 0.139919 -0.344992
O36   O     O_R   0.338750 0.682900 0.187986 -0.229688
C63   C     C_1   0.762425 0.347177 0.705095 0.303641
N9    N     N_1   0.742278 0.278067 0.692350 -0.216260
C64   C     C_1   0.131249 0.549268 0.297364 0.325903
N10   N     N_1   0.107430 0.594480 0.327618 -0.281767
N11   N     N_R   0.676465 0.388284 0.810131 0.136802
O37   O     O_R   0.684200 0.376912 0.876978 -0.228306
O38   O     O_R   0.619132 0.321335 0.731872 -0.335324
N12   N     N_R   0.276355 0.666943 0.294828 0.114937
O39   O     O_R   0.229843 0.691884 0.252079 -0.350778
O40   O     O_R   0.312774 0.707616 0.380459 -0.350893
N13   N     N_R   0.028270 0.127666 0.791471 0.144916
O41   O     O_R   0.084504 0.102173 0.813924 -0.259744
O42   O     O_R   0.952367 0.090073 0.786782 -0.304158
N14   N     N_R   0.980860 0.878786 0.213465 0.146842
O43   O     O_R   0.058102 0.916344 0.220798 -0.304099
O44   O     O_R   0.925489 0.904694 0.189216 -0.245601
N15   N     N_R   0.374596 0.413719 0.669071 0.142359
O45   O     O_R   0.388445 0.491013 0.712100 -0.315278
O46   O     O_R   0.431172 0.393428 0.704950 -0.315501
N16   N     N_R   0.624180 0.587419 0.330966 0.143347
O47   O     O_R   0.609951 0.510177 0.286819 -0.318284
O48   O     O_R   0.567308 0.608110 0.296572 -0.308785
C65   C     C_1   0.255093 0.278133 0.667316 0.451959
N17   N     N_1   0.277167 0.280238 0.734309 -0.177838
C66   C     C_1   0.743391 0.723026 0.332841 0.455363
N18   N     N_1   0.720716 0.721351 0.266064 -0.163916

loop_
_geom_bond_atom_site_label_1
_geom_bond_atom_site_label_2
_geom_bond_distance
_ccdc_geom_bond_type
C39   C43   1.562699 S    
N11   O37   1.301728 A    
N5    O30   1.301034 A    
C41   N7    1.487906 S    
C64   N10   1.156612 T    
C32   H26   1.113976 S    
H43   C55   1.113522 S    
C58   C60   1.545001 S    
C29   C37   1.543159 S    
N7    O33   1.302626 A    
C46   C51   1.490608 S    
H13   C25   1.115943 S    
C57   C59   1.548777 S    
C30   H24   1.113174 S    
N11   O38   1.302910 A    
C30   C38   1.554254 S    
C41   N11   1.493861 S    
C42   N12   1.487088 S    
O1    C1    1.299176 A    
C14   N16   1.474357 S    
C15   C65   1.479250 S    
C16   C66   1.479388 S    
C36   C38   1.551865 S    
C39   C53   1.499227 S    
N15   O46   1.299750 A    
C18   C22   1.547035 S    
C2    C38   1.484676 S    
O22   C54   1.305742 A    
C10   C56   1.551049 S    
C13   C15   1.566582 S    
H41   C55   1.101108 S    
C30   H22   1.113055 S    
C6    H48   1.111002 S    
C34   H38   1.109011 S    
O4    Cu1   1.975131 S    
C5    H47   1.112950 S    
N12   O39   1.300595 A    
O9    C47   1.295268 A    
C18   H20   1.110583 S    
N1    O26   1.304298 A    
O23   Cu6   1.981755 S    
C59   H53   1.113674 S    
C43   C63   1.475143 S    
O14   Cu4   1.988524 S    
N14   O44   1.300985 A    
C31   H25   1.113329 S    
O17   Cu5   1.973612 S    
C61   N3    1.155810 T    
C9    C11   1.553274 S    
C36   C44   1.544873 S    
O11   Cu4   1.977333 S    
C23   C27   1.602859 S    
C7    H39   1.112864 S    
C10   C58   1.572050 S    
C60   H54   1.104918 S    
H3    C11   1.111831 S    
C33   H37   1.109744 S    
C30   C32   1.541682 S    
H4    C12   1.111890 S    
Cu1   Cu2   2.699091 S    
O10   Cu4   1.983146 S    
N16   O48   1.299986 A    
N6    O32   1.301143 A    
O11   C47   1.302581 A    
O9    Cu3   1.983144 S    
O2    C2    1.297626 A    
C7    C45   1.547776 S    
C45   C52   1.490280 S    
N7    O34   1.300705 A    
C24   C26   1.593060 S    
C58   N14   1.465623 S    
N1    O25   1.301368 A    
C24   C50   1.504451 S    
C9    C47   1.494286 S    
C29   H21   1.113077 S    
C14   C16   1.565603 S    
C66   N18   1.157708 T    
C5    C11   1.550149 S    
C40   C44   1.573581 S    
C10   C48   1.493191 S    
N2    O27   1.301454 A    
C57   N13   1.467868 S    
H30   C34   1.112730 S    
C36   H34   1.113819 S    
C63   N9    1.156892 T    
H29   C33   1.109023 S    
C9    C55   1.546747 S    
C19   H17   1.106023 S    
H42   C56   1.102949 S    
C40   C54   1.497449 S    
C20   C22   1.553454 S    
N13   O42   1.300337 A    
C42   N8    1.485188 S    
C23   C49   1.504790 S    
C46   C60   1.545630 S    
C13   C21   1.572283 S    
C23   C25   1.592493 S    
C4    C22   1.485162 S    
C28   N2    1.488111 S    
O5    C3    1.295030 A    
O7    Cu2   1.977904 S    
O23   C53   1.294486 A    
N15   O45   1.301277 A    
C45   C59   1.544319 S    
C26   N6    1.476701 S    
C19   C21   1.552445 S    
O21   Cu5   1.974315 S    
C8    H46   1.110046 S    
O22   Cu6   1.974314 S    
O6    C4    1.296238 A    
C33   C41   1.576135 S    
C6    C12   1.548413 S    
C6    C46   1.557837 S    
C34   C42   1.567823 S    
C35   C37   1.556991 S    
C17   C25   1.546128 S    
O3    Cu2   1.975129 S    
O8    C4    1.298924 A    
N16   O47   1.301278 A    
C8    C46   1.550089 S    
C35   C43   1.541518 S    
C39   C41   1.607255 S    
C44   H36   1.113907 S    
C25   N5    1.474979 S    
H14   C26   1.115831 S    
O7    C3    1.299953 A    
O21   C53   1.310246 A    
N6    O31   1.301417 A    
O6    Cu2   1.991640 S    
C29   H23   1.113508 S    
C3    C21   1.484713 S    
O4    C2    1.297943 A    
C7    C55   1.533157 S    
O19   Cu6   1.987220 S    
C1    C37   1.484273 S    
Cu5   Cu6   2.705322 S    
O24   Cu5   1.981757 S    
O20   Cu5   1.987219 S    
O14   C50   1.299176 A    
O20   C52   1.299431 A    
N14   O43   1.299735 A    
C58   H50   1.115950 S    
O10   C48   1.296835 A    
C20   H18   1.105840 S    
C57   H49   1.115501 S    
C8    H40   1.112932 S    
N8    O35   1.301429 A    
C7    H45   1.107190 S    
C44   C64   1.475751 S    
C13   N15   1.474075 S    
O18   Cu6   1.973612 S    
C16   C24   1.579787 S    
O12   Cu3   1.977332 S    
C14   C22   1.570916 S    
C35   H33   1.113776 S    
C10   C12   1.552120 S    
N2    O28   1.304246 A    
C28   C62   1.480956 S    
O3    C1    1.295944 A    
O8    Cu1   1.977903 S    
O24   C54   1.297943 A    
O16   C50   1.302850 A    
C36   H32   1.114541 S    
C27   C61   1.480345 S    
C19   C27   1.563492 S    
O17   C51   1.300735 A    
C15   C23   1.579441 S    
H44   C56   1.113236 S    
H6    C12   1.113321 S    
C9    C57   1.575037 S    
O13   Cu3   1.988524 S    
C8    C56   1.536714 S    
C43   H35   1.114051 S    
C5    C45   1.558206 S    
C17   H19   1.110609 S    
C13   H7    1.116125 S    
C20   H16   1.115592 S    
Cu3   Cu4   2.696034 S    
C29   C31   1.540038 S    
C14   H8    1.116125 S    
C20   C28   1.563695 S    
C59   H51   1.112810 S    
C32   H28   1.107847 S    
C19   H15   1.115656 S    
C31   H27   1.111479 S    
N8    O36   1.302313 A    
C15   H9    1.114402 S    
O12   C48   1.300567 A    
C16   H10   1.114429 S    
H11   C17   1.114475 S    
C65   N17   1.157702 T    
O2    Cu2   1.980824 S    
N12   O40   1.302495 A    
O19   C51   1.301845 A    
O16   Cu3   1.980904 S    
C27   N1    1.488588 S    
C32   C40   1.558313 S    
O15   Cu4   1.980904 S    
H12   C18   1.114371 S    
O18   C52   1.302793 A    
O5    Cu1   1.991639 S    
O1    Cu1   1.980819 S    
C33   C37   1.545831 S    
H2    C6    1.112968 S    
N13   O41   1.301003 A    
C34   C38   1.543690 S    
N5    O29   1.301393 A    
C17   C21   1.545956 S    
C40   C42   1.606960 S    
O13   C49   1.298653 A    
C60   H52   1.112651 S    
C62   N4    1.156053 T    
H1    C5    1.112970 S    
C35   H31   1.115121 S    
C31   C39   1.566820 S    
C18   C26   1.547425 S    
C24   C28   1.602063 S    
O15   C49   1.303382 A    
H5    C11   1.113219 S    
