data_mof_unit_46662.cif
_audit_creation_date              2012-12-11T18:13:27-0500
_audit_creation_method            fapswitch 2.2
_symmetry_space_group_name_H-M    P1
_symmetry_Int_Tables_number       1
_space_group_crystal_system       triclinic
_cell_length_a                    8.189271
_cell_length_b                    12.690979
_cell_length_c                    18.678698
_cell_angle_alpha                 99.628123
_cell_angle_beta                  91.005736
_cell_angle_gamma                 98.395651
_cell_volume                      1891.66511299

loop_
_atom_site_label
_atom_site_type_symbol
_atom_type_description
_atom_site_fract_x
_atom_site_fract_y
_atom_site_fract_z
_atom_type_partial_charge
Ba1   Ba    Ba6+2 0.852780 0.548340 0.465070 1.632572
Ba2   Ba    Ba6+2 0.337060 0.451750 0.534940 1.631274
C1    C     C_3   0.509331 0.865576 0.233770 -0.423104
C2    C     C_R   0.893194 0.391486 0.094653 0.034416
C3    C     C_R   0.730842 0.344890 0.071430 -0.087314
C4    C     C_3   0.104346 0.745777 0.264336 0.353762
C5    C     C_R   0.669429 0.350836 0.002169 -0.089233
C6    C     C_R   0.770064 0.401960 0.954155 0.032420
C7    C     C_R   0.933260 0.449152 0.976578 0.013680
C8    C     C_R   0.710213 0.404840 0.883870 -0.110049
C9    C     C_R   0.812450 0.451367 0.833801 -0.043322
C10   C     C_R   0.975370 0.502000 0.856700 -0.005436
C11   C     C_R   0.034742 0.500871 0.928473 -0.008726
C12   C     C_3   0.583981 0.809664 0.289554 0.327924
C13   C     C_R   0.758174 0.446509 0.760950 -0.005668
C14   C     C_R   0.866648 0.487825 0.711818 -0.296332
C15   C     C_R   0.024031 0.543965 0.733940 0.046070
C16   C     C_3   0.067605 0.759267 0.186539 -0.379281
C17   C     C_R   0.079285 0.553052 0.808020 -0.044939
C18   C     C_R   0.157064 0.492245 0.070368 -0.010384
C19   C     C_R   0.215917 0.491829 0.142319 -0.006587
C20   C     C_R   0.110754 0.443053 0.191516 -0.048000
C21   C     C_R   0.953636 0.387591 0.164926 -0.046207
C22   C     C_R   0.236014 0.608960 0.834877 -0.041794
C23   C     C_3   0.462996 0.274559 0.312951 0.306808
C24   C     C_R   0.297596 0.603339 0.904671 0.034891
C25   C     C_R   0.197012 0.549002 0.951675 0.006688
C26   C     C_R   0.258627 0.543888 0.022257 0.014766
C27   C     C_R   0.460114 0.649806 0.927814 -0.084229
C28   C     C_3   0.235179 0.787077 0.619880 0.278660
C29   C     C_R   0.522105 0.642877 0.996844 -0.091329
C30   C     C_R   0.421795 0.591132 0.044725 0.031962
C31   C     C_R   0.378937 0.541915 0.165178 -0.041611
C32   C     C_R   0.481687 0.587897 0.114991 -0.110950
C33   C     C_R   0.432537 0.547040 0.238199 0.003779
C34   C     C_3   0.465918 0.242557 0.230950 -0.408273
C35   C     C_R   0.324437 0.506446 0.287409 -0.300242
C36   C     C_R   0.165581 0.453647 0.265763 0.047521
C37   C     C_R   0.768427 0.181041 0.525286 -0.282635
C38   C     C_R   0.428482 0.807781 0.470272 -0.285862
C39   C     C_R   0.402987 0.984074 0.444139 -0.102214
C40   C     C_3   0.250013 0.909407 0.636163 -0.351623
C41   C     C_R   0.337778 0.875987 0.440854 -0.009566
C42   C     C_R   0.578324 0.848297 0.509028 0.072778
C43   C     C_R   0.643974 0.959999 0.515695 -0.055510
C44   C     C_R   0.555216 0.027945 0.481539 -0.059768
C45   C     C_3   0.061653 0.238335 0.734578 0.365820
C46   C     C_R   0.619450 0.138661 0.487034 0.042478
C47   C     C_R   0.859642 0.115223 0.556534 -0.009829
C48   C     C_R   0.795826 0.006030 0.554077 -0.092163
C49   C     C_3   0.962031 0.205818 0.373679 0.277640
C50   C     C_3   0.977554 0.085891 0.353072 -0.190049
C51   C     C_3   0.729130 0.708015 0.683041 0.315605
C52   C     C_3   0.751417 0.746633 0.764706 -0.407135
C53   C     C_3   0.903002 0.035497 0.276424 -0.139371
C54   C     C_3   0.024398 0.049003 0.215339 -0.173280
C55   C     C_3   0.936767 0.013278 0.140547 -0.463002
C56   C     C_3   0.080670 0.214354 0.811147 -0.368285
C57   C     C_3   0.559200 0.179176 0.701089 0.345757
C58   C     C_3   0.612919 0.100289 0.746422 -0.417205
C59   C     C_R   0.994587 0.444505 0.047279 0.006280
H1    H     H_    0.654587 0.871281 0.332473 0.039326
H2    H     H_    0.628450 0.637906 0.672533 0.065440
H3    H     H_    0.426888 0.920950 0.260620 0.104829
H4    H     H_    0.857923 0.812853 0.776861 0.127703
H5    H     H_    0.774429 0.679423 0.792654 0.057414
H6    H     H_    0.638040 0.776997 0.785893 0.117632
H7    H     H_    0.481632 0.767707 0.317295 -0.040235
H8    H     H_    0.437592 0.804030 0.191246 0.114575
H9    H     H_    0.336858 0.289180 0.327785 0.015334
H10   H     H_    0.552395 0.349948 0.329378 0.061652
H11   H     H_    0.379658 0.166597 0.212225 0.112060
H12   H     H_    0.337905 0.941611 0.683075 0.114740
H13   H     H_    0.428953 0.307420 0.203894 0.059982
H14   H     H_    0.592548 0.229225 0.215500 0.114819
H15   H     H_    0.607229 0.912490 0.206830 0.115057
H16   H     H_    0.160392 0.822218 0.169861 0.101681
H17   H     H_    0.144580 0.314511 0.730982 0.095821
H18   H     H_    0.931765 0.249303 0.724839 -0.072215
H19   H     H_    0.211728 0.208895 0.823976 0.149385
H20   H     H_    0.041110 0.279720 0.851073 0.071552
H21   H     H_    0.003334 0.136558 0.815922 0.111014
H22   H     H_    0.669709 0.213602 0.674248 -0.053443
H23   H     H_    0.295572 0.944654 0.588639 0.081394
H24   H     H_    0.468240 0.134495 0.657793 0.079351
H25   H     H_    0.706846 0.143808 0.788779 0.113855
H26   H     H_    0.666855 0.035826 0.711155 0.095421
H27   H     H_    0.011003 0.680831 0.277429 0.124641
H28   H     H_    0.505623 0.063016 0.773765 0.129091
H29   H     H_    0.650452 0.304570 0.107028 0.061338
H30   H     H_    0.543295 0.314535 0.985926 0.070175
H31   H     H_    0.824866 0.480333 0.655677 0.069813
H32   H     H_    0.584099 0.368534 0.868613 0.108538
H33   H     H_    0.874343 0.343449 0.198885 0.097357
H34   H     H_    0.127509 0.933319 0.649406 0.143010
H35   H     H_    0.314435 0.654578 0.801379 0.095719
H36   H     H_    0.540042 0.690815 0.892267 0.061553
H37   H     H_    0.648214 0.679216 0.013116 0.068900
H38   H     H_    0.607896 0.624074 0.130318 0.106994
H39   H     H_    0.227315 0.720433 0.267710 -0.056590
H40   H     H_    0.366628 0.513493 0.343476 0.070786
H41   H     H_    0.330984 0.033041 0.418613 0.095003
H42   H     H_    0.867551 0.958754 0.581418 0.101847
H43   H     H_    0.817707 0.265578 0.527889 0.064756
H44   H     H_    0.377377 0.723341 0.466417 0.069781
H45   H     H_    0.832659 0.214232 0.385053 -0.004383
H46   H     H_    0.070008 0.681995 0.149224 0.082811
H47   H     H_    0.943302 0.782278 0.181446 0.153869
H48   H     H_    0.356742 0.764128 0.605750 0.007852
H49   H     H_    0.144714 0.756916 0.573446 0.075187
H50   H     H_    0.872162 0.928965 0.134352 0.138206
H51   H     H_    0.845038 0.067302 0.132834 0.135998
H52   H     H_    0.028651 0.017954 0.097742 0.128655
H53   H     H_    0.083574 0.133726 0.218368 0.153580
H54   H     H_    0.124858 0.000405 0.220385 0.132058
H55   H     H_    0.868492 0.947676 0.274817 0.150134
H56   H     H_    0.042665 0.240847 0.422805 0.057574
H57   H     H_    0.788878 0.069686 0.266229 0.115905
H58   H     H_    0.911766 0.042437 0.393523 0.072497
H59   H     H_    0.109565 0.075721 0.356479 0.110894
H60   H     H_    0.845727 0.683579 0.662104 0.013600
O1    O     O_2   0.873090 0.425890 0.325140 -0.467646
O2    O     O_2   0.200367 0.121895 0.552219 -0.483368
O3    O     O_3   0.104360 0.152016 0.684684 -0.600028
O4    O     O_3   0.122420 0.434370 0.414380 -0.489753
O5    O     O_3   0.578370 0.633800 0.536380 -0.489314
O6    O     O_2   0.341510 0.231850 0.465510 -0.467207
O7    O     O_3   0.506041 0.189833 0.345171 -0.654519
O8    O     O_2   0.416968 0.453138 0.757202 -0.496865
O9    O     O_3   0.483200 0.256594 0.746273 -0.597707
O10   O     O_3   0.659500 0.627100 0.368810 -0.465462
O11   O     O_2   0.774864 0.548218 0.241919 -0.509083
O12   O     O_3   0.689690 0.793239 0.650686 -0.643056
O13   O     O_3   0.005693 0.254990 0.314242 -0.653754
O14   O     O_3   0.692055 0.742181 0.254829 -0.606913
O15   O     O_2   0.848200 0.768190 0.534530 -0.474300
O16   O     O_3   0.081160 0.685950 0.404810 -0.492691
O17   O     O_2   0.997758 0.879454 0.445070 -0.482824
O18   O     O_3   0.098100 0.843253 0.311964 -0.618357
O19   O     O_2   0.316610 0.574140 0.674900 -0.469585
O20   O     O_3   0.067290 0.565720 0.585630 -0.495504
O21   O     O_3   0.530210 0.372990 0.631200 -0.464826
O22   O     O_3   0.184833 0.746658 0.682340 -0.639441
O23   O     O_3   0.611340 0.366290 0.463630 -0.476521
O24   O     O_3   0.108550 0.314140 0.595200 -0.483667
P1    P     P_3+3 0.041040 0.394770 0.336330 0.967507
P2    P     P_3+3 0.672880 0.754030 0.556100 0.970791
P3    P     P_3+3 0.128875 0.822957 0.401513 0.940151
P4    P     P_3+3 0.148670 0.605320 0.663680 0.971946
P5    P     P_3+3 0.067113 0.174940 0.596409 0.951476
P6    P     P_3+3 0.639643 0.612112 0.274795 0.943585
P7    P     P_3+3 0.522342 0.230315 0.439572 0.933017
P8    P     P_3+3 0.547840 0.384911 0.725075 0.949587

loop_
_geom_bond_atom_site_label_1
_geom_bond_atom_site_label_2
_ccdc_geom_bond_type
C35   H40   S    
C53   C54   S    
C57   O9    S    
Ba2   O23   S    
O16   P3    S    
O10   P6    S    
C45   H18   S    
O20   P4    S    
C5    C6    A    
C52   H4    S    
C51   C52   S    
C54   C55   S    
Ba2   O24   S    
C24   C25   A    
C47   P5    S    
C28   H49   S    
C7    C59   A    
C1    H8    S    
C23   O7    S    
C57   H22   S    
O4    P1    S    
C22   H35   S    
C49   O13   S    
C55   H51   S    
C19   C31   A    
C12   O14   S    
C13   C14   A    
C20   C36   A    
C4    O18   S    
C42   P2    S    
C4    H27   S    
C39   H41   S    
Ba1   Ba2   S    
C29   H37   S    
C18   C59   A    
C7    C11   A    
Ba1   O1    S    
C36   P1    S    
C41   P3    S    
C15   C17   A    
C16   H46   S    
C9    C13   A    
O7    P7    S    
C38   C41   A    
O17   P3    D    
C6    C7    A    
C48   H42   S    
C39   C44   A    
O12   P2    S    
Ba1   O15   S    
C38   C42   A    
C3    H29   S    
C50   C53   S    
C56   H19   S    
C12   H1    S    
Ba2   O6    S    
Ba2   P4    S    
O2    P5    D    
C57   C58   S    
C19   C20   A    
C50   H58   S    
C39   C41   A    
Ba1   P1    S    
C33   P6    S    
C4    C16   S    
C58   H26   S    
C32   H38   S    
O13   P1    S    
C44   C46   A    
O18   P3    S    
C28   H48   S    
C40   H34   S    
C37   H43   S    
C40   H23   S    
Ba1   O5    S    
C56   H20   S    
C3    C5    A    
C2    C21   A    
C58   H25   S    
C14   C15   A    
C55   H52   S    
C52   H6    S    
C18   C26   A    
C8    H32   S    
C43   C44   A    
C2    C59   A    
C28   O22   S    
C49   C50   S    
C4    H39   S    
C57   H24   S    
C35   C36   A    
C34   H14   S    
O6    P7    D    
C29   C30   A    
C26   C30   A    
C9    C10   A    
C49   H56   S    
C5    H30   S    
C31   C32   A    
C51   O12   S    
C10   C11   A    
C1    H15   S    
C1    C12   S    
C34   H13   S    
C23   H10   S    
C50   H59   S    
C6    C8    A    
C37   C47   A    
C14   H31   S    
C46   P7    S    
Ba2   O21   S    
Ba1   P2    S    
Ba2   O5    S    
Ba1   O16   S    
C42   C43   A    
Ba2   O20   S    
O3    P5    S    
C40   H12   S    
C54   H53   S    
C33   C35   A    
C15   P4    S    
O24   P5    S    
Ba1   O4    S    
C2    C3    A    
Ba1   O10   S    
O5    P2    S    
C52   H5    S    
C1    H3    S    
C21   H33   S    
C27   H36   S    
Ba2   O19   S    
C56   H21   S    
C17   C22   A    
O23   P7    S    
Ba1   O23   S    
C51   H60   S    
C45   C56   S    
O8    P8    D    
C51   H2    S    
C22   C24   A    
C45   O3    S    
C55   H50   S    
C43   C48   A    
C49   H45   S    
O14   P6    S    
C58   H28   S    
C10   C17   A    
C31   C33   A    
C54   H54   S    
O9    P8    S    
C28   C40   S    
O1    P1    D    
O21   P8    S    
C16   H16   S    
C16   H47   S    
C13   P8    S    
O15   P2    D    
Ba1   O20   S    
C8    C9    A    
C23   C34   S    
Ba2   O4    S    
O22   P4    S    
C18   C19   A    
C24   C27   A    
C27   C29   A    
C47   C48   A    
C53   H55   S    
C25   C26   A    
O11   P6    D    
C12   H7    S    
C20   C21   A    
C11   C25   A    
C23   H9    S    
C45   H17   S    
O19   P4    D    
C34   H11   S    
C30   C32   A    
C37   C46   A    
C53   H57   S    
C38   H44   S    
