data_mof_unit_27168.cif
_audit_creation_date              2012-12-11T15:28:34-0500
_audit_creation_method            fapswitch 2.2
_symmetry_space_group_name_H-M    P1
_symmetry_Int_Tables_number       1
_space_group_crystal_system       triclinic
_cell_length_a                    6.948441
_cell_length_b                    19.593949
_cell_length_c                    23.378972
_cell_angle_alpha                 96.062836
_cell_angle_beta                  91.017085
_cell_angle_gamma                 88.833961
_cell_volume                      3164.13760732

loop_
_atom_site_label
_atom_site_type_symbol
_atom_type_description
_atom_site_fract_x
_atom_site_fract_y
_atom_site_fract_z
_atom_type_partial_charge
O1    O     O_R   0.617180 0.809390 0.808140 -0.515591
O2    O     O_R   0.382820 0.190610 0.191860 -0.516114
O3    O     O_R   0.293300 0.672410 0.795490 -0.531328
O4    O     O_R   0.706700 0.327590 0.204510 -0.549057
O5    O     O_R   0.117220 0.690610 0.691850 -0.513957
O6    O     O_R   0.882780 0.309390 0.308150 -0.527690
C1    C     C_R   0.464889 0.647926 0.805776 0.736177
C2    C     C_R   0.535666 0.352294 0.194712 0.739933
O7    O     O_R   0.287840 0.807750 0.814460 -0.527552
O8    O     O_R   0.712160 0.192250 0.185540 -0.526460
O9    O     O_R   0.111720 0.826910 0.710960 -0.531697
O10   O     O_R   0.888280 0.173090 0.289040 -0.525841
C3    C     C_R   0.456476 0.830802 0.833176 0.707156
C4    C     C_R   0.543469 0.169237 0.166801 0.713802
O11   O     O_R   0.622680 0.673080 0.789040 -0.543600
O12   O     O_R   0.377320 0.326920 0.210960 -0.521349
O13   O     O_3   0.448820 0.756130 0.716020 -0.358546
O14   O     O_3   0.551180 0.243870 0.283980 -0.360046
V1    V     V_3+5 0.176220 0.748860 0.756300 1.507726
V2    V     V_3+5 0.823780 0.251140 0.243700 1.485321
O15   O     O_R   0.781670 0.827580 0.704500 -0.527865
O16   O     O_R   0.218330 0.172420 0.295500 -0.532424
C5    C     C_R   0.948734 0.851947 0.694366 0.829094
C6    C     C_R   0.051706 0.148028 0.305659 0.824843
O17   O     O_R   0.787130 0.692240 0.685530 -0.524911
O18   O     O_R   0.212870 0.307760 0.314470 -0.513600
C7    C     C_R   0.956144 0.669097 0.666867 0.779196
C8    C     C_R   0.043892 0.330953 0.333100 0.783981
V3    V     V_3+5 0.675510 0.751130 0.743690 1.512612
V4    V     V_3+5 0.324490 0.248870 0.256310 1.528347
O19   O     O_3   0.952780 0.743870 0.783980 -0.368648
O20   O     O_3   0.047220 0.256130 0.216020 -0.369068
C9    C     C_1   0.966850 0.617231 0.614696 -0.173901
C10   C     C_1   0.033292 0.383074 0.385100 -0.152546
C11   C     C_1   0.978379 0.573824 0.571812 0.012571
C12   C     C_1   0.021705 0.426610 0.427894 0.015421
C13   C     C_1   0.993471 0.522090 0.521162 0.018460
C14   C     C_1   0.006531 0.478402 0.478504 0.011780
C15   C     C_R   0.955750 0.915060 0.664738 -0.197697
C16   C     C_R   0.051924 0.085195 0.335907 -0.193802
C17   C     C_R   0.008073 0.037598 0.668969 -0.183385
C18   C     C_R   0.135313 0.964447 0.337120 -0.177344
C19   C     C_R   0.993067 0.978680 0.697368 -0.037803
C20   C     C_R   0.125637 0.022844 0.307632 -0.031345
C21   C     C_R   0.935794 0.911856 0.603774 -0.085898
C22   C     C_R   0.989556 0.087625 0.393838 -0.083499
C23   C     C_R   0.979117 0.970734 0.574934 0.044405
C24   C     C_R   0.025296 0.029822 0.425818 0.044925
C25   C     C_R   0.001195 0.034320 0.608947 0.102694
C26   C     C_R   0.086049 0.967218 0.395028 0.102811
C27   C     C_R   0.007777 0.969095 0.513962 0.071181
C28   C     C_R   0.009636 0.031682 0.487316 0.073945
C29   C     C_R   0.023344 0.093620 0.523543 -0.119684
C30   C     C_R   0.061745 0.908012 0.480384 -0.114447
C31   C     C_R   0.022438 0.094647 0.582978 -0.170138
C32   C     C_R   0.103111 0.907443 0.422509 -0.158733
H1    H     H_    0.041319 0.143322 0.608963 0.129556
H2    H     H_    0.151509 0.859610 0.399128 0.132071
H3    H     H_    0.028725 0.086848 0.693963 0.155245
H4    H     H_    0.184487 0.916041 0.314808 0.153310
H5    H     H_    0.053227 0.141581 0.507035 0.139076
H6    H     H_    0.090442 0.860833 0.499201 0.141371
C33   C     C_R   0.488420 0.584359 0.835224 -0.204719
C34   C     C_R   0.519968 0.415785 0.165255 -0.211376
C35   C     C_R   0.634451 0.469876 0.835086 0.240050
C36   C     C_R   0.460795 0.539567 0.170796 0.243174
C37   C     C_R   0.581334 0.526785 0.805678 -0.123133
C38   C     C_R   0.490746 0.479365 0.198231 -0.118608
C39   C     C_R   0.439873 0.583124 0.893721 0.213625
C40   C     C_R   0.524292 0.412599 0.104536 0.227725
C41   C     C_R   0.520748 0.530870 0.926121 -0.040013
C42   C     C_R   0.523443 0.474457 0.076761 -0.035409
C43   C     C_R   0.618971 0.473898 0.895858 -0.010009
C44   C     C_R   0.485186 0.538151 0.110309 -0.007670
C45   C     C_R   0.510118 0.533698 0.987824 0.032355
C46   C     C_R   0.557977 0.474847 0.016331 0.033602
C47   C     C_R   0.664242 0.421959 0.985572 -0.219179
C48   C     C_R   0.479427 0.595781 0.022479 -0.224490
C49   C     C_R   0.702967 0.422420 0.927306 0.286456
C50   C     C_R   0.475404 0.599226 0.082426 0.283091
H7    H     H_    0.738019 0.383214 0.007774 0.161882
H8    H     H_    0.480436 0.644098 0.004247 0.163843
C51   C     C_1   0.467080 0.882902 0.885199 -0.173190
C52   C     C_1   0.532659 0.117187 0.114757 -0.174347
C53   C     C_1   0.478414 0.926430 0.928013 0.014910
C54   C     C_1   0.521105 0.073683 0.071935 0.011650
C55   C     C_1   0.493260 0.978215 0.978642 0.006627
C56   C     C_1   0.506117 0.021909 0.021304 0.006176
C57   C     C_2   0.866132 0.146544 0.417233 0.727964
O21   O     O_2   0.713934 0.135867 0.439932 -0.542597
O22   O     O_R   0.924292 0.213889 0.414001 -0.685419
H9    H     H_    0.827684 0.249218 0.431476 0.288150
C58   C     C_2   0.844358 0.850666 0.572279 0.721566
O23   O     O_2   0.711240 0.858354 0.538477 -0.542217
O24   O     O_R   0.911098 0.784626 0.580611 -0.686122
H10   H     H_    0.837185 0.747566 0.556476 0.288553
C59   C     C_2   0.187515 0.015563 0.246472 0.737953
O25   O     O_2   0.118180 0.052572 0.212174 -0.569728
O26   O     O_R   0.323162 0.964719 0.227719 -0.663082
H11   H     H_    0.353484 0.964524 0.185432 0.298170
C60   C     C_2   0.011793 0.986552 0.761432 0.736699
O27   O     O_2   0.937134 0.945918 0.790141 -0.568886
O28   O     O_R   0.112808 0.041941 0.789185 -0.663118
H12   H     H_    0.115575 0.042091 0.832579 0.300118
N1    N     N_2   0.837989 0.372962 0.901906 -0.471874
H13   H     H_    0.839033 0.326708 0.919329 0.253300
C61   C     C_3   0.030023 0.399031 0.897277 -0.513310
H14   H     H_    0.124248 0.358235 0.875471 0.196262
H15   H     H_    0.091476 0.415067 0.940713 0.170357
H16   H     H_    0.027682 0.443518 0.871478 0.211667
N2    N     N_2   0.471603 0.665446 0.114110 -0.474632
H17   H     H_    0.392329 0.701831 0.094539 0.251472
C62   C     C_3   0.659693 0.689896 0.133090 -0.498387
H18   H     H_    0.643635 0.739659 0.160209 0.205935
H19   H     H_    0.749171 0.697505 0.095408 0.172441
H20   H     H_    0.733903 0.652757 0.159189 0.205411
N3    N     N_2   0.509070 0.347377 0.071434 -0.533371
H21   H     H_    0.580718 0.307226 0.088207 0.235345
C63   C     C_3   0.315579 0.330410 0.051878 -0.534238
H22   H     H_    0.318614 0.281298 0.023454 0.195254
H23   H     H_    0.253590 0.371027 0.026956 0.204765
H24   H     H_    0.222692 0.324587 0.089212 0.193326
N4    N     N_2   0.299455 0.631003 0.918427 -0.533433
H25   H     H_    0.301948 0.679406 0.905034 0.242297
C64   C     C_3   0.107442 0.603955 0.919460 -0.504115
H26   H     H_    0.009640 0.643169 0.941862 0.184265
H27   H     H_    0.107669 0.557632 0.943083 0.201562
H28   H     H_    0.051941 0.590592 0.874873 0.199833
C65   C     C_2   0.483534 0.482890 0.261869 0.735263
O29   O     O_2   0.355501 0.454228 0.284775 -0.562605
O30   O     O_R   0.623966 0.519088 0.295396 -0.671266
H29   H     H_    0.604600 0.517694 0.338135 0.297126
C66   C     C_2   0.613432 0.524684 0.742823 0.755759
O31   O     O_2   0.478354 0.534847 0.710353 -0.558499
O32   O     O_R   0.798595 0.512842 0.721095 -0.675942
H30   H     H_    0.801230 0.511756 0.677685 0.291834
N5    N     N_2   0.691206 0.406629 0.803371 -0.475305
H31   H     H_    0.782397 0.410034 0.769650 0.286088
C67   C     C_3   0.535026 0.359857 0.789254 -0.485160
H32   H     H_    0.592969 0.310654 0.767781 0.200137
H33   H     H_    0.429853 0.382153 0.759696 0.193503
H34   H     H_    0.461040 0.348963 0.828951 0.198084
N6    N     N_2   0.392193 0.600554 0.203504 -0.474272
H35   H     H_    0.456867 0.611854 0.243264 0.279056
C68   C     C_3   0.184570 0.607521 0.204919 -0.482938
H36   H     H_    0.143577 0.658222 0.227638 0.198167
H37   H     H_    0.122931 0.566501 0.228028 0.202252
H38   H     H_    0.123159 0.604451 0.160516 0.196116

loop_
_geom_bond_atom_site_label_1
_geom_bond_atom_site_label_2
_ccdc_geom_bond_type
C36   C38   A    
C55   C56   T    
C58   O23   D    
O13   V3    S    
O24   H10   S    
C4    C52   S    
C42   C46   A    
V1    O19   S    
C68   H36   S    
N4    H25   S    
C23   C25   A    
C22   C57   S    
C7    C9    S    
C16   C22   A    
N5    C67   S    
O9    V1    S    
C60   O27   D    
C34   C38   A    
C11   C13   S    
C52   C54   T    
C65   O29   D    
C24   C28   A    
O3    C1    A    
N3    C63   S    
C9    C11   T    
C67   H34   S    
C54   C56   S    
N4    C64   S    
C39   N4    S    
C40   N3    S    
O12   V4    S    
N6    H35   S    
C36   C44   A    
C59   O25   D    
C35   C43   A    
C49   N1    S    
C21   C23   A    
C39   C41   A    
O7    C3    A    
C58   O24   S    
C68   H37   S    
O5    C7    A    
C29   H5    S    
O7    V1    S    
O6    C8    A    
C33   C39   A    
O8    V2    S    
C35   C37   A    
C64   H28   S    
C61   H14   S    
O3    V1    S    
O14   V4    S    
C34   C40   A    
C57   O22   S    
C17   C19   A    
C10   C12   T    
O4    C2    A    
C15   C21   A    
C62   H20   S    
C35   N5    S    
C1    O11   A    
N5    H31   S    
C8    C10   S    
C60   O28   S    
C44   C50   A    
C61   H15   S    
C18   C20   A    
C17   C25   A    
C59   O26   S    
O11   V3    S    
C22   C24   A    
C29   C31   A    
O17   V3    S    
C33   C37   A    
C53   C55   S    
C27   C28   A    
V4    O20   S    
O32   H30   S    
C47   C49   A    
C46   C47   A    
C17   H3    S    
C42   C44   A    
O8    C4    A    
C18   H4    S    
O22   H9    S    
C41   C43   A    
C15   C19   A    
C36   N6    S    
C30   H6    S    
C25   C31   A    
O15   V3    S    
C26   C32   A    
C45   C46   A    
C19   C60   S    
C13   C14   T    
N1    C61   S    
C20   C59   S    
C48   H8    S    
O26   H11   S    
C47   H7    S    
C63   H22   S    
O10   V2    S    
O1    V3    S    
C43   C49   A    
C48   C50   A    
N2    C62   S    
C24   C26   A    
C1    C33   S    
C63   H23   S    
C2    C34   S    
C51   C53   T    
C18   C26   A    
C21   C58   S    
O18   V4    S    
C31   H1    S    
C66   O31   D    
C61   H16   S    
O16   C6    A    
O1    C3    A    
O30   H29   S    
C68   H38   S    
C28   C29   A    
C66   O32   S    
C62   H18   S    
V2    O20   S    
C63   H24   S    
N6    C68   S    
O10   C6    A    
C6    C16   S    
O16   V4    S    
N2    H17   S    
C37   C66   S    
C23   C27   A    
C67   H32   S    
C30   C32   A    
O5    V1    S    
O17   C7    A    
O6    V2    S    
N1    H13   S    
C3    C51   S    
O18   C8    A    
O2    V4    S    
C27   C30   A    
O15   C5    A    
V3    O19   S    
N3    H21   S    
C12   C14   S    
C41   C45   A    
C67   H33   S    
C64   H26   S    
C5    C15   S    
C50   N2    S    
O9    C5    A    
O13   V1    S    
C32   H2    S    
O14   V2    S    
C38   C65   S    
O2    C4    A    
C45   C48   A    
O4    V2    S    
C16   C20   A    
C2    O12   A    
O28   H12   S    
C64   H27   S    
C40   C42   A    
C62   H19   S    
C57   O21   D    
C65   O30   S    
