data_mof_unit_38356.cif
_audit_creation_date              2013-03-05T15:48:56-0500
_audit_creation_method            fapswitch 2.2
_symmetry_space_group_name_H-M    P1
_symmetry_Int_Tables_number       1
_space_group_crystal_system       triclinic
_cell_length_a                    6.951027
_cell_length_b                    13.559769
_cell_length_c                    20.119676
_cell_angle_alpha                 104.209192
_cell_angle_beta                  89.606403
_cell_angle_gamma                 91.039822
_cell_volume                      1838.04048453

loop_
_atom_site_label
_atom_site_type_symbol
_atom_site_description
_atom_site_fract_x
_atom_site_fract_y
_atom_site_fract_z
_atom_type_partial_charge
O1    O     O_R   0.506780 0.600060 0.449950 -0.598742
O2    O     O_R   0.179840 0.597110 0.589410 -0.559270
O3    O     O_R   0.004570 0.399940 0.550050 -0.602853
C1    C     C_R   0.348314 0.617781 0.617144 1.024143
O4    O     O_R   0.177380 0.612160 0.452890 -0.589997
O5    O     O_R   0.002100 0.415100 0.412560 -0.611343
C2    C     C_R   0.347474 0.638694 0.436235 1.061598
O6    O     O_R   0.509250 0.584900 0.587440 -0.566774
O7    O     O_3   0.337570 0.435330 0.486930 -0.297815
V1    V     V_3+5 0.064650 0.512000 0.502430 1.294132
O8    O     O_R   0.672090 0.402890 0.410590 -0.597170
C3    C     C_R   0.840339 0.381159 0.383138 1.057775
O9    O     O_R   0.674540 0.387840 0.547110 -0.591148
C4    C     C_R   0.841611 0.360513 0.562761 1.227817
V2    V     V_3+5 0.564040 0.488000 0.497570 1.279916
O10   O     O_3   0.840990 0.564670 0.513070 -0.249230
C5    C     C_R   0.820364 0.105154 0.604406 0.754472
H1    H     H_    0.856651 0.980796 0.685179 0.227736
C6    C     C_R   0.842005 0.281404 0.600348 -0.568003
C7    C     C_R   0.841174 0.315752 0.930603 -0.066611
C8    C     C_R   0.807109 0.390305 0.895884 -0.035886
C9    C     C_R   0.798752 0.365634 0.824606 -0.099449
C10   C     C_R   0.832348 0.265377 0.785493 0.164997
C11   C     C_R   0.858063 0.187678 0.821341 -0.053802
C12   C     C_R   0.835622 0.239056 0.711942 -0.159139
C13   C     C_R   0.829997 0.134751 0.676348 -0.239140
C14   C     C_R   0.846311 0.060107 0.712388 -0.126190
C15   C     C_R   0.874433 0.085764 0.782685 0.272199
C16   C     C_R   0.852222 0.311606 0.672081 0.660535
C17   C     C_R   0.822654 0.177990 0.565897 0.099906
C18   C     C_R   0.863153 0.214474 0.894613 -0.216276
H2    H     H_    0.842571 0.336507 0.986183 0.158047
H3    H     H_    0.756285 0.425897 0.801873 0.197864
H4    H     H_    0.781959 0.467687 0.924577 0.159103
C19   C     C_3   0.777915 0.158483 0.250790 -0.124533
C20   C     C_3   0.954319 0.208627 0.294037 -0.099192
H5    H     H_    0.034032 0.175073 0.330556 0.171618
H6    H     H_    0.714343 0.082879 0.250882 0.146915
C21   C     C_3   0.847945 0.310783 0.312753 -0.339229
C22   C     C_3   0.671070 0.261393 0.270293 -0.299915
C23   C     C_3   0.760335 0.289913 0.206915 0.718627
C24   C     C_3   0.934362 0.339314 0.249509 0.711596
C25   C     C_3   0.042208 0.237693 0.230003 -0.311477
C26   C     C_3   0.865290 0.188344 0.187550 -0.347757
H7    H     H_    0.518273 0.271328 0.286607 0.172916
H8    H     H_    0.194840 0.228630 0.213339 0.188330
C27   C     C_3   0.533920 0.733368 0.727801 0.424044
C28   C     C_3   0.437997 0.837574 0.748967 -0.153255
H9    H     H_    0.505136 0.911780 0.747168 0.182024
C29   C     C_3   0.359470 0.807818 0.813611 -0.205294
C30   C     C_3   0.461418 0.704270 0.792896 -0.244325
C31   C     C_3   0.278049 0.656629 0.752909 -0.146189
C32   C     C_3   0.176608 0.760668 0.774813 0.078076
C33   C     C_3   0.254527 0.789625 0.709437 -0.047263
C34   C     C_3   0.355275 0.686149 0.688130 -0.286326
H10   H     H_    0.548747 0.669743 0.827011 0.179569
H11   H     H_    0.211411 0.582017 0.754018 0.201527
H12   H     H_    0.028433 0.769751 0.795667 0.189537
H13   H     H_    0.171012 0.825121 0.674916 0.200380
C35   C     C_R   0.401210 0.891231 0.391816 -0.236304
H14   H     H_    0.419990 0.016449 0.309564 0.145111
H15   H     H_    0.422682 0.970446 0.418420 0.197172
C36   C     C_R   0.360259 0.716066 0.396870 -0.354594
C37   C     C_R   0.325731 0.681716 0.066642 0.619588
C38   C     C_R   0.309962 0.603838 0.101359 0.253066
C39   C     C_R   0.321339 0.629216 0.173275 -0.329950
C40   C     C_R   0.347881 0.731061 0.211764 0.071159
C41   C     C_R   0.363411 0.808819 0.175501 0.033666
C42   C     C_R   0.359708 0.758286 0.285109 0.159346
C43   C     C_R   0.387034 0.862319 0.320016 0.054597
C44   C     C_R   0.400295 0.936998 0.283208 -0.150473
C45   C     C_R   0.388798 0.910919 0.212215 -0.171644
C46   C     C_R   0.345717 0.686152 0.325362 -0.287860
C47   C     C_R   0.388531 0.818523 0.430041 0.813269
C48   C     C_R   0.352499 0.783134 0.103028 -0.419863
H16   H     H_    0.324254 0.605991 0.303173 0.180921
H17   H     H_    0.309522 0.567336 0.197785 0.234506
H18   H     H_    0.400275 0.971990 0.186324 0.109512
O11   O     O_R   0.203580 0.914920 0.912610 -0.552955
O12   O     O_R   0.535710 0.887810 0.047120 -0.610599
O13   O     O_R   0.710730 0.084950 0.087430 -0.600312
C49   C     C_R   0.365687 0.861537 0.064061 1.055539
O14   O     O_R   0.533010 0.902850 0.910600 -0.582378
O15   O     O_R   0.708010 0.100090 0.949930 -0.584501
C50   C     C_R   0.364571 0.879022 0.883860 1.074754
O16   O     O_R   0.206300 0.899780 0.050100 -0.609637
O17   O     O_3   0.375170 0.064580 0.013100 -0.272642
V3    V     V_3+5 0.648200 0.988020 0.997570 1.252544
O18   O     O_R   0.038030 0.112330 0.952840 -0.560052
C51   C     C_R   0.870358 0.138298 0.935534 1.026501
O19   O     O_R   0.040730 0.097300 0.089360 -0.603451
C52   C     C_R   0.872552 0.118791 0.116884 1.017988
V4    V     V_3+5 0.148780 0.012220 0.002360 1.272628
O20   O     O_3   0.871930 0.935430 0.986900 -0.268703
N1    N     N_R   0.812876 0.145860 0.492177 0.249854
O21   O     O_R   0.705132 0.193226 0.457849 -0.441867
O22   O     O_R   0.900716 0.064263 0.459286 -0.335524
F1    F     F_    0.661803 0.332460 0.161658 -0.655027
F2    F     F_    0.013616 0.433317 0.248784 -0.680618
N2    N     N_R   0.728178 0.716750 0.700598 0.231308
O23   O     O_R   0.798887 0.775670 0.664036 -0.394801
O24   O     O_R   0.811061 0.631003 0.699048 -0.380352
F3    F     F_    0.403371 0.848026 0.499384 -0.659876
F4    F     F_    0.313810 0.659834 0.997127 -0.681417
N3    N     N_R   0.281985 0.498907 0.064298 0.261688
O25   O     O_R   0.288325 0.472349 0.997626 -0.332734
O26   O     O_R   0.250953 0.428403 0.097064 -0.329775
F5    F     F_    0.806293 0.004838 0.571601 -0.615404
F6    F     F_    0.893720 0.411091 0.700816 -0.704758
N4    N     N_R   0.953801 0.009809 0.811195 0.213361
O27   O     O_R   0.139899 0.003575 0.811474 -0.446553
O28   O     O_R   0.847274 0.933207 0.818131 -0.445260

loop_
_geom_bond_atom_site_label_1
_geom_bond_atom_site_label_2
_geom_bond_distance
_ccdc_geom_bond_type
O17   V3    2.163623 S    
V4    O20   2.158875 S    
C23   C24   1.532781 S    
C19   C20   1.554638 S    
C1    O6    1.298266 A    
C32   C33   1.553593 S    
C41   C48   1.415787 A    
C28   C33   1.552950 S    
N3    O26   1.301938 A    
C13   C14   1.388784 A    
C5    C13   1.405647 A    
C16   F6    1.357393 S    
C20   H5    1.110294 S    
O11   V4    1.996426 S    
O5    C3    1.297352 A    
V2    O10   2.158814 S    
C35   H15   1.084247 S    
C30   H10   1.110219 S    
C9    H3    1.076190 S    
N4    O27   1.297997 A    
C45   H18   1.082723 S    
C29   C50   1.503540 S    
O13   C52   1.297660 A    
O8    V2    1.995099 S    
N1    O21   1.301065 A    
C10   C11   1.429633 A    
C42   C46   1.416479 A    
C43   C44   1.395056 A    
O1    V2    2.031545 S    
O7    V1    2.163622 S    
C26   C52   1.501977 S    
C31   C34   1.544577 S    
H14   C44   1.084330 S    
C28   C29   1.546687 S    
O14   V3    2.007559 S    
C8    C9    1.391708 A    
C5    C17   1.396751 A    
O15   C51   1.293742 A    
C38   N3    1.445474 S    
C21   C24   1.533748 S    
C33   H13   1.109439 S    
C12   C16   1.416418 A    
C22   H7    1.110240 S    
V3    O20   1.712781 S    
C29   C32   1.540415 S    
C30   C31   1.555073 S    
C11   C15   1.415774 A    
C19   H6    1.109370 S    
O12   C49   1.295618 A    
C5    F5    1.360442 S    
C21   C22   1.547111 S    
O4    C2    1.295356 A    
C27   C30   1.536991 S    
C8    H4    1.082914 S    
C36   C46   1.399534 A    
C15   N4    1.417446 S    
C12   C13   1.419821 A    
C49   O16   1.293014 A    
C23   F1    1.382692 S    
C27   N2    1.453943 S    
C40   C41   1.424128 A    
C40   C42   1.433109 A    
O2    C1    1.296771 A    
C25   C26   1.547134 S    
C17   N1    1.441340 S    
O16   V4    2.037983 S    
O19   V4    1.995242 S    
C27   C28   1.535378 S    
C35   C43   1.404558 A    
C41   C45   1.408680 A    
C18   C51   1.472144 S    
N2    O24   1.300411 A    
C29   C30   1.546645 S    
C19   C26   1.544389 S    
C2    C36   1.462688 S    
O3    C4    1.294391 A    
C28   H9    1.110039 S    
O14   C50   1.293930 A    
O6    V2    1.995810 S    
O9    V2    2.034930 S    
C1    C34   1.500300 S    
C23   C26   1.532974 S    
C24   C25   1.543601 S    
O2    V1    2.007420 S    
O11   C50   1.302484 A    
C31   C32   1.551850 S    
C27   C34   1.524102 S    
C7    H2    1.084144 S    
C37   F4    1.359424 S    
C39   H17   1.074267 S    
C33   C34   1.542455 S    
C22   C23   1.543720 S    
O1    C2    1.293449 A    
C4    C6    1.456366 S    
C20   C21   1.544222 S    
H1    C14   1.083815 S    
O15   V3    2.021769 S    
O5    V1    2.002157 S    
C32   H12   1.106959 S    
N1    O22   1.301712 A    
C48   C49   1.469004 S    
C36   C47   1.396732 A    
N3    O25   1.301401 A    
C37   C38   1.404244 A    
C3    C21   1.502074 S    
C19   C22   1.554869 S    
O7    V2    1.709611 S    
C11   C18   1.429631 A    
O4    V1    2.016743 S    
O12   V3    2.016787 S    
O3    V1    2.021743 S    
V1    O10   1.712762 S    
C24   F2    1.382749 S    
O17   V4    1.707611 S    
C35   C47   1.392627 A    
N2    O23   1.300118 A    
C46   H16   1.076963 S    
C37   C48   1.400036 A    
C39   C40   1.417232 A    
C10   C12   1.434698 A    
O18   V4    2.034812 S    
C42   C43   1.423034 A    
C25   H8    1.110287 S    
N4    O28   1.299420 A    
O13   V3    2.002152 S    
C31   H11   1.110218 S    
C44   C45   1.387145 A    
C7    C8    1.386938 A    
C38   C39   1.405143 A    
C14   C15   1.385425 A    
C9    C10   1.416239 A    
C20   C25   1.555028 S    
O18   C51   1.297791 A    
O9    C4    1.289589 A    
C6    C17   1.407891 A    
O19   C52   1.297077 A    
O8    C3    1.297446 A    
C47   F3    1.357792 S    
C7    C18   1.396973 A    
C6    C16   1.402105 A    
