data_mof_unit_59754.cif
_audit_creation_date              2012-12-11T19:09:15-0500
_audit_creation_method            fapswitch 2.2
_symmetry_space_group_name_H-M    P1
_symmetry_Int_Tables_number       1
_space_group_crystal_system       triclinic
_cell_length_a                    8.188818
_cell_length_b                    15.088838
_cell_length_c                    27.04702
_cell_angle_alpha                 97.615116
_cell_angle_beta                  92.578355
_cell_angle_gamma                 81.551245
_cell_volume                      3275.39170218

loop_
_atom_site_label
_atom_site_type_symbol
_atom_type_description
_atom_site_fract_x
_atom_site_fract_y
_atom_site_fract_z
_atom_type_partial_charge
Ba1   Ba    Ba6+2 0.860050 0.456430 0.522540 1.672365
Ba2   Ba    Ba6+2 0.329780 0.543490 0.477450 1.665461
C1    C     C_3   0.751412 0.121961 0.648905 -0.356723
C2    C     C_R   0.912679 0.592732 0.180949 0.587352
C3    C     C_2   0.756376 0.566740 0.274840 -0.078003
C4    C     C_3   0.153051 0.273476 0.658575 0.328642
C5    C     C_3   0.735170 0.594859 0.330037 -0.058514
C6    C     C_1   0.983413 0.486377 0.343327 0.039033
C7    C     C_2   0.023765 0.481394 0.295592 -0.081841
C8    C     C_2   0.902454 0.521118 0.257858 0.191905
C9    C     C_R   0.020628 0.507921 0.103225 -0.079821
C10   C     C_R   0.052707 0.430052 0.127793 -0.037431
C11   C     C_R   0.123629 0.348833 0.100842 -0.052707
C12   C     C_3   0.693369 0.214730 0.633115 0.349356
C13   C     C_R   0.949786 0.589573 0.130217 -0.027336
C14   C     C_2   0.846003 0.534830 0.361656 -0.291055
C15   C     C_2   0.356651 0.483045 0.641660 -0.274267
C16   C     C_3   0.133710 0.253711 0.711501 -0.297800
C17   C     C_R   0.172135 0.418233 0.973679 0.020384
C18   C     C_R   0.060175 0.579752 0.975920 0.020846
C19   C     C_R   0.135178 0.497269 0.949352 0.050045
C20   C     C_R   0.248594 0.338336 0.945504 -0.100444
C21   C     C_R   0.286060 0.335954 0.895637 -0.059497
C22   C     C_R   0.249449 0.412970 0.871171 -0.024184
C23   C     C_3   0.498104 0.680948 0.629420 0.296240
C24   C     C_R   0.173808 0.493774 0.897838 -0.079844
C25   C     C_R   0.137306 0.571063 0.873005 -0.036129
C26   C     C_R   0.177398 0.566696 0.822153 0.597235
C27   C     C_R   0.287273 0.410172 0.820459 0.572917
C28   C     C_3   0.209880 0.265388 0.414120 0.287531
C29   C     C_2   0.438949 0.440282 0.726180 -0.084449
C30   C     C_3   0.459443 0.416101 0.670782 -0.046011
C31   C     C_1   0.210093 0.520971 0.658299 0.021663
C32   C     C_2   0.167199 0.521179 0.705514 -0.105802
C33   C     C_2   0.290497 0.482235 0.743247 0.194645
C34   C     C_3   0.499358 0.705696 0.685760 -0.362708
C35   C     C_R   0.132200 0.421463 0.024968 0.019921
C36   C     C_R   0.059059 0.504274 0.051692 0.050811
C37   C     C_R   0.023816 0.583568 0.027502 0.018982
C38   C     C_R   0.162588 0.344474 0.050833 -0.097180
C39   C     C_R   0.917513 0.667251 0.106136 -0.049697
C40   C     C_3   0.217535 0.163663 0.401014 -0.308981
C41   C     C_R   0.023833 0.655829 0.949589 -0.097195
C42   C     C_R   0.061778 0.651447 0.899546 -0.059251
C43   C     C_R   0.953383 0.664515 0.056162 -0.097442
C44   C     C_R   0.351200 0.175823 0.535969 -0.020462
C45   C     C_3   0.993450 0.768385 0.342844 0.295617
C46   C     C_R   0.562392 0.209656 0.485397 0.048214
C47   C     C_R   0.755060 0.774007 0.478820 -0.350204
C48   C     C_R   0.845199 0.832265 0.459277 -0.067882
C49   C     C_R   0.785905 0.926443 0.461984 0.333295
C50   C     C_R   0.629388 0.960403 0.487254 -0.064665
C51   C     C_R   0.553352 0.898489 0.511900 -0.058006
C52   C     C_3   0.977584 0.732236 0.582797 0.310570
C53   C     C_R   0.548811 0.053126 0.493181 0.025337
C54   C     C_R   0.415281 0.082656 0.526624 -0.018366
C55   C     C_R   0.348623 0.019656 0.549406 -0.057148
C56   C     C_3   0.033729 0.794813 0.292931 -0.221604
C57   C     C_R   0.415171 0.929898 0.541949 -0.017646
C58   C     C_R   0.589234 0.118943 0.466051 -0.073806
C59   C     C_R   0.439168 0.238805 0.519898 -0.313808
C60   C     C_R   0.616676 0.805749 0.507042 0.023182
C61   C     C_3   0.950922 0.834565 0.595687 -0.379090
C62   C     C_3   0.692141 0.347608 0.372628 0.296063
C63   C     C_3   0.697851 0.327233 0.316088 -0.330036
C64   C     C_3   0.482771 0.788151 0.365836 0.408646
C65   C     C_3   0.423396 0.880654 0.348887 0.359893
C66   C     C_R   0.012224 0.434754 0.178698 0.600280
H1    H     H_    0.731423 0.213613 0.594068 0.076443
H2    H     H_    0.811547 0.366802 0.387316 -0.002534
H3    H     H_    0.592204 0.404537 0.382297 0.075067
H4    H     H_    0.887670 0.105535 0.646526 0.150674
H5    H     H_    0.803873 0.274364 0.305231 0.146037
H6    H     H_    0.711788 0.389023 0.299592 0.059503
H7    H     H_    0.581395 0.303250 0.301018 0.144638
H8    H     H_    0.556325 0.227101 0.634667 -0.059606
H9    H     H_    0.693909 0.070017 0.623833 0.067815
H10   H     H_    0.371843 0.668078 0.616933 0.021049
H11   H     H_    0.587621 0.618570 0.620493 0.064197
H12   H     H_    0.312135 0.137820 0.372473 0.133252
H13   H     H_    0.408948 0.767095 0.696146 0.132599
H14   H     H_    0.465331 0.649244 0.703795 0.077518
H15   H     H_    0.624611 0.718776 0.699443 0.133696
H16   H     H_    0.715080 0.120568 0.687829 0.121656
H17   H     H_    0.113491 0.318135 0.736823 0.110187
H18   H     H_    0.998178 0.693248 0.339335 -0.000517
H19   H     H_    0.867452 0.803505 0.352604 0.060054
H20   H     H_    0.150144 0.753897 0.278685 0.164185
H21   H     H_    0.932101 0.783224 0.265611 0.170275
H22   H     H_    0.046454 0.867917 0.296866 0.156492
H23   H     H_    0.249089 0.129444 0.434667 0.098057
H24   H     H_    0.619223 0.776320 0.365312 -0.140434
H25   H     H_    0.444532 0.790820 0.405003 0.008190
H26   H     H_    0.474007 0.933511 0.375241 -0.022947
H27   H     H_    0.060453 0.332365 0.651632 0.097434
H28   H     H_    0.287238 0.896021 0.349584 0.081596
H29   H     H_    0.146199 0.450159 0.283851 0.126774
H30   H     H_    0.149798 0.287553 0.118443 0.132122
H31   H     H_    0.534875 0.413590 0.751440 0.118521
H32   H     H_    0.344606 0.272645 0.876171 0.123059
H33   H     H_    0.282645 0.275699 0.960749 0.071516
H34   H     H_    0.095454 0.147423 0.386100 0.167340
H35   H     H_    0.215960 0.278765 0.033595 0.073438
H36   H     H_    0.662355 0.594185 0.249214 0.135656
H37   H     H_    0.863558 0.731383 0.125985 0.133045
H38   H     H_    0.964739 0.720572 0.966296 0.071847
H39   H     H_    0.279072 0.289526 0.655115 -0.053508
H40   H     H_    0.031029 0.712051 0.881587 0.123388
H41   H     H_    0.043148 0.549567 0.717006 0.128145
H42   H     H_    0.924611 0.728042 0.041419 0.074794
H43   H     H_    0.826295 0.545833 0.401532 0.080018
H44   H     H_    0.396369 0.491574 0.605033 0.069951
H45   H     H_    0.859934 0.708775 0.569972 0.004731
H46   H     H_    0.401999 0.310420 0.530414 0.078456
H47   H     H_    0.245717 0.039143 0.574123 0.096053
H48   H     H_    0.637124 0.101799 0.429308 0.172979
H49   H     H_    0.802232 0.702717 0.476028 0.070944
H50   H     H_    0.025671 0.217975 0.713718 0.147526
H51   H     H_    0.356398 0.885880 0.561469 0.096083
H52   H     H_    0.246140 0.210706 0.723796 0.132087
H53   H     H_    0.334973 0.282026 0.423730 -0.014291
H54   H     H_    0.129416 0.287308 0.446664 0.077554
H55   H     H_    0.505805 0.800917 0.217040 0.371877
H56   H     H_    0.066927 0.714004 0.552363 0.077937
H57   H     H_    0.910026 0.032612 0.358033 0.363311
H58   H     H_    0.853767 0.855123 0.623965 0.131204
H59   H     H_    0.912173 0.867559 0.562014 0.057678
H60   H     H_    0.067725 0.858051 0.610834 0.120622
N1    N     N_R   0.943145 0.515808 0.205086 -0.423146
N2    N     N_R   0.250875 0.486543 0.796011 -0.422512
O1    O     O_2   0.906490 0.548660 0.619040 -0.458337
O2    O     O_2   0.185177 0.818691 0.472843 -0.433771
O3    O     O_3   0.111160 0.796842 0.378616 -0.548388
O4    O     O_3   0.138490 0.548590 0.558860 -0.495847
O5    O     O_3   0.572560 0.389970 0.472910 -0.503618
O6    O     O_2   0.345680 0.723560 0.528460 -0.472795
O7    O     O_3   0.542551 0.752521 0.607084 -0.645225
O8    O     O_2   0.412626 0.543378 0.324112 -0.488062
O9    O     O_3   0.413325 0.719188 0.335302 -0.552143
O10   O     O_2   0.036340 0.366281 0.199170 -0.585987
O11   O     O_2   0.351890 0.338961 0.798010 -0.621611
O12   O     O_3   0.662823 0.270097 0.391963 -0.616251
O13   O     O_2   0.853642 0.664831 0.203715 -0.611927
O14   O     O_2   0.149151 0.634825 0.801497 -0.596941
O15   O     O_3   0.686290 0.382320 0.585720 -0.484039
O16   O     O_2   0.789834 0.453907 0.675366 -0.498679
O17   O     O_3   0.036206 0.693727 0.625601 -0.625199
O18   O     O_3   0.765101 0.280745 0.665123 -0.598333
O19   O     O_2   0.844020 0.276410 0.471510 -0.434007
O20   O     O_3   0.101490 0.335510 0.560360 -0.501890
O21   O     O_2   0.008429 0.177833 0.535255 -0.406550
O22   O     O_2   0.392924 0.971719 0.269325 -0.266450
O23   O     O_3   0.128471 0.197196 0.625186 -0.617189
O24   O     O_2   0.669217 0.895037 0.289041 -0.291418
O25   O     O_3   0.450000 0.796456 0.248181 -0.510926
O26   O     O_2   0.908045 0.086626 0.460558 -0.303227
O27   O     O_2   0.089321 0.958495 0.427929 -0.305868
O28   O     O_3   0.830620 0.003316 0.374571 -0.524722
O29   O     O_2   0.283210 0.451320 0.380930 -0.462066
O30   O     O_3   0.051220 0.451340 0.441130 -0.502099
O31   O     O_3   0.503420 0.617610 0.414270 -0.479594
O32   O     O_3   0.148397 0.306601 0.372465 -0.619293
O33   O     O_3   0.617160 0.609950 0.527080 -0.480209
O34   O     O_3   0.088220 0.664410 0.439630 -0.490418
P1    P     P_3+3 0.071960 0.575810 0.612130 0.987713
P2    P     P_3+3 0.664360 0.290070 0.457280 1.032968
P3    P     P_3+3 0.149242 0.220398 0.564312 0.958171
P4    P     P_3+3 0.117760 0.424110 0.387870 0.996004
P5    P     P_3+3 0.053339 0.779419 0.437443 1.051957
P6    P     P_3+3 0.676182 0.386811 0.650192 0.944561
P7    P     P_3+3 0.534306 0.724186 0.542166 0.939492
P8    P     P_3+3 0.515788 0.615297 0.349946 0.990588
S1    S     S_3+6 0.487451 0.888100 0.287475 -0.052075
S2    S     S_3+6 0.909731 0.994695 0.432531 -0.125474

loop_
_geom_bond_atom_site_label_1
_geom_bond_atom_site_label_2
_ccdc_geom_bond_type
C19   C24   A    
C40   H12   S    
C16   H52   S    
C49   S2    S    
Ba1   O15   S    
C53   C54   A    
C2    O13   D    
O17   P1    S    
C51   C57   A    
C55   H47   S    
H55   O25   S    
C54   C55   A    
C60   P7    S    
C10   C66   A    
O26   S2    D    
C24   C25   A    
Ba2   O4    S    
C20   H33   S    
C39   H37   S    
C25   C26   A    
C17   C19   A    
C22   C24   A    
Ba1   Ba2   S    
C35   C38   A    
C36   C37   A    
C55   C57   A    
C52   C61   S    
C34   H15   S    
C52   H45   S    
C12   O18   S    
C7    H29   S    
C63   H5    S    
O29   P4    D    
C32   C33   S    
C62   H3    S    
C11   H30   S    
O3    P5    S    
C22   C27   A    
C11   C38   A    
C52   H56   S    
C17   C35   A    
O31   P8    S    
C9    C13   A    
C25   C42   A    
O28   S2    S    
C47   H49   S    
C64   O9    S    
C28   H54   S    
C34   H14   S    
Ba2   O29   S    
C65   H26   S    
O18   P6    S    
C4    H39   S    
O6    P7    D    
Ba1   O19   S    
C26   O14   D    
C29   H31   S    
C6    P4    S    
C7    C8    S    
C16   H50   S    
C61   H60   S    
C50   C53   A    
O27   S2    D    
C37   C43   A    
O25   S1    S    
C21   H32   S    
C3    H36   S    
C6    C14   D    
C23   H11   S    
C53   C58   A    
O23   P3    S    
O34   P5    S    
C15   C31   D    
C40   H34   S    
Ba2   O31   S    
C46   C58   A    
C42   H40   S    
C4    C16   S    
C16   H17   S    
C44   P3    S    
C44   C59   A    
O8    P8    D    
C49   C50   A    
C4    O23   S    
C45   H18   S    
Ba1   O20   S    
C17   C20   A    
C13   C39   A    
Ba2   O34   S    
C3    C5    S    
C18   C37   A    
H57   O28   S    
C6    C7    D    
C64   H24   S    
Ba2   O6    S    
C63   H6    S    
C23   H10   S    
C41   H38   S    
C12   H8    S    
C9    C36   A    
C23   O7    S    
C41   C42   A    
C35   C36   A    
O12   P2    S    
C51   C60   A    
C27   N2    Am   
C28   H53   S    
Ba1   P1    S    
C34   H13   S    
C21   C22   A    
C27   O11   D    
C5    P8    S    
C48   C49   A    
O4    P1    S    
O9    P8    S    
C10   C11   A    
C56   H22   S    
C33   N2    S    
Ba1   O33   S    
C1    C12   S    
C64   H25   S    
O32   P4    S    
O22   S1    D    
C5    C14   S    
C47   C48   A    
C62   H2    S    
O16   P6    D    
C65   H28   S    
C12   H1    S    
C29   C33   D    
C66   O10   D    
O2    P5    D    
C28   O32   S    
Ba1   O4    S    
C1    H9    S    
C15   H44   S    
Ba2   P4    S    
C1    H16   S    
C18   C41   A    
O33   P7    S    
C50   C51   A    
C15   C30   S    
C30   P6    S    
O15   P6    S    
C57   H51   S    
C47   C60   A    
O24   S1    D    
C43   H42   S    
C29   C30   S    
C31   P1    S    
O19   P2    D    
Ba1   O1    S    
C56   H20   S    
Ba2   O33   S    
C9    C10   A    
C2    N1    Am   
Ba2   O5    S    
C63   H7    S    
C62   C63   S    
C2    C13   A    
C1    H4    S    
C8    N1    S    
C3    C8    D    
C38   H35   S    
C46   C59   A    
Ba1   O30   S    
C62   O12   S    
Ba1   P2    S    
C65   S1    S    
O21   P3    D    
O20   P3    S    
O5    P2    S    
C31   C32   D    
C64   C65   S    
C48   P5    S    
C26   N2    Am   
O30   P4    S    
C66   N1    Am   
C56   H21   S    
C61   H59   S    
O7    P7    S    
C61   H58   S    
C58   H48   S    
C23   C34   S    
C46   P2    S    
C18   C19   A    
O1    P1    D    
Ba2   O30   S    
C4    H27   S    
C44   C54   A    
C59   H46   S    
C32   H41   S    
C39   C43   A    
C20   C21   A    
C28   C40   S    
Ba1   O5    S    
C45   O3    S    
C40   H23   S    
C14   H43   S    
C45   H19   S    
C52   O17   S    
C45   C56   S    
