data_mof_unit_53806.cif
_audit_creation_date              2012-12-10T17:21:38-0500
_audit_creation_method            fapswitch 2.2
_symmetry_space_group_name_H-M    P1
_symmetry_Int_Tables_number       1
_space_group_crystal_system       triclinic
_cell_length_a                    10.736906
_cell_length_b                    10.938019
_cell_length_c                    9.603198
_cell_angle_alpha                 90.375894
_cell_angle_beta                  90.389274
_cell_angle_gamma                 94.030771
_cell_volume                      1124.96054424

loop_
_atom_site_label
_atom_site_type_symbol
_atom_type_description
_atom_site_fract_x
_atom_site_fract_y
_atom_site_fract_z
_atom_type_partial_charge
C1    C     C_R   0.485370 0.262810 0.500232 0.792228
C2    C     C_3   0.877919 0.497140 0.501224 0.163561
C3    C     C_3   0.935613 0.612724 0.425884 -0.471479
C4    C     C_3   0.919703 0.380989 0.422583 0.036700
C5    C     C_R   0.441687 0.114373 0.760314 -0.147018
C6    C     C_R   0.483678 0.062367 0.882500 -0.146493
C7    C     C_R   0.553549 0.960517 0.873805 -0.110246
C8    C     C_R   0.565813 0.902632 0.745374 -0.138563
C9    C     C_R   0.509232 0.944446 0.624497 0.077370
C10   C     C_R   0.468936 0.063493 0.628909 0.100662
C11   C     C_R   0.465515 0.128611 0.502665 -0.144796
C12   C     C_R   0.259986 0.499310 0.499901 0.756557
C13   C     C_R   0.459377 0.063712 0.376744 -0.259992
C14   C     C_R   0.465269 0.936974 0.374763 -0.025506
C15   C     C_R   0.496661 0.874893 0.498783 -0.176787
C16   C     C_R   0.675841 0.655570 0.147760 -0.138231
C17   C     C_R   0.768794 0.724385 0.077941 -0.227489
C18   C     C_R   0.774172 0.718253 0.934894 -0.236838
C19   C     C_R   0.684637 0.645724 0.861298 -0.179765
C20   C     C_R   0.590203 0.572129 0.927507 0.227712
C21   C     C_R   0.588066 0.574616 0.076657 0.235381
C22   C     C_R   0.414392 0.430529 0.072709 -0.067350
C23   C     C_R   0.501728 0.738863 0.499942 0.763420
C24   C     C_R   0.413300 0.432016 0.924871 -0.067337
C25   C     C_R   0.739948 0.499869 0.500489 0.750405
C26   C     C_3   0.072070 0.495457 0.652111 -0.372271
C27   C     C_3   0.930038 0.500371 0.652754 -0.362110
C28   C     C_3   0.079404 0.614553 0.427937 -0.372324
C29   C     C_3   0.064510 0.383095 0.422117 -0.388694
C30   C     C_3   0.121906 0.498233 0.500335 0.127780
Cu1   Cu    Cu3+1 0.499990 0.499990 0.640660 0.927988
Cu2   Cu    Cu3+1 0.500010 0.500010 0.359340 0.933026
H1    H     H_    0.114798 0.574883 0.712985 0.180816
H2    H     H_    0.887381 0.385418 0.312322 0.161060
H3    H     H_    0.114650 0.619636 0.319233 0.182323
H4    H     H_    0.902610 0.613325 0.315925 0.176872
H5    H     H_    0.448047 0.111712 0.279442 0.157934
H6    H     H_    0.387420 0.193206 0.769536 0.138522
H7    H     H_    0.467229 0.104357 0.982501 0.130317
H8    H     H_    0.597327 0.925893 0.965904 0.161454
H9    H     H_    0.627876 0.832363 0.737045 0.133204
H10   H     H_    0.344285 0.373468 0.126884 0.124334
H11   H     H_    0.097695 0.410341 0.704964 0.161026
H12   H     H_    0.675741 0.671176 0.256979 0.189443
H13   H     H_    0.835468 0.784647 0.135197 0.147023
H14   H     H_    0.844677 0.774297 0.879835 0.146247
H15   H     H_    0.688685 0.657063 0.752424 0.183626
H16   H     H_    0.341075 0.377724 0.869058 0.115497
H17   H     H_    0.887470 0.423189 0.715084 0.183094
H18   H     H_    0.906451 0.586513 0.705475 0.163317
H19   H     H_    0.118816 0.697976 0.484153 0.163285
H20   H     H_    0.905466 0.697304 0.476976 0.153716
H21   H     H_    0.097524 0.383410 0.312454 0.147303
H22   H     H_    0.098110 0.299437 0.471365 0.157498
N1    N     N_R   0.501200 0.501210 0.147910 -0.197639
N2    N     N_R   0.501250 0.501290 0.852040 -0.195121
O1    O     O_R   0.499990 0.319640 0.618810 -0.580348
O2    O     O_R   0.500000 0.319660 0.381240 -0.578426
O3    O     O_R   0.317680 0.499970 0.618790 -0.589862
O4    O     O_R   0.317700 0.499990 0.381210 -0.583325
O5    O     O_R   0.500000 0.680340 0.618760 -0.584235
O6    O     O_R   0.500010 0.680360 0.381190 -0.582369
O7    O     O_R   0.682300 0.500010 0.618790 -0.601781
O8    O     O_R   0.682320 0.500030 0.381210 -0.605816
C31   C     C_1   0.437094 0.875361 0.243476 0.253153
N3    N     N_1   0.413384 0.825953 0.138690 -0.293645
C32   C     C_3   0.862013 0.258928 0.480822 -0.889622
H23   H     H_    0.889613 0.181689 0.414821 0.230638
H24   H     H_    0.894644 0.243638 0.588770 0.239747
H25   H     H_    0.758589 0.256737 0.479565 0.241240

loop_
_geom_bond_atom_site_label_1
_geom_bond_atom_site_label_2
_ccdc_geom_bond_type
C4    C32   S    
C2    C4    S    
C3    H20   S    
C16   C21   A    
C6    H7    S    
C1    O1    A    
Cu1   N2    S    
C24   N2    A    
C9    C10   A    
C16   H12   S    
C26   H1    S    
C13   H5    S    
C4    C29   S    
C1    C11   S    
C27   H18   S    
Cu2   O2    S    
C20   N2    A    
C32   H25   S    
C2    C27   S    
Cu1   O1    S    
C19   C20   A    
C15   C23   S    
C17   C18   A    
C9    C15   A    
C22   N1    A    
Cu2   O6    S    
C5    C10   A    
C22   H10   S    
C1    O2    A    
C20   C21   A    
C11   C13   A    
C26   C27   S    
C29   C30   S    
C29   H21   S    
C3    H4    S    
C18   H14   S    
C28   C30   S    
C3    C28   S    
C14   C31   S    
C17   H13   S    
C26   H11   S    
C26   C30   S    
C2    C25   S    
C2    C3    S    
C10   C11   A    
C12   O3    A    
C4    H2    S    
C5    C6    A    
C28   H19   S    
C22   C24   A    
C16   C17   A    
C29   H22   S    
Cu2   O4    S    
C32   H23   S    
C12   O4    A    
Cu1   O7    S    
C7    C8    A    
C8    H9    S    
Cu2   O8    S    
Cu1   Cu2   S    
C31   N3    T    
C25   O7    A    
C19   H15   S    
Cu1   O3    S    
C21   N1    A    
Cu1   O5    S    
C14   C15   A    
C18   C19   A    
C28   H3    S    
Cu2   N1    S    
C13   C14   A    
C12   C30   S    
C5    H6    S    
C7    H8    S    
C23   O6    A    
C6    C7    A    
C27   H17   S    
C23   O5    A    
C8    C9    A    
C32   H24   S    
C25   O8    A    
C24   H16   S    
