data_mof_unit_68054.cif
_audit_creation_date              2012-12-11T14:39:21-0500
_audit_creation_method            fapswitch 2.2
_symmetry_space_group_name_H-M    P1
_symmetry_Int_Tables_number       1
_space_group_crystal_system       triclinic
_cell_length_a                    7.244449
_cell_length_b                    13.625874
_cell_length_c                    16.794186
_cell_angle_alpha                 90.002641
_cell_angle_beta                  96.557246
_cell_angle_gamma                 89.900175
_cell_volume                      1646.93949846

loop_
_atom_site_label
_atom_site_type_symbol
_atom_type_description
_atom_site_fract_x
_atom_site_fract_y
_atom_site_fract_z
_atom_type_partial_charge
O1    O     O_R   0.525340 0.338340 0.164530 -0.514928
O2    O     O_R   0.474660 0.661660 0.835470 -0.496166
O3    O     O_R   0.974660 0.838340 0.835470 -0.514903
O4    O     O_R   0.025340 0.161660 0.164530 -0.536800
O5    O     O_R   0.253520 0.352000 0.336710 -0.527660
O6    O     O_R   0.746480 0.648000 0.663290 -0.529425
O7    O     O_R   0.246480 0.852000 0.663290 -0.529580
O8    O     O_R   0.753520 0.148000 0.336710 -0.522642
O9    O     O_R   0.083330 0.168380 0.337300 -0.531884
O10   O     O_R   0.916670 0.831620 0.662700 -0.533427
O11   O     O_R   0.416670 0.668380 0.662700 -0.527631
O12   O     O_R   0.583330 0.331620 0.337300 -0.531325
C1    C     C_R   0.432277 0.376040 0.358534 0.633169
C2    C     C_R   0.568283 0.624984 0.640679 0.645004
C3    C     C_R   0.067348 0.875344 0.640892 0.628975
C4    C     C_R   0.932331 0.125043 0.359286 0.641971
O13   O     O_R   0.195840 0.349670 0.165140 -0.542478
O14   O     O_R   0.804160 0.650330 0.834860 -0.513104
O15   O     O_R   0.304160 0.849670 0.834860 -0.545123
O16   O     O_R   0.695840 0.150330 0.165140 -0.497387
C5    C     C_R   0.356727 0.369260 0.135325 0.785745
C6    C     C_R   0.644490 0.638471 0.867714 0.778204
C7    C     C_R   0.143234 0.869036 0.864756 0.784206
C8    C     C_R   0.855624 0.137957 0.132548 0.807721
O17   O     O_3   0.387830 0.193120 0.250910 -0.358555
O18   O     O_3   0.612170 0.806880 0.749090 -0.379998
O19   O     O_3   0.112170 0.693120 0.749090 -0.350551
O20   O     O_3   0.887830 0.306880 0.250910 -0.376296
V1    V     V_3+5 0.113010 0.264540 0.250910 1.626137
V2    V     V_3+5 0.886990 0.735460 0.749090 1.688112
V3    V     V_3+5 0.386990 0.764540 0.749090 1.666235
V4    V     V_3+5 0.613010 0.235460 0.250910 1.691936
C9    C     C_R   0.996396 0.207322 0.513081 -0.255234
C10   C     C_R   0.008870 0.792651 0.487126 -0.251370
C11   C     C_R   0.504002 0.707420 0.487295 -0.255103
C12   C     C_R   0.479900 0.292837 0.511686 -0.248723
C13   C     C_R   0.018349 0.254110 0.586615 0.315960
C14   C     C_R   0.993840 0.745291 0.413979 0.315010
C15   C     C_R   0.487590 0.754736 0.414037 0.316527
C16   C     C_R   0.500390 0.244550 0.584361 0.317383
C17   C     C_R   0.023667 0.199276 0.656604 0.395961
C18   C     C_R   0.983804 0.799767 0.343720 0.389631
C19   C     C_R   0.486195 0.700366 0.343995 0.390328
C20   C     C_R   0.529508 0.297966 0.654961 0.383746
C21   C     C_R   0.007896 0.095887 0.652454 -0.115062
C22   C     C_R   0.983185 0.903453 0.346771 -0.111723
C23   C     C_R   0.496140 0.596687 0.347649 -0.106673
C24   C     C_R   0.543299 0.401331 0.652753 -0.104994
C25   C     C_R   0.009208 0.045630 0.577412 0.009226
C26   C     C_R   0.985592 0.954135 0.422035 0.001689
C27   C     C_R   0.491791 0.546070 0.422438 0.006205
C28   C     C_R   0.523824 0.453450 0.577651 0.000167
C29   C     C_R   0.992053 0.103536 0.506401 0.064426
C30   C     C_R   0.007149 0.896399 0.493331 0.064267
C31   C     C_R   0.508721 0.603585 0.493655 0.062714
C32   C     C_R   0.490544 0.396523 0.506081 0.064197
C33   C     C_R   0.027058 0.941260 0.570219 -0.027711
C34   C     C_R   0.970652 0.058717 0.429510 -0.039542
C35   C     C_R   0.471232 0.441814 0.429335 -0.030114
C36   C     C_R   0.533199 0.558395 0.570452 -0.044748
H1    H     H_    0.986269 0.254682 0.461139 0.171568
H2    H     H_    0.021746 0.745590 0.539274 0.168968
H3    H     H_    0.512508 0.754573 0.539319 0.170468
H4    H     H_    0.455670 0.246381 0.459385 0.169719
C37   C     C_2   0.154157 0.940608 0.933556 -0.274860
C38   C     C_2   0.845491 0.093851 0.050539 -0.243534
C39   C     C_2   0.345784 0.441148 0.066662 -0.266161
C40   C     C_2   0.654512 0.594573 0.949902 -0.327228
C41   C     C_2   0.004266 0.970498 0.971179 0.326352
C42   C     C_2   0.004501 0.061485 0.023399 0.180711
C43   C     C_2   0.495750 0.471055 0.029116 0.309003
C44   C     C_2   0.495520 0.562204 0.976988 0.255054
Cl1   Cl    Cl    0.984487 0.736313 0.251745 -0.395865
Cl2   Cl    Cl    0.038497 0.262464 0.749322 -0.367398
Cl3   Cl    Cl    0.543266 0.233663 0.747016 -0.408521
Cl4   Cl    Cl    0.485541 0.764482 0.252093 -0.382159
Cl5   Cl    Cl    0.027992 0.383385 0.588565 -0.562006
Cl6   Cl    Cl    0.998679 0.615977 0.413063 -0.570907
Cl7   Cl    Cl    0.482723 0.884097 0.412819 -0.559615
Cl8   Cl    Cl    0.488161 0.115360 0.584505 -0.569753
C45   C     C_2   0.956904 0.046906 0.724675 0.804859
O21   O     O_2   0.060155 0.052524 0.787028 -0.574778
O22   O     O_R   0.781932 0.003772 0.723473 -0.602601
H5    H     H_    0.754061 0.983063 0.778790 0.331894
C46   C     C_2   0.006214 0.953282 0.271054 0.850168
O23   O     O_2   0.877463 0.954821 0.217340 -0.505607
O24   O     O_R   0.182050 0.987448 0.258119 -0.601445
H6    H     H_    0.190631 0.004925 0.200060 0.336714
C47   C     C_2   0.542886 0.547278 0.274903 0.803733
O25   O     O_2   0.437151 0.553726 0.213297 -0.574905
O26   O     O_R   0.716916 0.503210 0.274568 -0.602332
H7    H     H_    0.742326 0.482787 0.218844 0.332131
C48   C     C_2   0.579422 0.448782 0.731265 0.844451
O27   O     O_2   0.449490 0.479897 0.764295 -0.512935
O28   O     O_R   0.758871 0.444901 0.771649 -0.584742
H8    H     H_    0.762539 0.459613 0.830843 0.341453
Cl9   Cl    Cl    0.161014 0.158222 0.009132 -0.537131
Cl10  Cl    Cl    0.799832 0.898485 0.964188 -0.545016
Cl11  Cl    Cl    0.338440 0.658965 0.991158 -0.527256
Cl12  Cl    Cl    0.700123 0.398633 0.035835 -0.571731
C49   C     C_2   0.704516 0.142121 0.990704 1.042515
O29   O     O_2   0.565149 0.177695 0.013326 -0.453450
O30   O     O_R   0.728490 0.152973 0.909490 -0.554835
H9    H     H_    0.847339 0.125456 0.892636 0.330084
C50   C     C_2   0.342869 0.977475 0.960346 0.989245
O31   O     O_2   0.404400 0.971996 0.031022 -0.462615
O32   O     O_R   0.454244 0.015614 0.905253 -0.605061
H10   H     H_    0.387091 0.026364 0.849783 0.331110
C51   C     C_2   0.795046 0.642910 0.009739 1.060237
O33   O     O_2   0.934198 0.678429 0.987087 -0.453037
O34   O     O_R   0.770982 0.653827 0.090971 -0.551034
H11   H     H_    0.652504 0.626058 0.107829 0.327809
C52   C     C_2   0.156943 0.478137 0.039820 0.985820
O35   O     O_2   0.095855 0.473089 0.969076 -0.464474
O36   O     O_R   0.044809 0.515744 0.094924 -0.606834
H12   H     H_    0.111450 0.526143 0.150514 0.331776

loop_
_geom_bond_atom_site_label_1
_geom_bond_atom_site_label_2
_ccdc_geom_bond_type
O24   H6    S    
O1    C5    A    
C48   O27   D    
C20   Cl3   S    
O28   H8    S    
O13   V1    S    
C50   O31   D    
O3    C7    A    
O34   H11   S    
O15   V3    S    
C45   O21   D    
C46   O23   D    
C50   O32   S    
C49   O29   D    
O20   V1    S    
O9    C4    A    
C14   C18   A    
O10   C3    A    
C51   O34   S    
O4    C8    A    
O11   C2    A    
C25   C29   A    
O36   H12   S    
C10   H2    S    
C25   C33   A    
C18   C22   A    
C49   O30   S    
C28   C36   A    
C17   Cl2   S    
O16   C8    A    
C3    C33   S    
O2    C6    A    
O32   H10   S    
C16   Cl8   S    
O14   V2    S    
C47   O26   S    
C16   C20   A    
O5    C1    A    
O4    V1    S    
C42   Cl9   S    
C8    C38   S    
C22   C46   S    
C41   Cl10  S    
O17   V4    S    
O7    C3    A    
O11   V3    S    
O18   V3    S    
C48   O28   S    
O14   C6    A    
C31   C36   A    
C5    C39   S    
O19   V2    S    
C23   C47   S    
C38   C49   S    
C37   C50   S    
C45   O22   S    
O5    V1    S    
C46   O24   S    
C9    C29   A    
O7    V3    S    
C24   C48   S    
C11   C31   A    
C26   C34   A    
C12   C16   A    
O26   H7    S    
O15   C7    A    
C15   C19   A    
C14   Cl6   S    
C27   C31   A    
C13   Cl5   S    
O1    V4    S    
O13   C5    A    
O2    V3    S    
C15   Cl7   S    
O3    V2    S    
C11   C15   A    
C12   C32   A    
O6    C2    A    
O10   V2    S    
O22   H5    S    
C21   C25   A    
C40   C44   D    
C4    C34   S    
C6    C40   S    
O6    V2    S    
C10   C30   A    
C27   C35   A    
C52   O35   D    
O16   V4    S    
C19   Cl4   S    
C18   Cl1   S    
O8    C4    A    
C10   C14   A    
C21   C45   S    
C23   C27   A    
C29   C34   A    
C1    C35   S    
O9    V1    S    
C2    C36   S    
C43   Cl12  S    
C22   C26   A    
C32   C35   A    
C7    C37   S    
C39   C52   S    
C43   C44   S    
C26   C30   A    
C51   O33   D    
C38   C42   D    
O8    V4    S    
C37   C41   D    
C39   C43   D    
C40   C51   S    
C13   C17   A    
C41   C42   S    
C9    C13   A    
C28   C32   A    
C24   C28   A    
O12   C1    A    
C9    H1    S    
O30   H9    S    
C17   C21   A    
C11   H3    S    
C47   O25   D    
C12   H4    S    
C19   C23   A    
C44   Cl11  S    
O12   V4    S    
C20   C24   A    
C52   O36   S    
C30   C33   A    
