data_mof_unit_33615.cif
_audit_creation_date              2012-12-10T22:11:11-0500
_audit_creation_method            fapswitch 2.2
_symmetry_space_group_name_H-M    P1
_symmetry_Int_Tables_number       1
_space_group_crystal_system       triclinic
_cell_length_a                    12.126008
_cell_length_b                    12.339259
_cell_length_c                    23.068317
_cell_angle_alpha                 90.975853
_cell_angle_beta                  90.863344
_cell_angle_gamma                 89.579536
_cell_volume                      3450.63994821

loop_
_atom_site_label
_atom_site_type_symbol
_atom_type_description
_atom_site_fract_x
_atom_site_fract_y
_atom_site_fract_z
_atom_type_partial_charge
C1    C     C_R   0.657180 0.997694 0.579138 0.869899
C2    C     C_R   0.342820 0.002306 0.420862 0.869899
C3    C     C_R   0.897800 0.819571 0.122531 0.321657
C4    C     C_R   0.102199 0.180428 0.877469 0.321659
C5    C     C_R   0.090510 0.855283 0.189547 0.068231
C6    C     C_R   0.909490 0.144718 0.810453 0.068235
C7    C     C_R   0.084501 0.769883 0.150281 -0.351990
C8    C     C_R   0.915500 0.230120 0.849718 -0.351990
C9    C     C_R   0.901023 0.184068 0.203033 0.490306
C10   C     C_R   0.098976 0.815931 0.796967 0.490305
C11   C     C_R   0.911689 0.273451 0.166541 -0.062680
C12   C     C_R   0.088310 0.726548 0.833459 -0.062677
C13   C     C_R   0.109081 0.911932 0.325269 0.144806
C14   C     C_R   0.890920 0.088067 0.674731 0.144804
C15   C     C_R   0.192866 0.911688 0.366904 -0.242174
C16   C     C_R   0.807136 0.088311 0.633095 -0.242176
C17   C     C_R   0.883989 0.092620 0.330183 -0.104622
C18   C     C_R   0.116010 0.907380 0.669817 -0.104622
C19   C     C_R   0.804743 0.089811 0.372136 -0.281689
C20   C     C_R   0.195256 0.910190 0.627864 -0.281688
C21   C     C_3   0.992243 0.010084 0.248263 -0.011992
C22   C     C_3   0.007757 0.989916 0.751737 -0.011992
C23   C     C_R   0.653472 0.000824 0.420382 0.914265
C24   C     C_R   0.346528 0.999176 0.579618 0.914266
C25   C     C_R   0.090230 0.005835 0.291264 0.118846
C26   C     C_R   0.909770 0.994165 0.708736 0.118844
C27   C     C_R   0.256194 0.004061 0.377094 -0.035711
C28   C     C_R   0.743806 0.995939 0.622906 -0.035710
C29   C     C_R   0.895266 0.006740 0.289608 0.237528
C30   C     C_R   0.104734 0.993260 0.710392 0.237527
C31   C     C_R   0.735841 0.000173 0.375656 -0.079254
C32   C     C_R   0.264159 0.999827 0.624344 -0.079254
C33   C     C_R   0.992518 0.112511 0.210979 0.026510
C34   C     C_R   0.007481 0.887490 0.789021 0.026510
C35   C     C_R   0.001167 0.276401 0.128282 -0.105959
C36   C     C_R   0.998832 0.723600 0.871718 -0.105960
C37   C     C_R   0.993483 0.916710 0.202541 0.055306
C38   C     C_R   0.006517 0.083290 0.797459 0.055306
C39   C     C_R   0.989327 0.750711 0.117483 -0.135187
C40   C     C_R   0.010674 0.249290 0.882517 -0.135187
C41   C     C_R   0.992045 0.662782 0.074893 0.929805
C42   C     C_R   0.007955 0.337218 0.925107 0.929809
C43   C     C_R   0.999913 0.354314 0.081753 0.890141
C44   C     C_R   0.000086 0.645686 0.918247 0.890136
C45   C     C_R   0.153089 0.099496 0.304106 -0.233362
C46   C     C_R   0.846910 0.900504 0.695894 -0.233361
C47   C     C_R   0.235577 0.098064 0.346010 -0.183588
C48   C     C_R   0.764422 0.901936 0.653991 -0.183587
C49   C     C_R   0.827453 0.915204 0.294558 -0.204564
C50   C     C_R   0.172548 0.084795 0.705443 -0.204570
C51   C     C_R   0.746254 0.911944 0.336673 0.418945
C52   C     C_R   0.253747 0.088056 0.663327 0.418944
C53   C     C_R   0.086277 0.126357 0.176691 -0.316612
C54   C     C_R   0.913724 0.873645 0.823310 -0.316606
C55   C     C_R   0.089500 0.203034 0.133769 0.072832
C56   C     C_R   0.910501 0.796968 0.866232 0.072832
C57   C     C_R   0.898161 0.900835 0.166304 0.290843
C58   C     C_R   0.101838 0.099164 0.833696 0.290841
H1    H     H_    0.282796 0.171048 0.354294 0.163636
H2    H     H_    0.717202 0.828952 0.645707 0.163636
H3    H     H_    0.839164 0.844108 0.267388 0.132828
H4    H     H_    0.160837 0.155891 0.732612 0.132829
H5    H     H_    0.156141 0.072604 0.181388 0.187543
H6    H     H_    0.843860 0.927399 0.818614 0.187543
H7    H     H_    0.937082 0.162707 0.329006 0.134326
H8    H     H_    0.062917 0.837294 0.670994 0.134327
H9    H     H_    0.157906 0.720674 0.143876 0.195366
H10   H     H_    0.842095 0.279329 0.856122 0.195365
H11   H     H_    0.206955 0.839156 0.391896 0.156270
H12   H     H_    0.793048 0.160843 0.608102 0.156270
H13   H     H_    0.798498 0.157561 0.402445 0.175599
H14   H     H_    0.201500 0.842440 0.597554 0.175599
H15   H     H_    0.137185 0.176120 0.283542 0.149992
H16   H     H_    0.862812 0.823880 0.716459 0.149993
O1    O     O_R   0.621380 0.090460 0.561410 -0.623409
O2    O     O_R   0.378620 0.909540 0.438590 -0.623410
O3    O     O_R   0.617150 0.909540 0.438590 -0.560315
O4    O     O_R   0.382850 0.090460 0.561410 -0.560316
O5    O     O_R   0.619720 0.093230 0.440890 -0.645241
O6    O     O_R   0.380280 0.906770 0.559110 -0.645241
O7    O     O_R   0.618800 0.906770 0.559110 -0.634883
O8    O     O_R   0.381200 0.093230 0.440890 -0.634883
O9    O     O_R   0.087590 0.627480 0.058790 -0.649718
O10   O     O_R   0.912410 0.372520 0.941210 -0.649717
O11   O     O_R   0.905660 0.383870 0.059980 -0.604362
O12   O     O_R   0.094340 0.616130 0.940020 -0.604361
O13   O     O_R   0.092570 0.390420 0.063230 -0.605747
O14   O     O_R   0.907430 0.609580 0.936770 -0.605751
O15   O     O_R   0.900680 0.620930 0.055550 -0.562961
O16   O     O_R   0.099320 0.379070 0.944450 -0.562960
Zn1   Zn    Zn3+2 0.501730 0.123520 0.501540 0.985975
Zn2   Zn    Zn3+2 0.498270 0.876480 0.498460 0.985976
Zn3   Zn    Zn3+2 0.125690 0.504390 0.002180 1.004022
Zn4   Zn    Zn3+2 0.874310 0.495610 0.997820 1.004021
O17   O     O_3   0.806474 0.965884 0.174464 -0.753488
H17   H     H_    0.739412 0.922950 0.165544 0.343937
O18   O     O_3   0.193525 0.034115 0.825537 -0.753489
H18   H     H_    0.260587 0.077048 0.834457 0.343937
N1    N     N_3   0.197664 0.881420 0.212817 -0.449902
H19   H     H_    0.249336 0.898985 0.178365 0.185674
H20   H     H_    0.230221 0.812971 0.233229 0.196282
N2    N     N_3   0.802336 0.118582 0.787183 -0.449900
H21   H     H_    0.750663 0.101023 0.821635 0.185674
H22   H     H_    0.769782 0.187029 0.766767 0.196284
O19   O     O_3   0.800595 0.163140 0.227763 -0.744052
H23   H     H_    0.740570 0.189297 0.201799 0.354054
O20   O     O_3   0.199404 0.836859 0.772237 -0.744054
H24   H     H_    0.259429 0.810704 0.798201 0.354054
N3    N     N_3   0.043971 0.816182 0.317298 -0.487329
H25   H     H_    0.096665 0.751172 0.307544 0.185864
H26   H     H_    0.006256 0.799762 0.356631 0.181494
N4    N     N_3   0.956030 0.183817 0.682702 -0.487324
H27   H     H_    0.903334 0.248831 0.692449 0.185861
H28   H     H_    0.993755 0.200230 0.643369 0.181494
O21   O     O_3   0.676642 0.824119 0.340233 -0.753521
H29   H     H_    0.694609 0.770368 0.309284 0.326402
O22   O     O_3   0.323360 0.175879 0.659768 -0.753522
H30   H     H_    0.305394 0.229630 0.690717 0.326403
N5    N     N_3   0.180929 0.204296 0.094688 -0.402253
H31   H     H_    0.243453 0.151102 0.108082 0.181551
H32   H     H_    0.152301 0.175230 0.054397 0.209032
N6    N     N_3   0.819073 0.795707 0.905314 -0.402254
H33   H     H_    0.756556 0.848911 0.891924 0.181552
H34   H     H_    0.847706 0.824760 0.945607 0.209036
O23   O     O_3   0.811688 0.808789 0.082948 -0.760562
H35   H     H_    0.776835 0.880694 0.077096 0.340831
O24   O     O_3   0.188311 0.191210 0.917053 -0.760561
H36   H     H_    0.223163 0.119304 0.922905 0.340831
N7    N     N_3   0.832243 0.361234 0.167967 -0.422291
H37   H     H_    0.786869 0.359848 0.206078 0.191226
H38   H     H_    0.876165 0.433696 0.171985 0.177589
N8    N     N_3   0.167756 0.638765 0.832033 -0.422291
H39   H     H_    0.213132 0.640152 0.793922 0.191229
H40   H     H_    0.123833 0.566303 0.828013 0.177588

loop_
_geom_bond_atom_site_label_1
_geom_bond_atom_site_label_2
_ccdc_geom_bond_type
C16   C28   A    
C41   O15   A    
O3    Zn2   S    
C5    C37   A    
C17   C29   A    
C19   H13   S    
O17   H17   S    
C19   C31   A    
N4    H28   S    
O18   H18   S    
C39   C41   S    
C29   C49   A    
C14   N4    S    
C41   O9    A    
N3    H26   S    
C15   H11   S    
C21   C33   S    
C1    O7    A    
O21   H29   S    
O9    Zn3   S    
C45   H15   S    
C45   C47   A    
O15   Zn4   S    
C32   C52   A    
C13   N3    S    
C38   C58   A    
O7    Zn2   S    
C24   O6    A    
C5    N1    S    
N8    H39   S    
C49   C51   A    
C1    C28   S    
C50   C52   A    
O20   H24   S    
C6    C38   A    
C2    C27   S    
C18   C30   A    
C12   C36   A    
C35   C43   S    
O5    Zn1   S    
O1    Zn1   S    
C52   O22   S    
N5    H32   S    
C30   C50   A    
C3    C39   A    
C9    C33   A    
C13   C25   A    
C10   O20   S    
C58   O18   S    
C44   O12   A    
C11   N7    S    
N4    H27   S    
C48   H2    S    
O14   Zn4   S    
C53   C55   A    
C33   C53   A    
C22   C34   S    
C46   C48   A    
C47   H1    S    
C49   H3    S    
C35   C55   A    
C43   O11   A    
C4    C40   A    
C42   O10   A    
N3    H25   S    
C5    C7    A    
C55   N5    S    
C21   C29   S    
C23   O3    A    
O8    Zn1   S    
C42   O16   A    
C23   C31   S    
O6    Zn2   S    
C24   C32   S    
C36   C56   A    
O12   Zn3   S    
O11   Zn4   S    
C15   C27   A    
N1    H19   S    
C16   H12   S    
C10   C34   A    
O10   Zn4   S    
C14   C26   A    
N2    H22   S    
C9    C11   A    
C1    O1    A    
C10   C12   A    
O2    Zn2   S    
C3    C57   A    
C24   O4    A    
N1    H20   S    
C34   C54   A    
C13   C15   A    
C57   O17   S    
O23   H35   S    
C50   H4    S    
C14   C16   A    
C36   C44   S    
N6    H34   S    
O24   H36   S    
C25   C45   A    
C46   H16   S    
C2    O2    A    
O16   Zn3   S    
N7    H37   S    
C20   C32   A    
C27   C47   A    
C21   C25   S    
C28   C48   A    
C12   N8    S    
C4    O24   S    
C31   C51   A    
C6    C8    A    
N5    H31   S    
C3    O23   S    
C54   C56   A    
C8    H10   S    
O4    Zn1   S    
C18   H8    S    
O19   H23   S    
C17   H7    S    
C43   O13   A    
C11   C35   A    
C22   C30   S    
O22   H30   S    
C53   H5    S    
C54   H6    S    
O13   Zn3   S    
C40   C42   S    
C17   C19   A    
C18   C20   A    
C6    N2    S    
N2    H21   S    
C51   O21   S    
C2    O8    A    
C26   C46   A    
C7    H9    S    
C21   C37   S    
N8    H40   S    
C22   C26   S    
C4    C58   A    
C7    C39   A    
C20   H14   S    
C8    C40   A    
C23   O5    A    
N6    H33   S    
C44   O14   A    
C9    O19   S    
C37   C57   A    
C56   N6    S    
N7    H38   S    
C22   C38   S    
