data_mof_unit_48658.cif
_audit_creation_date              2013-03-05T16:00:42-0500
_audit_creation_method            fapswitch 2.2
_symmetry_space_group_name_H-M    P1
_symmetry_Int_Tables_number       1
_space_group_crystal_system       triclinic
_cell_length_a                    21.241101
_cell_length_b                    21.216031
_cell_length_c                    14.005601
_cell_angle_alpha                 90.003004
_cell_angle_beta                  90.011016
_cell_angle_gamma                 89.986199
_cell_volume                      6311.6497947

loop_
_atom_site_label
_atom_site_type_symbol
_atom_site_description
_atom_site_fract_x
_atom_site_fract_y
_atom_site_fract_z
_atom_type_partial_charge
O1    O     O_R   0.066090 0.433930 0.580280 -0.633577
O2    O     O_R   0.933910 0.566070 0.419720 -0.633643
O3    O     O_R   0.933910 0.566070 0.580280 -0.634192
O4    O     O_R   0.066090 0.433930 0.419720 -0.634243
O5    O     O_R   0.933910 0.433930 0.419720 -0.626096
O6    O     O_R   0.066090 0.566070 0.580280 -0.626069
O7    O     O_R   0.066090 0.566070 0.419720 -0.625999
O8    O     O_R   0.933910 0.433930 0.580280 -0.625608
O9    O     O_R   0.566090 0.933930 0.580280 -0.633856
O10   O     O_R   0.433910 0.066070 0.419720 -0.633795
O11   O     O_R   0.433910 0.066070 0.580280 -0.634187
O12   O     O_R   0.566090 0.933930 0.419720 -0.634132
O13   O     O_R   0.433910 0.933930 0.419720 -0.625961
O14   O     O_R   0.566090 0.066070 0.580280 -0.626013
O15   O     O_R   0.566090 0.066070 0.419720 -0.625601
O16   O     O_R   0.433910 0.933930 0.580280 -0.625966
C1    C     C_R   0.086909 0.413366 0.500009 0.902680
C2    C     C_R   0.913091 0.586635 0.499991 0.902700
C3    C     C_R   0.913148 0.413307 0.499995 0.902150
C4    C     C_R   0.086856 0.586693 0.500003 0.902377
C5    C     C_R   0.586908 0.913364 0.499998 0.902712
C6    C     C_R   0.413094 0.086637 0.500001 0.902703
C7    C     C_R   0.413147 0.913304 0.499991 0.902393
C8    C     C_R   0.586849 0.086697 0.500012 0.902143
Zn1   Zn    Zn3+2 0.000000 0.500000 0.607200 0.942893
Zn2   Zn    Zn3+2 0.000000 0.500000 0.392800 0.942550
Zn3   Zn    Zn3+2 0.500000 0.000000 0.607200 0.942550
Zn4   Zn    Zn3+2 0.500000 0.000000 0.392800 0.942893
C9    C     C_R   0.157842 0.657347 0.413005 -0.256845
C10   C     C_R   0.846015 0.338770 0.413372 -0.256746
C11   C     C_R   0.841964 0.657145 0.586958 -0.258406
C12   C     C_R   0.157765 0.342579 0.587046 -0.256753
C13   C     C_R   0.653985 0.161225 0.586672 -0.257043
C14   C     C_R   0.342194 0.842610 0.586954 -0.256621
C15   C     C_R   0.342227 0.157425 0.413025 -0.258048
C16   C     C_R   0.658002 0.842834 0.412970 -0.257108
C17   C     C_R   0.134911 0.634517 0.499994 -0.077486
C18   C     C_R   0.865100 0.365482 0.499986 -0.077209
C19   C     C_R   0.864939 0.634352 0.499967 -0.074420
C20   C     C_R   0.135066 0.365653 0.500035 -0.074417
C21   C     C_R   0.634888 0.134531 0.500045 -0.077241
C22   C     C_R   0.365101 0.865470 0.499974 -0.077521
C23   C     C_R   0.364949 0.134362 0.500018 -0.074404
C24   C     C_R   0.635058 0.865645 0.499980 -0.074405
C25   C     C_R   0.157820 0.657406 0.586971 -0.256680
C26   C     C_R   0.838359 0.346479 0.586599 -0.256409
C27   C     C_R   0.842029 0.657214 0.412959 -0.256762
C28   C     C_R   0.158258 0.343078 0.413043 -0.258406
C29   C     C_R   0.661610 0.153562 0.413438 -0.256340
C30   C     C_R   0.342183 0.842598 0.412987 -0.256853
C31   C     C_R   0.341793 0.156961 0.587029 -0.257107
C32   C     C_R   0.657997 0.842799 0.586969 -0.258062
C33   C     C_R   0.203810 0.703543 0.587613 0.117334
C34   C     C_R   0.792330 0.300369 0.587263 0.117617
C35   C     C_R   0.796097 0.703426 0.412297 0.118504
C36   C     C_R   0.204179 0.296862 0.412401 0.118878
C37   C     C_R   0.707643 0.199665 0.412783 0.117570
C38   C     C_R   0.296207 0.796443 0.412337 0.117375
C39   C     C_R   0.295864 0.203173 0.587697 0.118605
C40   C     C_R   0.703910 0.796575 0.587605 0.118810
C41   C     C_R   0.226915 0.726749 0.499976 0.062028
C42   C     C_R   0.773092 0.273249 0.500013 0.061795
C43   C     C_R   0.773034 0.726693 0.499947 0.060968
C44   C     C_R   0.226979 0.273320 0.500054 0.060949
C45   C     C_R   0.726887 0.226775 0.500036 0.061858
C46   C     C_R   0.273112 0.773223 0.499972 0.062026
C47   C     C_R   0.273053 0.226712 0.500049 0.060941
C48   C     C_R   0.726960 0.773302 0.499950 0.060951
C49   C     C_R   0.203823 0.703494 0.412346 0.117355
C50   C     C_R   0.800061 0.292589 0.412740 0.117221
C51   C     C_R   0.796049 0.703367 0.587600 0.118844
C52   C     C_R   0.203698 0.296369 0.587707 0.118477
C53   C     C_R   0.699927 0.207422 0.587310 0.117266
C54   C     C_R   0.296211 0.796467 0.587604 0.117291
C55   C     C_R   0.296320 0.203655 0.412390 0.118775
C56   C     C_R   0.703932 0.796622 0.412303 0.118577
C57   C     C_R   0.226943 0.726819 0.674306 -0.215858
C58   C     C_R   0.765340 0.280981 0.673593 -0.215577
C59   C     C_R   0.773032 0.726765 0.325584 -0.214861
C60   C     C_R   0.227493 0.273794 0.325688 -0.215457
C61   C     C_R   0.734631 0.219053 0.326454 -0.215821
C62   C     C_R   0.273077 0.773162 0.325643 -0.215649
C63   C     C_R   0.272549 0.226242 0.674416 -0.214975
C64   C     C_R   0.726971 0.773234 0.674312 -0.215362
C65   C     C_R   0.780773 0.265458 0.326431 -0.215655
C66   C     C_R   0.226959 0.726735 0.325647 -0.215673
C67   C     C_R   0.226549 0.272816 0.674421 -0.214811
C68   C     C_R   0.772954 0.726654 0.674309 -0.215454
C69   C     C_R   0.273077 0.773226 0.674302 -0.215852
C70   C     C_R   0.719213 0.234557 0.673619 -0.215510
C71   C     C_R   0.727031 0.773338 0.325587 -0.214944
C72   C     C_R   0.273476 0.227214 0.325683 -0.215338
H1    H     H_    0.139957 0.639357 0.345769 0.164053
H2    H     H_    0.867001 0.353649 0.346451 0.164792
H3    H     H_    0.859806 0.639115 0.654210 0.158720
H4    H     H_    0.139683 0.360370 0.654285 0.157360
H5    H     H_    0.633016 0.146322 0.653594 0.164471
H6    H     H_    0.360093 0.860579 0.654191 0.164567
H7    H     H_    0.360269 0.139609 0.345771 0.158794
H8    H     H_    0.640122 0.860840 0.345734 0.157158
H9    H     H_    0.139912 0.639467 0.654209 0.164503
H10   H     H_    0.853195 0.367553 0.653505 0.162923
H11   H     H_    0.859938 0.639250 0.345722 0.157245
H12   H     H_    0.140586 0.361278 0.345791 0.158591
H13   H     H_    0.646760 0.132509 0.346526 0.163568
H14   H     H_    0.360071 0.860563 0.345752 0.164071
H15   H     H_    0.359501 0.138782 0.654265 0.157045
H16   H     H_    0.640125 0.860786 0.654221 0.158662
H17   H     H_    0.209369 0.709168 0.741849 0.147787
H18   H     H_    0.779912 0.301665 0.740834 0.147642
H19   H     H_    0.790569 0.709042 0.258041 0.147536
H20   H     H_    0.210157 0.291726 0.258147 0.145575
H21   H     H_    0.720052 0.198378 0.259211 0.147675
H22   H     H_    0.290644 0.790822 0.258101 0.147768
H23   H     H_    0.289892 0.208309 0.741957 0.147553
H24   H     H_    0.709440 0.790956 0.741855 0.145613
H25   H     H_    0.801342 0.280111 0.259173 0.147936
H26   H     H_    0.209394 0.709045 0.258109 0.147761
H27   H     H_    0.208842 0.290370 0.741966 0.147541
H28   H     H_    0.790459 0.708890 0.741850 0.145629
H29   H     H_    0.290649 0.790907 0.741841 0.147796
H30   H     H_    0.698651 0.219896 0.740878 0.147925
H31   H     H_    0.709520 0.791103 0.258046 0.147567
H32   H     H_    0.291176 0.209661 0.258137 0.145661
C73   C     C_R   0.945838 0.512912 0.797607 -0.048117
C74   C     C_R   0.054157 0.487068 0.202392 -0.048512
C75   C     C_R   0.053898 0.486076 0.797658 -0.047065
C76   C     C_R   0.946105 0.513934 0.202340 -0.046953
C77   C     C_R   0.446173 0.014192 0.797632 -0.047778
C78   C     C_R   0.553829 0.985815 0.202370 -0.047465
C79   C     C_R   0.554092 0.986797 0.797640 -0.047773
C80   C     C_R   0.445903 0.013182 0.202361 -0.047809
N1    N     N_R   0.000000 0.500000 0.750030 -0.112617
N2    N     N_R   0.000000 0.500000 0.249970 -0.112928
N3    N     N_R   0.500000 0.000000 0.750030 -0.112904
N4    N     N_R   0.500000 0.000000 0.249970 -0.112595
C81   C     C_R   0.055542 0.484401 0.898708 -0.020621
C82   C     C_R   0.944457 0.515593 0.101289 -0.020780
C83   C     C_R   0.943775 0.513048 0.898692 -0.020765
C84   C     C_R   0.056220 0.486930 0.101306 -0.020880
C85   C     C_R   0.556153 0.986641 0.898726 -0.021095
C86   C     C_R   0.443842 0.013333 0.101275 -0.020973
C87   C     C_R   0.444535 0.015866 0.898681 -0.020642
C88   C     C_R   0.555463 0.984124 0.101322 -0.020481
C89   C     C_R   0.999945 0.499813 0.949463 -0.018301
C90   C     C_R   0.000053 0.500173 0.050534 -0.018402
C91   C     C_R   0.500054 0.000169 0.949466 -0.018366
C92   C     C_R   0.499943 0.999812 0.050536 -0.018254
C93   C     C_R   0.111057 0.467723 0.949394 0.198675
C94   C     C_R   0.888940 0.532259 0.050600 0.198778
C95   C     C_R   0.887285 0.526029 0.949395 0.194901
C96   C     C_R   0.112709 0.473936 0.050603 0.194616
C97   C     C_R   0.612574 0.973354 0.949461 0.194362
C98   C     C_R   0.387418 0.026606 0.050541 0.194523
C99   C     C_R   0.389103 0.032818 0.949336 0.199034
C100  C     C_R   0.610892 0.967159 0.050669 0.199001
H33   H     H_    0.904774 0.524030 0.755390 0.149063
H34   H     H_    0.095218 0.475940 0.244609 0.149553
H35   H     H_    0.095575 0.477283 0.755560 0.149684
H36   H     H_    0.904430 0.522742 0.244436 0.150198
H37   H     H_    0.404538 0.023193 0.755518 0.149833
H38   H     H_    0.595468 0.976830 0.244485 0.149248
H39   H     H_    0.595098 0.975465 0.755449 0.149910
H40   H     H_    0.404893 0.024502 0.244551 0.149521
C101  C     C_3   0.166644 0.440010 0.895587 -0.945850
H41   H     H_    0.198324 0.411912 0.941789 0.255395
H42   H     H_    0.150099 0.405665 0.841286 0.225579
H43   H     H_    0.193677 0.478171 0.860124 0.242897
C102  C     C_3   0.833352 0.559976 0.104400 -0.945519
H44   H     H_    0.801654 0.588045 0.058183 0.255311
H45   H     H_    0.806336 0.521821 0.139907 0.243407
H46   H     H_    0.849897 0.594348 0.158663 0.225366
C103  C     C_3   0.825376 0.530041 0.895427 -0.942686
H47   H     H_    0.821829 0.490730 0.843368 0.231298
H48   H     H_    0.783610 0.523925 0.941793 0.257715
H49   H     H_    0.822170 0.575780 0.857199 0.236198
C104  C     C_3   0.174614 0.469890 0.104575 -0.942068
H50   H     H_    0.178178 0.509197 0.156638 0.232102
H51   H     H_    0.177793 0.424148 0.142800 0.236018
H52   H     H_    0.216386 0.475987 0.058218 0.257647
C105  C     C_3   0.674456 0.968969 0.895523 -0.941245
H53   H     H_    0.716262 0.974843 0.941900 0.257560
H54   H     H_    0.677387 0.923209 0.857298 0.235878
H55   H     H_    0.678232 0.008253 0.843465 0.232923
C106  C     C_3   0.325532 0.030955 0.104474 -0.941900
H56   H     H_    0.283732 0.025059 0.058088 0.257631
H57   H     H_    0.321775 0.991665 0.156528 0.232098
H58   H     H_    0.322573 0.076712 0.142703 0.236129
C107  C     C_3   0.333657 0.060814 0.895502 -0.946390
H59   H     H_    0.302104 0.089054 0.941694 0.255420
H60   H     H_    0.350378 0.095093 0.841244 0.225360
H61   H     H_    0.306445 0.022795 0.859983 0.242956
C108  C     C_3   0.666337 0.939167 0.104512 -0.946773
H62   H     H_    0.697871 0.910895 0.058335 0.255495
H63   H     H_    0.693569 0.977192 0.139982 0.242458
H64   H     H_    0.649616 0.904915 0.158809 0.225539

loop_
_geom_bond_atom_site_label_1
_geom_bond_atom_site_label_2
_geom_bond_distance
_ccdc_geom_bond_type
C63   C67   1.389460 A    
C73   C83   1.416445 A    
C60   C72   1.389300 A    
C101  H41   1.107531 S    
C95   C103  1.519019 S    
O10   Zn4   2.019148 S    
O2    C2    1.284485 A    
C70   H30   1.084046 S    
C102  H44   1.107537 S    
C91   C92   1.415566 A    
C14   C22   1.398717 A    
C88   C92   1.416686 A    
O9    C5    1.284608 A    
C15   C23   1.398769 A    
C89   C90   1.415582 A    
C82   C94   1.420974 A    
C45   C53   1.411029 A    
C12   C52   1.383013 A    
C103  H47   1.110341 S    
O10   C6    1.284604 A    
C87   C91   1.416690 A    
C26   H10   1.084994 S    
C74   C84   1.416459 A    
C64   H24   1.083952 S    
C7    C22   1.439409 S    
O12   Zn4   2.019074 S    
C54   C69   1.399791 A    
C81   C89   1.416687 A    
C39   C63   1.399995 A    
C53   C70   1.400115 A    
C79   N3    1.357493 A    
C38   C62   1.399807 A    
C73   H33   1.079712 S    
C106  H57   1.110325 S    
C94   C102  1.519108 S    
C78   H38   1.079928 S    
C85   C97   1.421333 A    
C73   N1    1.357478 A    
C28   H12   1.084910 S    
C29   C37   1.383234 A    
C42   C50   1.411030 A    
O3    C2    1.284583 A    
C20   C28   1.398781 A    
O6    Zn1   2.019644 S    
O14   C8    1.284571 A    
C96   C104  1.519015 S    
C107  H60   1.110317 S    
C76   C82   1.416139 A    
C32   C40   1.382923 A    
C39   C47   1.410951 A    
C77   N3    1.357387 A    
C33   C41   1.410746 A    
C41   C46   1.391247 A    
C38   C46   1.410747 A    
C104  H51   1.110393 S    
C35   C43   1.410921 A    
C36   C44   1.410965 A    
O13   Zn4   2.019646 S    
O11   Zn3   2.019075 S    
O14   Zn3   2.019644 S    
C68   H28   1.083952 S    
Zn1   N1    2.000420 S    
C84   C96   1.421310 A    
C59   C71   1.389460 A    
C26   C34   1.383288 A    
C79   C85   1.416454 A    
O9    Zn3   2.019148 S    
C24   C32   1.398724 A    
O16   Zn3   2.019518 S    
C74   H34   1.079706 S    
C27   C35   1.383014 A    
C25   C33   1.383102 A    
C101  H42   1.110328 S    
C71   H31   1.083994 S    
O1    Zn1   2.019148 S    
C8    C21   1.439323 S    
C102  H45   1.110073 S    
C81   C93   1.420965 A    
C15   H7    1.084909 S    
C21   C29   1.398902 A    
C10   C50   1.383211 A    
O13   C7    1.284630 A    
C9    C49   1.383130 A    
C105  H54   1.110397 S    
C80   C86   1.416441 A    
C98   C106  1.519016 S    
O8    C3    1.284587 A    
C27   H11   1.084798 S    
C30   C38   1.383158 A    
C44   C47   1.391098 A    
C63   H23   1.084031 S    
O3    Zn1   2.019075 S    
C93   C101  1.519113 S    
C62   H22   1.083840 S    
O2    Zn2   2.019148 S    
C93   C96   1.424023 A    
C84   C90   1.416858 A    
C106  H58   1.110398 S    
C29   H13   1.084968 S    
C34   C42   1.411071 A    
C108  H63   1.110080 S    
C105  H53   1.107169 S    
O12   C5    1.284457 A    
C58   C70   1.389426 A    
O5    Zn2   2.019646 S    
C1    C20   1.438939 S    
C88   C100  1.420958 A    
C107  H61   1.110077 S    
C33   C57   1.399781 A    
C2    C19   1.438939 S    
C80   H40   1.079688 S    
C67   H27   1.084025 S    
Zn2   N2    2.000421 S    
C3    C18   1.439304 S    
C76   N2    1.357389 A    
C5    C24   1.438936 S    
C35   C59   1.399952 A    
C87   C99   1.420965 A    
C6    C23   1.438937 S    
C79   H39   1.079682 S    
C80   N4    1.357487 A    
C104  H52   1.107167 S    
C15   C55   1.382922 A    
C60   H20   1.083985 S    
C77   H37   1.079922 S    
C66   H26   1.083841 S    
C48   C56   1.410904 A    
C86   C98   1.421312 A    
C97   C100  1.424017 A    
C57   H17   1.083834 S    
O7    Zn2   2.019515 S    
C86   C92   1.416854 A    
C40   C48   1.410935 A    
C98   C99   1.424008 A    
C103  H48   1.107176 S    
C25   H9    1.084710 S    
C55   C72   1.399901 A    
C22   C30   1.398761 A    
C77   C87   1.416120 A    
O4    C1    1.284586 A    
C13   C53   1.383272 A    
O15   C8    1.284668 A    
C12   H4    1.084835 S    
C43   C51   1.410919 A    
O7    C4    1.284582 A    
C101  H43   1.110075 S    
C12   C20   1.398900 A    
C9    C17   1.398787 A    
C102  H46   1.110330 S    
C37   C61   1.400068 A    
C16   C24   1.398867 A    
C65   H25   1.084043 S    
C31   C39   1.382996 A    
C17   C25   1.398689 A    
C75   H35   1.079941 S    
C52   C67   1.399995 A    
C78   C88   1.416116 A    
C76   H36   1.079937 S    
C19   C27   1.398856 A    
C75   N1    1.357380 A    
C103  H49   1.110395 S    
C41   C49   1.410719 A    
C28   C36   1.382910 A    
C43   C48   1.391098 A    
C83   C89   1.416861 A    
C105  H55   1.110309 S    
C42   C45   1.391370 A    
Zn4   N4    2.000421 S    
C57   C69   1.389295 A    
C104  H50   1.110328 S    
C78   N4    1.357377 A    
C64   C68   1.389299 A    
C97   C105  1.519014 S    
O4    Zn2   2.019074 S    
C16   H8    1.084791 S    
O5    C3    1.284644 A    
O16   C7    1.284659 A    
O6    C4    1.284706 A    
O11   C6    1.284462 A    
O1    C1    1.284481 A    
C36   C60   1.399904 A    
C59   H19   1.083996 S    
Zn3   N3    2.000420 S    
C72   H32   1.083983 S    
C100  C108  1.519131 S    
C13   C21   1.398983 A    
C10   H2    1.084937 S    
C62   C66   1.389355 A    
O8    Zn1   2.019518 S    
C108  H64   1.110317 S    
C9    H1    1.084728 S    
C4    C17   1.439405 S    
C40   C64   1.399856 A    
C23   C31   1.398906 A    
C106  H56   1.107177 S    
C69   H29   1.083835 S    
C82   C90   1.416688 A    
C11   H3    1.084875 S    
C83   C95   1.421293 A    
C14   H6    1.084708 S    
C11   C19   1.398739 A    
C13   H5    1.084950 S    
C44   C52   1.410958 A    
C107  H59   1.107536 S    
C18   C26   1.398973 A    
C99   C107  1.519124 S    
C85   C91   1.416852 A    
C56   C71   1.399954 A    
C58   H18   1.084061 S    
C51   C68   1.399863 A    
O15   Zn4   2.019515 S    
C16   C56   1.382996 A    
C47   C55   1.410974 A    
C74   N2    1.357483 A    
C31   H15   1.084824 S    
C108  H62   1.107531 S    
C61   H21   1.084051 S    
C30   H14   1.084728 S    
C94   C95   1.424013 A    
C32   H16   1.084875 S    
C14   C54   1.383075 A    
C75   C81   1.416133 A    
C10   C18   1.398910 A    
C34   C58   1.400092 A    
C50   C65   1.400087 A    
C61   C65   1.389367 A    
C49   C66   1.399815 A    
C11   C51   1.382908 A    
C37   C45   1.411065 A    
C46   C54   1.410719 A    
