data_mof_unit_5502.cif
_audit_creation_date              2012-12-10T19:21:01-0500
_audit_creation_method            fapswitch 2.2
_symmetry_space_group_name_H-M    P1
_symmetry_Int_Tables_number       1
_space_group_crystal_system       triclinic
_cell_length_a                    14.746587
_cell_length_b                    15.995077
_cell_length_c                    17.052426
_cell_angle_alpha                 89.483978
_cell_angle_beta                  93.496756
_cell_angle_gamma                 89.561866
_cell_volume                      4014.41687071

loop_
_atom_site_label
_atom_site_type_symbol
_atom_type_description
_atom_site_fract_x
_atom_site_fract_y
_atom_site_fract_z
_atom_type_partial_charge
C1    C     C_R   0.500262 0.340866 0.499984 0.812566
C2    C     C_R   0.499815 0.659085 0.500543 0.807695
C3    C     C_R   0.498713 0.912526 0.500849 0.086831
C4    C     C_R   0.501830 0.087232 0.500789 0.089228
C5    C     C_R   0.419795 0.958223 0.476774 -0.003663
C6    C     C_R   0.580787 0.041500 0.524759 -0.002427
C7    C     C_1   0.499198 0.822938 0.501152 -0.057302
C8    C     C_1   0.501285 0.176881 0.500378 -0.044895
C9    C     C_1   0.500858 0.251867 0.500143 -0.155728
C10   C     C_1   0.499419 0.748001 0.501002 -0.166862
C11   C     C_R   0.951356 0.573736 0.515199 0.408090
C12   C     C_R   0.048546 0.426295 0.484706 0.406933
C13   C     C_R   0.902822 0.499229 0.499622 -0.173568
C14   C     C_R   0.097120 0.500769 0.500395 -0.174231
C15   C     C_R   0.952125 0.425871 0.483194 -0.161350
C16   C     C_R   0.047771 0.574188 0.516642 -0.157350
C17   C     C_1   0.802598 0.499416 0.499963 0.231344
C18   C     C_1   0.197383 0.500575 0.500061 0.242148
C19   C     C_R   0.510765 0.496258 0.651501 0.865709
C20   C     C_R   0.489256 0.498662 0.348585 0.869582
C21   C     C_R   0.516348 0.485928 0.737832 -0.315647
C22   C     C_R   0.483840 0.488757 0.262583 -0.299075
C23   C     C_R   0.447412 0.443413 0.776183 -0.212823
C24   C     C_R   0.549400 0.440049 0.225832 -0.225696
C25   C     C_R   0.456415 0.429243 0.857430 0.363987
C26   C     C_R   0.540687 0.426654 0.144689 0.363411
C27   C     C_R   0.531056 0.463714 0.902159 0.097266
C28   C     C_R   0.469085 0.466403 0.098847 0.104996
C29   C     C_R   0.601614 0.501703 0.863936 0.303064
C30   C     C_R   0.400988 0.509715 0.135772 0.281548
C31   C     C_R   0.592959 0.515853 0.782454 0.298905
C32   C     C_R   0.410823 0.525283 0.216948 0.313043
C33   C     C_R   0.578668 0.954193 0.524668 -0.241325
C34   C     C_R   0.421906 0.045528 0.476877 -0.238944
Cu1   Cu    Cu3+1 0.589220 0.500000 0.499980 0.994948
Cu2   Cu    Cu3+1 0.410780 0.500000 0.500020 1.003363
H1    H     H_    0.639308 0.918597 0.543105 0.149462
H2    H     H_    0.361309 0.081114 0.458284 0.146929
N1    N     N_2   0.537610 0.462303 0.985546 -0.145920
N2    N     N_2   0.462712 0.464565 0.015552 -0.140786
N3    N     N_1   0.276710 0.499980 0.499980 -0.149120
N4    N     N_1   0.723290 0.500020 0.500020 -0.155490
O1    O     O_R   0.575320 0.380310 0.499960 -0.560798
O2    O     O_R   0.424680 0.619690 0.500040 -0.568812
O3    O     O_R   0.424640 0.380310 0.500000 -0.581330
O4    O     O_R   0.575360 0.619690 0.500000 -0.587010
O5    O     O_R   0.583590 0.499240 0.613900 -0.535218
O6    O     O_R   0.416410 0.500760 0.386100 -0.531841
O7    O     O_R   0.432900 0.499240 0.613940 -0.580202
O8    O     O_R   0.567100 0.500760 0.386060 -0.586301
C35   C     C_1   0.625310 0.400935 0.270484 0.364135
N5    N     N_1   0.685970 0.369644 0.306048 -0.272904
C36   C     C_1   0.367017 0.411972 0.733454 0.380012
N6    N     N_1   0.302656 0.386919 0.699511 -0.327864
O9    O     O_3   0.604728 0.377005 0.110572 -0.591354
C37   C     C_3   0.567063 0.298142 0.090875 0.061065
H3    H     H_    0.599811 0.275993 0.037851 0.156446
H4    H     H_    0.492490 0.300489 0.075695 0.111628
C38   C     C_3   0.587440 0.234426 0.157274 -0.345858
H5    H     H_    0.661562 0.233382 0.173667 0.243693
H6    H     H_    0.550609 0.252580 0.209494 0.209771
C39   C     C_3   0.557500 0.146927 0.132527 -0.909903
H7    H     H_    0.483328 0.146439 0.116551 0.252548
H8    H     H_    0.572286 0.102303 0.181998 0.265212
H9    H     H_    0.594787 0.126085 0.081412 0.256044
O10   O     O_3   0.389358 0.384792 0.892883 -0.591555
C40   C     C_3   0.420728 0.302726 0.911965 0.063002
H10   H     H_    0.387043 0.282423 0.965335 0.156532
H11   H     H_    0.495400 0.298709 0.926391 0.111115
C41   C     C_3   0.394279 0.242055 0.845623 -0.354409
H12   H     H_    0.320222 0.247704 0.829813 0.239181
H13   H     H_    0.431973 0.257732 0.793080 0.209217
C42   C     C_3   0.416797 0.151887 0.870037 -0.906685
H14   H     H_    0.490761 0.144689 0.885428 0.253905
H15   H     H_    0.397735 0.109533 0.820598 0.264310
H16   H     H_    0.378376 0.133540 0.921446 0.255817
O11   O     O_3   0.674830 0.534016 0.908153 -0.579005
C43   C     C_3   0.752107 0.481886 0.902142 0.090943
H17   H     H_    0.813147 0.521709 0.911432 0.170443
H18   H     H_    0.756399 0.453337 0.842981 0.153971
C44   C     C_3   0.755387 0.413541 0.965856 -0.335163
H19   H     H_    0.749581 0.442643 0.024302 0.270790
H20   H     H_    0.697442 0.370383 0.954872 0.213332
C45   C     C_3   0.843703 0.363142 0.966662 -0.916805
H21   H     H_    0.850405 0.332643 0.909010 0.256990
H22   H     H_    0.843519 0.313923 0.012994 0.269265
H23   H     H_    0.902939 0.404401 0.979438 0.257289
O12   O     O_3   0.329236 0.544870 0.090357 -0.587462
C46   C     C_3   0.249394 0.498006 0.099368 0.083011
H24   H     H_    0.190507 0.541057 0.087909 0.167936
H25   H     H_    0.243930 0.472692 0.160094 0.155573
C47   C     C_3   0.242204 0.427030 0.039558 -0.328011
H26   H     H_    0.248515 0.453032 0.979492 0.271647
H27   H     H_    0.298249 0.381228 0.052464 0.210405
C48   C     C_3   0.151775 0.381694 0.042235 -0.920388
H28   H     H_    0.144518 0.354251 0.101575 0.260457
H29   H     H_    0.149071 0.330497 0.998622 0.266263
H30   H     H_    0.094350 0.425610 0.027698 0.256620
O13   O     O_3   0.661295 0.557618 0.746558 -0.581940
C49   C     C_3   0.638859 0.643576 0.741629 0.096041
H31   H     H_    0.641893 0.671259 0.801438 0.166787
H32   H     H_    0.569569 0.653939 0.712990 0.117638
C50   C     C_3   0.707331 0.687832 0.692244 -0.295512
H33   H     H_    0.776694 0.680174 0.720867 0.233847
H34   H     H_    0.706465 0.658748 0.633267 0.242811
C51   C     C_3   0.685141 0.780855 0.682680 -0.942258
H35   H     H_    0.616859 0.789882 0.652486 0.260197
H36   H     H_    0.736205 0.811205 0.646869 0.258009
H37   H     H_    0.686654 0.811384 0.740984 0.264729
O14   O     O_3   0.346982 0.573943 0.252358 -0.588002
C52   C     C_3   0.357892 0.659482 0.232816 0.104516
H38   H     H_    0.289052 0.688119 0.224622 0.168207
H39   H     H_    0.391613 0.670420 0.176790 0.155566
C53   C     C_3   0.410595 0.704232 0.299953 -0.363436
H40   H     H_    0.374213 0.696878 0.354732 0.248070
H41   H     H_    0.479412 0.675829 0.309500 0.201685
C54   C     C_3   0.420394 0.797198 0.281722 -0.893719
H42   H     H_    0.352472 0.827750 0.274433 0.265695
H43   H     H_    0.456773 0.806070 0.227144 0.254476
H44   H     H_    0.460060 0.827669 0.330759 0.263683
C55   C     C_1   0.664368 0.082805 0.549421 0.243459
N7    N     N_1   0.731319 0.115931 0.569146 -0.263188
C56   C     C_1   0.336316 0.916849 0.451883 0.238515
N8    N     N_1   0.269497 0.883619 0.431954 -0.268002
C57   C     C_1   0.095440 0.650938 0.534806 0.307900
N9    N     N_1   0.133603 0.712378 0.549290 -0.260138
C58   C     C_1   0.904361 0.349304 0.464434 0.320493
N10   N     N_1   0.866112 0.288030 0.449447 -0.247559
O15   O     O_3   0.904568 0.645413 0.534295 -0.605428
C59   C     C_3   0.876579 0.689050 0.464418 0.057557
H45   H     H_    0.843645 0.646883 0.419541 0.135036
H46   H     H_    0.936255 0.719230 0.439296 0.154231
C60   C     C_3   0.807608 0.756554 0.483589 -0.321706
H47   H     H_    0.748651 0.726818 0.509961 0.232715
H48   H     H_    0.839551 0.800527 0.526958 0.228091
C61   C     C_3   0.773513 0.805359 0.410198 -0.900944
H49   H     H_    0.830997 0.836643 0.383034 0.261450
H50   H     H_    0.723843 0.853813 0.426347 0.258152
H51   H     H_    0.739258 0.762785 0.366844 0.258332
O16   O     O_3   0.095249 0.354744 0.465168 -0.601502
C62   C     C_3   0.122105 0.310071 0.534711 0.057446
H52   H     H_    0.061578 0.282038 0.560422 0.149800
H53   H     H_    0.157357 0.351141 0.579223 0.156023
C63   C     C_3   0.187812 0.240115 0.514706 -0.306524
H54   H     H_    0.153556 0.197730 0.471118 0.228664
H55   H     H_    0.247901 0.267680 0.488111 0.233932
C64   C     C_3   0.219876 0.189436 0.587594 -0.899545
H56   H     H_    0.256705 0.230051 0.631121 0.270843
H57   H     H_    0.266742 0.138908 0.570809 0.255626
H58   H     H_    0.161030 0.160612 0.614890 0.260647

loop_
_geom_bond_atom_site_label_1
_geom_bond_atom_site_label_2
_ccdc_geom_bond_type
C7    C10   T    
O9    C37   S    
C27   C29   A    
C42   H14   S    
C14   C18   S    
C48   H28   S    
C45   H23   S    
C4    C8    S    
Cu1   O5    S    
C26   O9    S    
C53   H40   S    
C48   H30   S    
C56   N8    T    
O11   C43   S    
C2    O4    A    
C21   C31   A    
C22   C32   A    
C19   C21   S    
C24   C26   A    
C3    C7    S    
C54   H43   S    
C19   O5    A    
C51   H35   S    
C3    C33   A    
C37   H3    S    
Cu1   N4    S    
C17   N4    T    
C47   H26   S    
C39   H8    S    
O14   C52   S    
C1    O1    A    
C64   H56   S    
C27   N1    S    
C8    C9    T    
C60   C61   S    
C20   O8    A    
C12   O16   S    
C41   H12   S    
C31   O13   S    
C46   H25   S    
Cu1   O1    S    
C16   C57   S    
C24   C35   S    
C23   C25   A    
O10   C40   S    
C38   H5    S    
C6    C33   A    
C15   C58   S    
C42   H15   S    
Cu2   N3    S    
C41   C42   S    
C63   C64   S    
C11   O15   S    
C49   H32   S    
C44   H20   S    
C23   C36   S    
C4    C34   A    
C38   H6    S    
C35   N5    T    
C64   H58   S    
C1    C9    S    
O16   C62   S    
C63   H55   S    
C62   C63   S    
C2    O2    A    
N1    N2    D    
C43   H17   S    
C61   H49   S    
C36   N6    T    
C49   C50   S    
C44   H19   S    
C40   H10   S    
C40   H11   S    
Cu1   Cu2   S    
C61   H51   S    
C59   H46   S    
C39   H7    S    
C11   C16   A    
C19   O7    A    
O13   C49   S    
C12   C15   A    
C52   H38   S    
C5    C34   A    
Cu1   O8    S    
C47   H27   S    
C43   H18   S    
Cu2   O3    S    
C52   H39   S    
C45   H21   S    
C46   C47   S    
C55   N7    T    
C20   O6    A    
C32   O14   S    
C4    C6    A    
C20   C22   S    
C21   C23   A    
C13   C15   A    
C57   N9    T    
C50   H34   S    
C22   C24   A    
C54   H44   S    
C59   C60   S    
C52   C53   S    
C30   O12   S    
C58   N10   T    
C2    C10   S    
C44   C45   S    
C61   H50   S    
O15   C59   S    
C38   C39   S    
C39   H9    S    
C64   H57   S    
C34   H2    S    
C25   O10   S    
C12   C14   A    
C63   H54   S    
C3    C5    A    
C53   H41   S    
C48   H29   S    
C25   C27   A    
C5    C56   S    
C26   C28   A    
C37   C38   S    
C13   C17   S    
C40   C41   S    
C62   H53   S    
C59   H45   S    
C29   C31   A    
C54   H42   S    
C30   C32   A    
C11   C13   A    
C43   C44   S    
C1    O3    A    
C60   H47   S    
C51   H36   S    
C28   C30   A    
C49   H31   S    
C42   H16   S    
C37   H4    S    
Cu2   O6    S    
C50   C51   S    
C14   C16   A    
C47   C48   S    
C33   H1    S    
C53   C54   S    
Cu2   O2    S    
C18   N3    T    
C29   O11   S    
O12   C46   S    
C50   H33   S    
C60   H48   S    
C28   N2    S    
C45   H22   S    
C41   H13   S    
C6    C55   S    
C46   H24   S    
C62   H52   S    
Cu1   O4    S    
Cu2   O7    S    
C51   H37   S    
