data_mof_unit_48652.cif
_audit_creation_date              2012-12-11T14:53:40-0500
_audit_creation_method            fapswitch 2.2
_symmetry_space_group_name_H-M    P1
_symmetry_Int_Tables_number       1
_space_group_crystal_system       triclinic
_cell_length_a                    6.924901
_cell_length_b                    23.181019
_cell_length_c                    23.540012
_cell_angle_alpha                 112.270876
_cell_angle_beta                  90.066628
_cell_angle_gamma                 90.16821
_cell_volume                      3496.87611222

loop_
_atom_site_label
_atom_site_type_symbol
_atom_type_description
_atom_site_fract_x
_atom_site_fract_y
_atom_site_fract_z
_atom_type_partial_charge
O1    O     O_R   0.494720 0.434890 0.424760 -0.521316
O2    O     O_R   0.819720 0.445970 0.545570 -0.531393
O3    O     O_R   0.993930 0.565110 0.575240 -0.547052
C1    C     C_R   0.650969 0.433717 0.562217 0.740518
O4    O     O_R   0.824180 0.427610 0.423390 -0.528302
O5    O     O_R   0.998420 0.546620 0.452190 -0.526654
C2    C     C_R   0.657211 0.409810 0.398511 0.765506
O6    O     O_R   0.490230 0.453380 0.547810 -0.545545
O7    O     O_3   0.662090 0.539070 0.509590 -0.357330
V1    V     V_3+5 0.935410 0.492750 0.498220 1.542543
O8    O     O_R   0.328360 0.554030 0.454430 -0.516923
C3    C     C_R   0.158186 0.565332 0.436401 0.708313
O9    O     O_R   0.323900 0.572390 0.576610 -0.550441
C4    C     C_R   0.156754 0.590642 0.600960 0.690869
V2    V     V_3+5 0.435890 0.507250 0.501780 1.528636
O10   O     O_3   0.159350 0.460930 0.490410 -0.360805
C5    C     C_R   0.072676 0.854863 0.839076 -0.090291
C6    C     C_R   0.160550 0.645508 0.660473 -0.100318
C7    C     C_R   0.347129 0.711111 0.750180 -0.121671
C8    C     C_R   0.327864 0.657028 0.697381 -0.108979
C9    C     C_R   0.010360 0.689365 0.678445 -0.191404
C10   C     C_R   0.029448 0.744867 0.731509 0.122945
C11   C     C_R   0.200404 0.755806 0.767505 0.080634
C12   C     C_R   0.221795 0.810802 0.820538 -0.245986
C13   C     C_R   0.904645 0.843950 0.802503 -0.229910
C14   C     C_R   0.881883 0.789799 0.748968 0.337085
H1    H     H_    0.351232 0.818202 0.848400 0.128327
H2    H     H_    0.788469 0.877603 0.816059 0.116729
H3    H     H_    0.478423 0.718279 0.777132 0.131664
H4    H     H_    0.446334 0.624191 0.684980 0.123236
H5    H     H_    0.882125 0.681075 0.650003 0.169789
C15   C     C_R   0.251664 0.896632 0.139764 -0.003042
C16   C     C_R   0.244829 0.862793 0.178248 -0.120357
H6    H     H_    0.370654 0.862286 0.205510 0.190017
C17   C     C_R   0.083833 0.827079 0.180299 -0.040175
C18   C     C_R   0.919166 0.827396 0.144538 0.018170
C19   C     C_R   0.924383 0.861504 0.106209 -0.191864
H7    H     H_    0.797691 0.861139 0.079009 0.107194
C20   C     C_R   0.087337 0.896656 0.102931 -0.120999
N1    N     N_R   0.044585 0.727182 0.194130 -0.236711
N2    N     N_R   0.058448 0.692195 0.227655 -0.254060
C21   C     C_R   0.127994 0.716368 0.286057 0.495562
N3    N     N_R   0.189419 0.776593 0.308840 -0.258663
N4    N     N_R   0.175766 0.811628 0.275224 -0.245543
C22   C     C_R   0.098821 0.788028 0.217712 0.586082
C23   C     C_R   0.286231 0.681218 0.362821 -0.088592
H8    H     H_    0.407258 0.711540 0.364482 0.134874
C24   C     C_R   0.293175 0.644819 0.398479 -0.121374
H9    H     H_    0.417072 0.649616 0.427929 0.172857
C25   C     C_R   0.142031 0.603891 0.397474 -0.116608
C26   C     C_R   0.976817 0.601574 0.359948 -0.021359
C27   C     C_R   0.968948 0.639296 0.324289 -0.061078
C28   C     C_R   0.127177 0.678437 0.324960 -0.049365
C29   C     C_R   0.549418 0.415898 0.657473 0.337312
C30   C     C_R   0.545099 0.378729 0.692404 -0.178420
H10   H     H_    0.473049 0.396742 0.736487 0.185280
C31   C     C_R   0.631396 0.319739 0.672180 -0.088795
C32   C     C_R   0.723079 0.296802 0.614272 0.327090
C33   C     C_R   0.730333 0.333955 0.577810 -0.145091
C34   C     C_R   0.641791 0.393832 0.599244 -0.190371
N5    N     N_R   0.634747 0.219229 0.687871 -0.188494
N6    N     N_R   0.622853 0.186240 0.723487 -0.262999
C35   C     C_R   0.595692 0.214899 0.785030 0.590148
N7    N     N_R   0.584662 0.278161 0.809443 -0.234917
N8    N     N_R   0.596036 0.311124 0.773769 -0.278955
C36   C     C_R   0.621313 0.282458 0.712082 0.587527
C37   C     C_R   0.463201 0.193676 0.876893 -0.031008
C38   C     C_R   0.474242 0.160008 0.915955 0.296242
C39   C     C_R   0.591006 0.105611 0.899824 -0.197293
C40   C     C_R   0.706083 0.088263 0.846051 -0.053775
C41   C     C_R   0.704289 0.125232 0.810448 -0.102711
H11   H     H_    0.795565 0.112500 0.770204 0.194079
C42   C     C_R   0.584927 0.177608 0.824742 -0.095589
C43   C     C_R   0.573914 0.141015 0.163216 -0.206353
C44   C     C_R   0.659524 0.354494 0.338463 -0.275735
C45   C     C_R   0.822268 0.293293 0.240952 0.410891
C46   C     C_R   0.813219 0.347179 0.295796 -0.150414
C47   C     C_R   0.521313 0.305693 0.326066 0.460330
C48   C     C_R   0.534237 0.250868 0.271488 -0.063201
C49   C     C_R   0.688677 0.244552 0.230035 -0.049927
C50   C     C_R   0.705970 0.189937 0.176553 -0.182414
C51   C     C_R   0.422578 0.145798 0.205457 0.257568
C52   C     C_R   0.398366 0.201311 0.258066 0.456055
H12   H     H_    0.819619 0.185782 0.143635 0.197236
O11   O     O_R   0.743670 0.046700 0.952260 -0.541633
O12   O     O_R   0.409540 0.072400 0.076630 -0.531107
O13   O     O_R   0.235480 0.953360 0.047790 -0.561228
C53   C     C_R   0.576546 0.089073 0.101814 0.724767
O14   O     O_R   0.414170 0.054050 0.954440 -0.520834
O15   O     O_R   0.240140 0.934880 0.924740 -0.539444
C54   C     C_R   0.582878 0.065897 0.937246 0.675837
O16   O     O_R   0.739000 0.065180 0.075310 -0.528898
O17   O     O_3   0.571870 0.960980 0.990450 -0.387387
V3    V     V_3+5 0.298470 0.007240 0.001770 1.467718
O18   O     O_R   0.910180 0.927540 0.923320 -0.550801
C55   C     C_R   0.077283 0.909398 0.898910 0.716265
O19   O     O_R   0.905550 0.945890 0.045500 -0.536000
C56   C     C_R   0.075439 0.934563 0.063445 0.702349
V4    V     V_3+5 0.798010 0.992650 0.998130 1.432090
O20   O     O_3   0.074480 0.039020 0.009550 -0.349819
C57   C     C_2   0.808764 0.561219 0.357727 0.396325
H13   H     H_    0.775994 0.521738 0.315854 0.070118
O21   O     O_2   0.698614 0.574383 0.401119 -0.527174
C58   C     C_2   0.789190 0.642744 0.290565 0.408538
H14   H     H_    0.744995 0.687002 0.289002 0.087854
O22   O     O_2   0.691853 0.596552 0.263023 -0.515354
O23   O     O_3   0.465124 0.474051 0.683312 -0.636748
H15   H     H_    0.508955 0.501012 0.661855 0.270841
O24   O     O_3   0.806216 0.238345 0.595015 -0.613160
H16   H     H_    0.808675 0.219589 0.549652 0.302104
C59   C     C_2   0.834811 0.310027 0.518200 0.394700
H17   H     H_    0.968007 0.284150 0.513809 0.080344
O25   O     O_2   0.770670 0.317306 0.473063 -0.535983
C60   C     C_2   0.317009 0.244002 0.891165 0.470776
H18   H     H_    0.277553 0.270846 0.938450 0.096180
O26   O     O_2   0.231435 0.253777 0.850338 -0.507906
O27   O     O_3   0.365091 0.180917 0.969049 -0.647210
H19   H     H_    0.429745 0.169079 0.000555 0.292223
C61   C     C_2   0.822867 0.030156 0.824316 0.427012
H20   H     H_    0.798466 0.994017 0.842115 0.028712
O28   O     O_2   0.947367 0.021446 0.785260 -0.515270
O29   O     O_3   0.295852 0.097002 0.196934 -0.635776
H21   H     H_    0.360620 0.057303 0.172784 0.309467
O30   O     O_3   0.960797 0.287099 0.196728 -0.624348
H22   H     H_    0.984729 0.328525 0.194951 0.313914
O31   O     O_3   0.243654 0.207795 0.297242 -0.581878
H23   H     H_    0.151202 0.172886 0.279646 0.345970
C62   C     C_2   0.970006 0.394642 0.308933 0.476812
H24   H     H_    0.938639 0.443532 0.332275 -0.013170
O32   O     O_2   0.137699 0.379223 0.295745 -0.505621
O33   O     O_3   0.377803 0.309400 0.367992 -0.571613
H25   H     H_    0.433834 0.327168 0.409800 0.312575
O34   O     O_3   0.716320 0.779850 0.713626 -0.649665
H26   H     H_    0.626994 0.815352 0.732456 0.297480
C63   C     C_2   0.435367 0.929877 0.139659 0.312078
H27   H     H_    0.493396 0.932360 0.098071 0.074278
O35   O     O_2   0.530061 0.953175 0.186734 -0.507422
C64   C     C_2   0.734918 0.795647 0.147321 0.424747
H28   H     H_    0.629818 0.786003 0.110572 0.021687
O36   O     O_2   0.693451 0.782645 0.191447 -0.509040

loop_
_geom_bond_atom_site_label_1
_geom_bond_atom_site_label_2
_ccdc_geom_bond_type
C30   H10   S    
O17   V3    S    
C6    C9    A    
N2    C21   A    
C4    C6    S    
O2    C1    A    
C7    C8    A    
C12   H1    S    
C31   C36   S    
C1    O6    A    
C62   H24   S    
C58   O22   D    
C60   H18   S    
O11   C54   A    
C63   H27   S    
C29   C34   A    
N4    C22   A    
C13   H2    S    
C9    H5    S    
C57   H13   S    
C29   O23   S    
C18   C19   A    
C19   H7    S    
C21   C28   S    
O5    C3    A    
O18   V4    S    
C7    H3    S    
V2    O10   S    
C32   O24   S    
O13   V3    S    
O19   C56   A    
C23   C28   A    
C15   C20   A    
O14   V3    S    
O12   V3    S    
C23   H8    S    
O8    V2    S    
N5    C36   A    
C27   C58   S    
C53   O16   A    
C38   C39   A    
C33   C59   S    
C11   C12   A    
C40   C41   A    
C37   C42   A    
O14   C54   A    
O7    V1    S    
O17   V4    S    
C6    C8    A    
O13   C56   A    
C24   C25   A    
C39   C54   S    
C33   C34   A    
C57   O21   D    
C9    C10   A    
C39   C40   A    
C43   C51   A    
C58   H14   S    
O19   V4    S    
O15   V3    S    
C61   O28   D    
N1    C22   A    
C23   C24   A    
C5    C12   A    
C26   C27   A    
C45   O30   S    
C45   C46   A    
C41   C42   A    
C47   C48   A    
C20   C56   S    
C2    C44   S    
C35   C42   S    
C13   C14   A    
C37   C38   A    
C17   C18   A    
C7    C11   A    
C47   O33   S    
N6    C35   A    
O11   V4    S    
C38   O27   S    
C3    C25   S    
V4    O20   S    
V3    O20   S    
C40   C61   S    
O23   H15   S    
C1    C34   S    
C25   C26   A    
C59   O25   D    
C5    C55   S    
C61   H20   S    
C44   C46   A    
C46   C62   S    
C64   O36   D    
O1    V2    S    
N1    N2    A    
N8    C36   A    
O6    V2    S    
O9    V2    S    
N3    N4    A    
O34   H26   S    
C48   C49   A    
C21   N3    A    
C52   O31   S    
O33   H25   S    
C17   C22   S    
C50   H12   S    
C27   C28   A    
O4    C2    A    
C63   O35   D    
C29   C30   A    
C24   H9    S    
C59   H17   S    
O1    C2    A    
C37   C60   S    
C45   C49   A    
C49   C50   A    
C62   O32   D    
O5    V1    S    
C15   C63   S    
C60   O26   D    
O8    C3    A    
O15   C55   A    
O3    C4    A    
C26   C57   S    
C5    C13   A    
C15   C16   A    
C30   C31   A    
C32   C33   A    
C41   H11   S    
C19   C20   A    
C14   O34   S    
V1    O10   S    
O27   H19   S    
C8    H4    S    
C48   C52   A    
C31   C32   A    
O31   H23   S    
N7    N8    A    
C16   C17   A    
C16   H6    S    
O12   C53   A    
O7    V2    S    
N5    N6    A    
C44   C47   A    
C64   H28   S    
C35   N7    A    
O4    V1    S    
C51   C52   A    
C10   C14   A    
O24   H16   S    
O18   C55   A    
O3    V1    S    
C10   C11   A    
C43   C50   A    
C43   C53   S    
O29   H21   S    
O9    C4    A    
C18   C64   S    
C51   O29   S    
O16   V4    S    
O30   H22   S    
O2    V1    S    
