data_mof_unit_27714.cif
_audit_creation_date              2012-10-26T19:26:44-0400
_audit_creation_method            fapswitch 2.2
_symmetry_space_group_name_H-M    P1
_symmetry_Int_Tables_number       1
_space_group_crystal_system       triclinic
_cell_length_a                    15.212148
_cell_length_b                    13.902059
_cell_length_c                    16.113094
_cell_angle_alpha                 86.632131
_cell_angle_beta                  82.891133
_cell_angle_gamma                 90.638415
_cell_volume                      3374.98201962

loop_
_atom_site_label
_atom_site_type_symbol
_atom_type_description
_atom_site_fract_x
_atom_site_fract_y
_atom_site_fract_z
_atom_type_partial_charge
C1    C     C_R   0.328590 0.500446 0.499783 0.532456
C2    C     C_R   0.896875 0.458065 0.570066 -0.001725
C3    C     C_R   0.952369 0.509053 0.504854 0.016580
C4    C     C_R   0.500444 0.502371 0.340035 0.594933
C5    C     C_R   0.915333 0.555810 0.437523 -0.004295
C6    C     C_R   0.935172 0.408797 0.636211 0.005428
C7    C     C_R   0.026982 0.422279 0.641282 0.281446
C8    C     C_R   0.083022 0.461936 0.570447 0.006248
C9    C     C_R   0.045507 0.509484 0.504121 -0.062700
C10   C     C_R   0.101185 0.556347 0.435983 -0.002421
C11   C     C_R   0.062270 0.592280 0.365810 0.308493
C12   C     C_3   0.619856 0.493485 0.933466 0.366102
C13   C     C_R   0.971718 0.605380 0.373512 -0.089177
C14   C     C_R   0.175690 0.451851 0.562296 -0.150143
C15   C     C_R   0.231337 0.504241 0.499038 -0.043536
C16   C     C_R   0.670997 0.500301 0.500329 0.560825
C17   C     C_R   0.192840 0.567238 0.441533 0.253161
C18   C     C_R   0.451176 0.790087 0.565306 0.110960
C19   C     C_R   0.448916 0.198881 0.562960 0.100981
C20   C     C_R   0.546465 0.802157 0.434899 0.381978
C21   C     C_R   0.550679 0.208332 0.437356 0.360131
C22   C     C_R   0.530920 0.903073 0.428001 -0.015852
C23   C     C_3   0.612582 0.509050 0.035513 0.322143
C24   C     C_R   0.534712 0.108117 0.429167 -0.015833
C25   C     C_R   0.496207 0.948622 0.499373 0.007815
C26   C     C_R   0.497427 0.051365 0.499560 0.016451
C27   C     C_R   0.461457 0.891876 0.570810 -0.010457
C28   C     C_R   0.460905 0.097271 0.569973 -0.001721
C29   C     C_R   0.553412 0.961112 0.353369 -0.052394
C30   C     C_R   0.556710 0.061986 0.354158 -0.062837
C31   C     C_R   0.432804 0.039718 0.643672 -0.115262
C32   C     C_R   0.435637 0.939247 0.644660 -0.126017
C33   C     C_R   0.501444 0.497153 0.659491 0.519200
C34   C     C_1   0.513409 0.486097 0.822585 0.153899
C35   C     C_3   0.439636 0.585173 0.043122 0.129309
C36   C     C_3   0.461655 0.392034 0.066311 0.129205
C37   C     C_3   0.467050 0.397310 0.966017 0.098139
C38   C     C_3   0.471131 0.587611 0.943784 0.095942
C39   C     C_1   0.507047 0.489546 0.748239 0.122259
C40   C     C_3   0.503606 0.497787 0.082164 -0.097279
C41   C     C_3   0.520422 0.490461 0.914154 -0.149060
C42   C     C_3   0.384004 0.736284 0.631433 -0.206548
C43   C     C_3   0.291463 0.782837 0.644943 -0.313991
C44   C     C_3   0.216953 0.707573 0.667309 -0.374759
C45   C     C_1   0.501878 0.504481 0.174482 0.143775
C46   C     C_3   0.365615 0.234435 0.613429 -0.240998
C47   C     C_3   0.380163 0.267743 0.699529 -0.252315
C48   C     C_3   0.325828 0.356348 0.721490 -0.378371
C49   C     C_3   0.330554 0.577891 0.052595 -0.241128
C50   C     C_3   0.268664 0.549995 0.985379 -0.385937
C51   C     C_3   0.172067 0.539375 0.023568 -0.414633
C52   C     C_3   0.360204 0.372613 0.103795 -0.217144
C53   C     C_3   0.334217 0.379497 0.199726 -0.286559
C54   C     C_3   0.242626 0.334723 0.228472 -0.378973
C55   C     C_3   0.791952 0.556065 0.344280 -0.210057
C56   C     C_1   0.501059 0.506522 0.249954 0.144887
C57   C     C_3   0.841018 0.489744 0.280817 -0.295103
C58   C     C_3   0.868656 0.543102 0.195996 -0.349737
C59   C     C_3   0.880029 0.337404 0.697563 -0.238224
C60   C     C_3   0.851494 0.248935 0.653767 -0.328505
C61   C     C_3   0.792631 0.180088 0.714507 -0.392995
C62   C     C_R   0.824425 0.542035 0.429845 0.015049
C63   C     C_R   0.767976 0.501300 0.499123 0.050290
C64   C     C_R   0.804227 0.459761 0.568137 -0.103944
Cu1   Cu    Cu3+1 0.499990 0.597420 0.500010 1.110286
Cu2   Cu    Cu3+1 0.499990 0.402580 0.500010 1.028172
H1    H     H_    0.411719 0.570919 0.916523 0.111248
H2    H     H_    0.167665 0.476649 0.802315 0.365566
H3    H     H_    0.326356 0.789905 0.430944 0.356731
H4    H     H_    0.050574 0.506350 0.167509 0.345035
H5    H     H_    0.213936 0.659168 0.615360 0.207623
H6    H     H_    0.227992 0.664053 0.725016 0.184973
H7    H     H_    0.152416 0.744086 0.678752 0.173894
H8    H     H_    0.287846 0.830778 0.697831 0.165705
H9    H     H_    0.278180 0.828053 0.589042 0.212789
H10   H     H_    0.372942 0.662509 0.615932 0.213200
H11   H     H_    0.410944 0.731334 0.692120 0.178375
H12   H     H_    0.402081 0.421975 0.957201 0.098877
H13   H     H_    0.332441 0.412124 0.669101 0.146873
H14   H     H_    0.255656 0.333879 0.737100 0.233114
H15   H     H_    0.347887 0.389995 0.775998 0.189660
H16   H     H_    0.359532 0.209684 0.748444 0.178602
H17   H     H_    0.451214 0.281334 0.701813 0.244894
H18   H     H_    0.330311 0.285781 0.576797 0.181516
H19   H     H_    0.314964 0.175150 0.624049 0.114789
H20   H     H_    0.757388 0.824663 0.291694 0.375664
H21   H     H_    0.766977 0.212280 0.302873 0.380528
H22   H     H_    0.164400 0.476030 0.069069 0.174017
H23   H     H_    0.204980 0.405165 0.606617 0.168600
H24   H     H_    0.149960 0.605436 0.054930 0.221581
H25   H     H_    0.129585 0.527369 0.973658 0.180767
H26   H     H_    0.271120 0.607808 0.934287 0.208002
H27   H     H_    0.283593 0.483018 0.954064 0.170516
H28   H     H_    0.303887 0.548823 0.115493 0.217258
H29   H     H_    0.305166 0.652465 0.054009 0.256887
H30   H     H_    0.192731 0.367805 0.191542 0.208368
H31   H     H_    0.243536 0.255924 0.220462 0.178740
H32   H     H_    0.223174 0.346722 0.295766 0.179683
H33   H     H_    0.381345 0.343104 0.237514 0.195812
H34   H     H_    0.945606 0.644061 0.322537 0.146235
H35   H     H_    0.334146 0.454919 0.216948 0.194353
H36   H     H_    0.310802 0.407642 0.070867 0.112228
H37   H     H_    0.340985 0.299609 0.087129 0.235579
H38   H     H_    0.526488 0.276993 0.252457 0.348956
H39   H     H_    0.348370 0.766291 0.193345 0.401658
H40   H     H_    0.320492 0.215579 0.901404 0.376586
H41   H     H_    0.546218 0.751153 0.756259 0.372867
H42   H     H_    0.652813 0.780428 0.040005 0.391827
H43   H     H_    0.835496 0.410316 0.055028 0.364334
H44   H     H_    0.831736 0.601451 0.825058 0.368836
H45   H     H_    0.568276 0.928779 0.293919 0.208617
H46   H     H_    0.802929 0.316563 0.888476 0.354134
H47   H     H_    0.915926 0.603052 0.200279 0.171139
H48   H     H_    0.901443 0.492314 0.152269 0.172688
H49   H     H_    0.810500 0.573938 0.170608 0.271803
H50   H     H_    0.900829 0.457820 0.303419 0.206957
H51   H     H_    0.798128 0.427068 0.272598 0.243545
H52   H     H_    0.720366 0.538963 0.347064 0.215198
H53   H     H_    0.800333 0.633143 0.322236 0.193122
H54   H     H_    0.827578 0.156411 0.768568 0.178458
H55   H     H_    0.730202 0.215765 0.737756 0.225263
H56   H     H_    0.574582 0.103569 0.295513 0.205786
H57   H     H_    0.775699 0.115540 0.681771 0.181392
H58   H     H_    0.814701 0.270204 0.600542 0.211218
H59   H     H_    0.911509 0.210109 0.628423 0.189587
H60   H     H_    0.917023 0.308722 0.748116 0.226835
H61   H     H_    0.822392 0.374354 0.728975 0.217497
H62   H     H_    0.409978 0.071475 0.701674 0.137142
H63   H     H_    0.417937 0.899396 0.704078 0.149323
H64   H     H_    0.758726 0.428106 0.619617 0.151060
N1    N     N_R   0.499930 0.743810 0.499960 -0.242203
N2    N     N_R   0.499930 0.256190 0.499960 -0.244143
O1    O     O_R   0.370250 0.582280 0.500020 -0.463178
O2    O     O_2   0.092158 0.304829 0.755845 -0.315448
O3    O     O_3   0.155946 0.481050 0.743091 -0.590190
O4    O     O_2   0.333899 0.637428 0.337523 -0.228876
O5    O     O_2   0.199603 0.733664 0.338674 -0.211315
O6    O     O_3   0.287200 0.739806 0.463213 -0.552150
O7    O     O_2   0.099176 0.668997 0.208702 -0.269002
O8    O     O_2   0.207473 0.555591 0.256122 -0.248657
O9    O     O_3   0.058866 0.485682 0.225634 -0.595939
O10   O     O_2   0.709198 0.733892 0.442385 -0.283343
O11   O     O_2   0.633257 0.685371 0.324522 -0.267820
O12   O     O_R   0.370250 0.417720 0.500020 -0.551626
O13   O     O_3   0.703300 0.854653 0.318790 -0.517433
O14   O     O_2   0.652934 0.350393 0.346653 -0.265713
O15   O     O_2   0.714295 0.261611 0.461190 -0.294854
O16   O     O_3   0.709662 0.179480 0.323706 -0.506329
O17   O     O_2   0.436470 0.210543 0.156324 -0.319468
O18   O     O_2   0.569842 0.220704 0.067049 -0.072912
O19   O     O_3   0.559320 0.311418 0.202335 -0.447771
O20   O     O_2   0.516186 0.707543 0.157528 -0.185051
O21   O     O_2   0.439578 0.788278 0.049653 -0.170506
O22   O     O_3   0.352256 0.699215 0.175722 -0.478232
O23   O     O_R   0.499990 0.582310 0.379440 -0.417557
O24   O     O_2   0.502787 0.280260 0.834360 -0.259293
O25   O     O_2   0.458338 0.195764 0.969173 -0.153330
O26   O     O_3   0.338090 0.284473 0.900497 -0.606183
O27   O     O_2   0.387725 0.736644 0.870975 -0.321154
O28   O     O_2   0.529635 0.782449 0.910340 -0.118701
O29   O     O_3   0.528707 0.685770 0.780981 -0.513908
O30   O     O_2   0.662970 0.630876 0.150769 -0.239163
O31   O     O_2   0.758682 0.636857 0.020775 -0.185484
O32   O     O_3   0.617103 0.726624 0.022930 -0.384483
O33   O     O_2   0.683927 0.443180 0.177039 -0.251222
O34   O     O_R   0.499990 0.417690 0.379440 -0.493808
O35   O     O_2   0.692763 0.327047 0.071055 -0.160077
O36   O     O_3   0.797984 0.466842 0.045893 -0.437955
O37   O     O_2   0.681755 0.569506 0.772921 -0.266788
O38   O     O_2   0.672958 0.687027 0.876998 -0.167933
O39   O     O_3   0.797934 0.566269 0.874317 -0.380014
O40   O     O_2   0.633401 0.290869 0.932375 -0.162279
O41   O     O_2   0.669959 0.380592 0.801597 -0.302920
O42   O     O_3   0.782487 0.380276 0.906652 -0.423788
O43   O     O_R   0.629730 0.582260 0.499990 -0.432448
O44   O     O_R   0.629730 0.417740 0.499990 -0.428605
O45   O     O_R   0.499980 0.582240 0.620570 -0.514968
O46   O     O_R   0.499980 0.417760 0.620570 -0.523649
O47   O     O_2   0.996866 0.434561 0.808599 -0.253957
S1    S     S_3+6 0.067513 0.408114 0.740351 -0.039307
S2    S     S_3+6 0.663304 0.626550 0.057785 0.136368
S3    S     S_3+6 0.693943 0.431869 0.084425 0.137473
S4    S     S_3+6 0.690505 0.583462 0.863369 0.158614
S5    S     S_3+6 0.674475 0.382927 0.894059 0.119857
S6    S     S_3+6 0.253625 0.670732 0.391119 0.068233
S7    S     S_3+6 0.111247 0.578541 0.261692 0.000781
S8    S     S_3+6 0.648555 0.765247 0.379635 0.037117
S9    S     S_3+6 0.657625 0.253683 0.391743 0.039351
S10   S     S_3+6 0.508705 0.281766 0.120226 0.091065
S11   S     S_3+6 0.443176 0.697817 0.104390 0.077044
S12   S     S_3+6 0.445432 0.285657 0.916442 0.027237
S13   S     S_3+6 0.479861 0.701864 0.878351 0.067966

loop_
_geom_bond_atom_site_label_1
_geom_bond_atom_site_label_2
_ccdc_geom_bond_type
H46   O42   S    
C52   H37   S    
C22   C29   A    
O4    S6    D    
O31   S2    D    
C11   S7    S    
C42   H10   S    
C19   C46   S    
C7    C8    A    
C14   H23   S    
C55   H53   S    
C53   C54   S    
C53   H33   S    
C59   H60   S    
O10   S8    D    
H42   O32   S    
C12   C23   S    
C52   H36   S    
C29   C30   A    
O13   S8    S    
C23   S3    S    
O33   S3    D    
C48   H13   S    
O14   S9    D    
C36   C37   S    
C24   C26   A    
O3    S1    S    
C23   S2    S    
C18   C42   S    
C51   H24   S    
O38   S4    D    
C31   C32   A    
O35   S3    D    
Cu2   O12   S    
C10   C17   A    
C59   H61   S    
C23   C40   S    
C55   C62   S    
C19   N2    A    
C48   H15   S    
C44   H5    S    
C61   H55   S    
C47   H16   S    
C60   H58   S    
O37   S4    D    
O20   S11   D    
O32   S2    S    
C51   H25   S    
C30   H56   S    
O41   S5    D    
C17   S6    S    
C8    C9    A    
C22   C25   A    
C35   C49   S    
C58   H47   S    
C5    C62   A    
C54   H31   S    
C44   H6    S    
C1    C15   S    
C16   C63   S    
C47   H17   S    
C49   H28   S    
O7    S7    D    
C9    C10   A    
C5    C13   A    
C36   C52   S    
C46   H19   S    
H44   O39   S    
C16   O44   A    
C43   H8    S    
H39   O22   S    
O22   S11   S    
C59   C60   S    
C4    C56   S    
C61   H54   S    
Cu1   O1    S    
Cu2   O44   S    
C18   N1    A    
C2    C6    A    
C34   C41   S    
C31   H62   S    
O29   S13   S    
C1    O1    A    
O27   S13   D    
C32   H63   S    
Cu1   N1    S    
C2    C64   A    
C57   H50   S    
Cu2   N2    S    
O21   S11   D    
H2    O3    S    
O5    S6    D    
C43   H9    S    
C40   C45   S    
H21   O16   S    
Cu2   O34   S    
C33   O45   A    
C36   S10   S    
H41   O29   S    
C36   C40   S    
O6    S6    S    
O28   S13   D    
C38   C41   S    
C53   H35   S    
C25   C26   A    
H40   O26   S    
C34   C39   T    
C60   C61   S    
C43   C44   S    
O25   S12   D    
C21   N2    A    
C62   C63   A    
C3    C9    A    
H43   O36   S    
Cu2   O46   S    
O40   S5    D    
C47   C48   S    
C35   C38   S    
C50   C51   S    
C33   C39   S    
C49   H29   S    
C19   C28   A    
O30   S2    D    
C46   H18   S    
C16   O43   A    
C50   H26   S    
C37   S12   S    
C64   H64   S    
Cu1   Cu2   S    
C35   S11   S    
C38   S13   S    
C55   C57   S    
C58   H49   S    
O17   S10   D    
O16   S9    S    
C42   C43   S    
C20   N1    A    
O42   S5    S    
H20   O13   S    
C52   C53   S    
H38   O19   S    
C12   C41   S    
C57   H51   S    
O39   S4    S    
H3    O6    S    
C15   C17   A    
C45   C56   T    
C46   C47   S    
C60   H59   S    
H4    O9    S    
C8    C14   A    
C27   C32   A    
O11   S8    D    
C6    C59   S    
C29   H45   S    
C28   C31   A    
C18   C27   A    
C20   C22   A    
C63   C64   A    
C3    C5    A    
C51   H22   S    
C50   H27   S    
C6    C7    A    
O15   S9    D    
C25   C27   A    
C37   H12   S    
C26   C28   A    
C61   H57   S    
O8    S7    D    
C48   H14   S    
C13   H34   S    
C2    C3    A    
Cu1   O23   S    
C1    O12   A    
O26   S12   S    
C20   S8    S    
C11   C13   A    
C57   C58   S    
C12   S5    S    
Cu1   O45   S    
C4    O34   A    
C7    S1    S    
C35   C40   S    
C37   C41   S    
C44   H7    S    
O36   S3    S    
C24   C30   A    
C21   S9    S    
C10   C11   A    
O47   S1    D    
C12   S4    S    
O24   S12   D    
O19   S10   S    
C4    O23   A    
C38   H1    S    
C42   H11   S    
C49   C50   S    
C33   O46   A    
C21   C24   A    
C58   H48   S    
C14   C15   A    
C54   H32   S    
O9    S7    S    
O2    S1    D    
C54   H30   S    
Cu1   O43   S    
O18   S10   D    
C55   H52   S    
