data_mof_unit_40357.cif
_audit_creation_date              2012-12-10T17:51:23-0500
_audit_creation_method            fapswitch 2.2
_symmetry_space_group_name_H-M    P1
_symmetry_Int_Tables_number       1
_space_group_crystal_system       triclinic
_cell_length_a                    14.736232
_cell_length_b                    14.704007
_cell_length_c                    17.406224
_cell_angle_alpha                 106.428527
_cell_angle_beta                  73.195658
_cell_angle_gamma                 115.128043
_cell_volume                      3212.63177601

loop_
_atom_site_label
_atom_site_type_symbol
_atom_type_description
_atom_site_fract_x
_atom_site_fract_y
_atom_site_fract_z
_atom_type_partial_charge
C1    C     C_R   0.118807 0.688358 0.513623 0.794682
C2    C     C_R   0.881194 0.311644 0.486371 0.794701
C3    C     C_R   0.186133 0.796962 0.520970 -0.060177
C4    C     C_R   0.813873 0.203042 0.478996 -0.060161
C5    C     C_R   0.214007 0.975776 0.541408 -0.182274
C6    C     C_R   0.786019 0.024231 0.458527 -0.182291
C7    C     C_R   0.147324 0.874347 0.541455 -0.201697
C8    C     C_R   0.852693 0.125667 0.458525 -0.201722
C9    C     C_R   0.291659 0.823142 0.505972 -0.224309
C10   C     C_R   0.708348 0.176848 0.493939 -0.224316
C11   C     C_R   0.359533 0.925373 0.515299 0.057422
C12   C     C_R   0.640489 0.074611 0.484587 0.057418
C13   C     C_R   0.321038 0.002122 0.524456 0.104012
C14   C     C_R   0.678990 0.997868 0.475430 0.104037
C15   C     C_R   0.465675 0.951418 0.509082 -0.040012
C16   C     C_R   0.534349 0.048553 0.490779 -0.040016
C17   C     C_R   0.494535 0.116460 0.479721 0.167668
C18   C     C_R   0.505495 0.883500 0.520117 0.167671
C19   C     C_R   0.389810 0.100124 0.509261 0.144460
C20   C     C_R   0.610220 0.899847 0.490574 0.144454
C21   C     C_R   0.306015 0.340664 0.353988 -0.298385
C22   C     C_R   0.693985 0.659339 0.646008 -0.298399
C23   C     C_R   0.989987 0.503837 0.652473 0.788103
C24   C     C_R   0.010013 0.496162 0.347527 0.788095
C25   C     C_R   0.216919 0.361366 0.379896 0.391738
C26   C     C_R   0.783082 0.638637 0.620101 0.391739
C27   C     C_R   0.285714 0.488603 0.488949 -0.021824
C28   C     C_R   0.714286 0.511395 0.511051 -0.021796
C29   C     C_R   0.374094 0.462311 0.468844 -0.046638
C30   C     C_R   0.625906 0.537686 0.531154 -0.046614
C31   C     C_R   0.387377 0.393794 0.395143 0.063592
C32   C     C_R   0.612622 0.606204 0.604855 0.063590
C33   C     C_R   0.451002 0.504020 0.517646 -0.032779
C34   C     C_R   0.548997 0.495974 0.482352 -0.032785
C35   C     C_R   0.566892 0.448082 0.399215 0.167208
C36   C     C_R   0.433105 0.551909 0.600783 0.167267
C37   C     C_R   0.483106 0.383948 0.361140 0.184268
C38   C     C_R   0.516891 0.616045 0.638859 0.184266
C39   C     C_R   0.987790 0.509247 0.738108 -0.026956
C40   C     C_R   0.012210 0.490751 0.261891 -0.026953
C41   C     C_R   0.055813 0.479750 0.757877 -0.210318
C42   C     C_R   0.944175 0.520229 0.242120 -0.210319
C43   C     C_R   0.057358 0.487986 0.838836 -0.146051
C44   C     C_R   0.942631 0.511990 0.161161 -0.146054
C45   C     C_R   0.989233 0.524040 0.901474 0.192096
C46   C     C_R   0.010769 0.475953 0.098524 0.192094
C47   C     C_R   0.921831 0.554494 0.881993 -0.169686
C48   C     C_R   0.078184 0.445518 0.118007 -0.169685
C49   C     C_R   0.920631 0.546671 0.800680 -0.196053
C50   C     C_R   0.079383 0.453343 0.199321 -0.196054
C51   C     C_2   0.987630 0.531752 0.987625 -0.229021
C52   C     C_2   0.012372 0.468239 0.012373 -0.229024
Cu1   Cu    Cu3+1 0.916740 0.524770 0.521640 0.935295
Cu2   Cu    Cu3+1 0.083260 0.475230 0.478360 0.935287
H1    H     H_    0.108214 0.450517 0.710800 0.160638
H2    H     H_    0.891763 0.549449 0.289195 0.160642
H3    H     H_    0.721055 0.449032 0.462314 0.152414
H4    H     H_    0.278944 0.550964 0.537687 0.152432
H5    H     H_    0.311199 0.283683 0.299471 0.161969
H6    H     H_    0.688802 0.716324 0.700522 0.161971
H7    H     H_    0.132265 0.429627 0.213061 0.154082
H8    H     H_    0.867759 0.570403 0.786941 0.154078
H9    H     H_    0.036544 0.409900 0.968471 0.144483
H10   H     H_    0.963458 0.590090 0.031529 0.144484
H11   H     H_    0.869421 0.583300 0.929734 0.123880
H12   H     H_    0.130604 0.416725 0.070268 0.123882
H13   H     H_    0.886993 0.532480 0.148133 0.124815
H14   H     H_    0.112987 0.467482 0.851860 0.124811
H15   H     H_    0.678746 0.237183 0.515821 0.177501
H16   H     H_    0.321246 0.762799 0.484069 0.177512
H17   H     H_    0.934254 0.143844 0.446404 0.155614
H18   H     H_    0.065761 0.856181 0.553617 0.155597
H19   H     H_    0.180651 0.032073 0.551822 0.146539
H20   H     H_    0.819381 0.967943 0.448125 0.146548
N1    N     N_R   0.208390 0.438070 0.445820 -0.177329
N2    N     N_R   0.791610 0.561930 0.554180 -0.177331
O1    O     O_R   0.020090 0.662480 0.528530 -0.588972
O2    O     O_R   0.979910 0.337520 0.471470 -0.588984
O3    O     O_R   0.160710 0.620650 0.491980 -0.586974
O4    O     O_R   0.839290 0.379350 0.508020 -0.586974
O5    O     O_R   0.921540 0.523360 0.633990 -0.588624
O6    O     O_R   0.078460 0.476640 0.366010 -0.588629
O7    O     O_R   0.062170 0.481520 0.597440 -0.587542
O8    O     O_R   0.937830 0.518480 0.402560 -0.587546
C53   C     C_3   0.555851 0.192460 0.422525 -0.874317
H21   H     H_    0.580172 0.271950 0.457323 0.225395
H22   H     H_    0.623462 0.176974 0.382608 0.236361
H23   H     H_    0.508443 0.185319 0.380285 0.251302
C54   C     C_3   0.444193 0.807466 0.577287 -0.874291
H24   H     H_    0.376602 0.822960 0.617241 0.236363
H25   H     H_    0.419850 0.727991 0.542465 0.225375
H26   H     H_    0.491619 0.814554 0.619494 0.251310
C55   C     C_3   0.498067 0.311501 0.281035 -0.901723
H27   H     H_    0.574180 0.305813 0.264486 0.248925
H28   H     H_    0.441744 0.232892 0.285970 0.224494
H29   H     H_    0.488250 0.336988 0.230732 0.235959
C56   C     C_3   0.501926 0.688487 0.718966 -0.901716
H30   H     H_    0.425807 0.694161 0.735523 0.248922
H31   H     H_    0.511758 0.663003 0.769264 0.235956
H32   H     H_    0.558238 0.767099 0.714029 0.224498
C57   C     C_3   0.863568 0.703995 0.671221 -0.825459
H33   H     H_    0.932274 0.687069 0.656366 0.273913
H34   H     H_    0.888380 0.785259 0.666630 0.194380
H35   H     H_    0.830060 0.696812 0.736196 0.191570
C58   C     C_3   0.136434 0.296010 0.328774 -0.825453
H36   H     H_    0.067723 0.312930 0.343634 0.273916
H37   H     H_    0.169941 0.303203 0.263801 0.191572
H38   H     H_    0.111629 0.214745 0.333357 0.194379
C59   C     C_3   0.672468 0.480620 0.345536 -0.898797
H39   H     H_    0.668125 0.493098 0.286866 0.243223
H40   H     H_    0.725001 0.555116 0.373369 0.232738
H41   H     H_    0.705305 0.421114 0.331947 0.228988
C60   C     C_3   0.327529 0.519363 0.654462 -0.898792
H42   H     H_    0.331874 0.506876 0.713129 0.243216
H43   H     H_    0.294688 0.578868 0.668058 0.228992
H44   H     H_    0.274997 0.444869 0.626625 0.232732
C61   C     C_3   0.350726 0.183206 0.516627 -0.872980
H45   H     H_    0.412828 0.258319 0.509244 0.251901
H46   H     H_    0.303701 0.160923 0.469844 0.232606
H47   H     H_    0.304001 0.195309 0.578496 0.224629
C62   C     C_3   0.649303 0.816745 0.483144 -0.873025
H48   H     H_    0.587197 0.741612 0.490457 0.251900
H49   H     H_    0.696065 0.804722 0.421277 0.224638
H50   H     H_    0.696290 0.838957 0.529941 0.232616

loop_
_geom_bond_atom_site_label_1
_geom_bond_atom_site_label_2
_ccdc_geom_bond_type
C15   C18   A    
C55   H27   S    
C29   C33   A    
C27   C29   A    
C1    O1    A    
C2    C4    S    
C4    C8    A    
C56   H30   S    
C25   C58   S    
C39   C41   A    
C28   H3    S    
C58   H37   S    
C57   H33   S    
C22   C32   A    
Cu1   O8    S    
C2    O2    A    
C35   C37   A    
C21   H5    S    
C3    C7    A    
C59   H40   S    
C26   C57   S    
C22   H6    S    
C23   C39   S    
C45   C51   S    
C15   C16   A    
C46   C52   S    
C33   C36   A    
Cu2   O2    S    
Cu1   O5    S    
C34   C35   A    
C45   C47   A    
C24   O6    A    
C41   H1    S    
C62   H50   S    
C42   H2    S    
C11   C15   A    
C12   C16   A    
C16   C17   A    
C26   N2    A    
C32   C38   A    
C54   H25   S    
C5    C13   A    
C35   C59   S    
C60   H44   S    
C48   C50   A    
C55   H28   S    
C41   C43   A    
C42   C44   A    
C38   C56   S    
C27   N1    A    
C36   C60   S    
C10   C12   A    
Cu2   O7    S    
C56   H31   S    
C44   C46   A    
C6    H20   S    
C53   H22   S    
C58   H38   S    
C46   C48   A    
C30   C34   A    
C51   C52   D    
C14   C20   A    
Cu1   O4    S    
C9    H16   S    
C47   C49   A    
C59   H41   S    
C7    H18   S    
C5    C7    A    
C13   C19   A    
C43   H14   S    
C6    C8    A    
Cu1   Cu2   S    
C52   H9    S    
C31   C37   A    
C25   N1    A    
Cu1   O1    S    
C3    C9    A    
C6    C14   A    
C21   C31   A    
C33   C34   A    
C20   C62   S    
C37   C55   S    
C54   H26   S    
C9    C11   A    
C62   H48   S    
C23   O7    A    
C39   C49   A    
C12   C14   A    
C57   H35   S    
C1    O3    A    
C17   C53   S    
C61   H47   S    
Cu1   N2    S    
C4    C10   A    
C36   C38   A    
C28   N2    A    
Cu2   O6    S    
C56   H32   S    
C60   H42   S    
C57   H34   S    
C53   H23   S    
C21   C25   A    
C24   C40   S    
C8    H17   S    
C49   H8    S    
C23   O5    A    
C18   C54   S    
C51   H10   S    
C27   H4    S    
C53   H21   S    
C55   H29   S    
C58   H36   S    
C48   H12   S    
C61   H46   S    
C24   O8    A    
C28   C30   A    
C43   C45   A    
C59   H39   S    
C30   C32   A    
C11   C13   A    
C40   C50   A    
C40   C42   A    
C17   C19   A    
C18   C20   A    
C5    H19   S    
C62   H49   S    
C2    O4    A    
Cu2   O3    S    
Cu2   N1    S    
C10   H15   S    
C19   C61   S    
C29   C31   A    
C22   C26   A    
C50   H7    S    
C44   H13   S    
C1    C3    S    
C54   H24   S    
C61   H45   S    
C47   H11   S    
C60   H43   S    
