data_mof_unit_26890.cif
_audit_creation_date              2012-12-11T14:23:18-0500
_audit_creation_method            fapswitch 2.2
_symmetry_space_group_name_H-M    P1
_symmetry_Int_Tables_number       1
_space_group_crystal_system       triclinic
_cell_length_a                    10.935799
_cell_length_b                    10.95974
_cell_length_c                    18.850492
_cell_angle_alpha                 90.488161
_cell_angle_beta                  89.726598
_cell_angle_gamma                 60.482073
_cell_volume                      1965.86863061

loop_
_atom_site_label
_atom_site_type_symbol
_atom_type_description
_atom_site_fract_x
_atom_site_fract_y
_atom_site_fract_z
_atom_type_partial_charge
C1    C     C_R   0.240249 0.644022 0.611074 0.528488
C2    C     C_3   0.661659 0.558988 0.800157 -0.251632
C3    C     C_3   0.699932 0.675227 0.811754 0.048038
C4    C     C_3   0.669412 0.648495 0.676272 0.056759
C5    C     C_3   0.820131 0.618985 0.690535 -0.246179
C6    C     C_3   0.640722 0.545150 0.720542 -0.211774
C7    C     C_R   0.690825 0.160010 0.824346 -0.012163
C8    C     C_R   0.807210 0.141375 0.782021 0.020004
C9    C     C_R   0.795948 0.142343 0.706641 0.012017
C10   C     C_R   0.551440 0.202862 0.719428 -0.159348
C11   C     C_R   0.563057 0.198285 0.791549 -0.164505
C12   C     C_R   0.653555 0.622301 0.600948 0.529093
C13   C     C_R   0.933672 0.122569 0.811600 -0.091924
C14   C     C_R   0.048325 0.094607 0.768314 -0.137500
C15   C     C_R   0.040061 0.085254 0.695170 -0.129788
C16   C     C_R   0.916067 0.106841 0.664457 -0.088206
C17   C     C_R   0.664747 0.178347 0.675774 -0.012941
C18   C     C_R   0.194815 0.657263 0.837403 -0.009301
C19   C     C_R   0.198736 0.543213 0.799507 0.023029
C20   C     C_R   0.191487 0.547260 0.724228 0.019681
C21   C     C_R   0.228791 0.748392 0.728012 -0.150475
C22   C     C_R   0.221767 0.751693 0.801163 -0.156195
C23   C     C_R   0.628416 0.227837 0.602747 0.524156
C24   C     C_R   0.208500 0.425917 0.834917 -0.100057
C25   C     C_R   0.196772 0.322079 0.797987 -0.150693
C26   C     C_R   0.173402 0.333822 0.725382 -0.159503
C27   C     C_R   0.169323 0.445621 0.688760 -0.115381
C28   C     C_R   0.207488 0.652128 0.687864 -0.002910
C29   C     C_R   0.669579 0.655410 0.170334 -0.000411
C30   C     C_R   0.786672 0.557336 0.211660 0.040030
C31   C     C_R   0.786665 0.582040 0.284662 0.019555
C32   C     C_R   0.533586 0.731601 0.278388 -0.140216
C33   C     C_R   0.542148 0.740115 0.204874 -0.151433
C34   C     C_R   0.221131 0.647726 0.402257 0.532552
C35   C     C_R   0.905651 0.437389 0.183001 -0.085498
C36   C     C_R   0.030145 0.370646 0.220108 -0.142065
C37   C     C_R   0.034368 0.406641 0.290280 -0.082005
C38   C     C_R   0.914844 0.514901 0.322014 -0.056950
C39   C     C_R   0.656281 0.658908 0.319257 -0.010917
C40   C     C_R   0.633771 0.167600 0.175100 0.003603
C41   C     C_R   0.544628 0.136959 0.218480 0.036468
C42   C     C_R   0.570916 0.120558 0.291461 0.017022
C43   C     C_R   0.709536 0.238041 0.278386 -0.132803
C44   C     C_R   0.711955 0.222165 0.205734 -0.170211
C45   C     C_R   0.642407 0.623448 0.392450 0.519911
C46   C     C_R   0.430639 0.122317 0.192690 -0.090195
C47   C     C_R   0.359920 0.075249 0.236443 -0.145684
C48   C     C_R   0.397940 0.044477 0.306728 -0.115236
C49   C     C_R   0.507769 0.059566 0.333232 -0.083523
C50   C     C_R   0.646569 0.180408 0.321918 0.002604
C51   C     C_R   0.130099 0.695304 0.188453 0.023219
C52   C     C_R   0.093355 0.814441 0.234544 0.026961
C53   C     C_R   0.080688 0.798670 0.307322 -0.037051
C54   C     C_R   0.211857 0.546062 0.288786 -0.145093
C55   C     C_R   0.189127 0.561925 0.216674 -0.152884
C56   C     C_R   0.617612 0.229076 0.394885 0.537801
C57   C     C_R   0.078270 0.945275 0.213191 -0.149942
C58   C     C_R   0.036746 0.055714 0.261379 -0.129327
C59   C     C_R   0.005920 0.042638 0.331168 0.373219
C60   C     C_R   0.019316 0.916856 0.353253 -0.058246
C61   C     C_R   0.155648 0.664073 0.334286 -0.004748
C62   C     C_R   0.703264 0.102743 0.896174 0.534618
C63   C     C_R   0.724732 0.688650 0.887795 0.542253
C64   C     C_R   0.122189 0.703344 0.906728 0.536710
C65   C     C_R   0.672082 0.108648 0.103735 0.548662
C66   C     C_R   0.696679 0.686891 0.097473 0.542535
C67   C     C_3   0.580056 0.815255 0.781289 -0.227737
C68   C     C_R   0.088574 0.714526 0.114340 0.549037
C69   C     C_3   0.565666 0.800757 0.700855 -0.241276
C70   C     C_3   0.837090 0.637761 0.769965 -0.218895
Cr1   Cr    Cr6+3 0.392940 0.397950 0.502230 1.002419
Cr2   Cr    Cr6+3 0.398400 0.708500 0.501260 1.010129
Cr3   Cr    Cr6+3 0.708640 0.393530 0.496460 1.070086
Cr4   Cr    Cr6+3 0.937880 0.938320 0.007620 0.994407
Cr5   Cr    Cr6+3 0.625560 0.937220 0.994510 0.997702
Cr6   Cr    Cr6+3 0.938080 0.625010 0.001190 0.999156
H1    H     H_    0.603013 0.902268 0.790978 0.150076
H2    H     H_    0.712979 0.435018 0.703391 0.151332
H3    H     H_    0.924568 0.538620 0.790155 0.169402
H4    H     H_    0.896476 0.509624 0.674174 0.147496
H5    H     H_    0.449943 0.230216 0.698007 0.168589
H6    H     H_    0.945153 0.133937 0.867623 0.140505
H7    H     H_    0.472168 0.215070 0.821887 0.153080
H8    H     H_    0.145959 0.075320 0.791751 0.088853
H9    H     H_    0.130909 0.059280 0.661988 0.106077
H10   H     H_    0.916950 0.092025 0.607680 0.142101
H11   H     H_    0.252583 0.822137 0.702812 0.137128
H12   H     H_    0.478506 0.843841 0.808300 0.114666
H13   H     H_    0.231009 0.410401 0.890961 0.127985
H14   H     H_    0.206090 0.232882 0.826356 0.104168
H15   H     H_    0.160589 0.255289 0.696801 0.119227
H16   H     H_    0.144144 0.452213 0.633214 0.139347
H17   H     H_    0.430552 0.780542 0.303113 0.148689
H18   H     H_    0.904282 0.392041 0.132036 0.128605
H19   H     H_    0.449395 0.808241 0.174913 0.123586
H20   H     H_    0.121646 0.287776 0.194309 0.091677
H21   H     H_    0.129510 0.349150 0.320458 0.134110
H22   H     H_    0.455666 0.828934 0.689133 0.128825
H23   H     H_    0.922000 0.542513 0.376521 0.127495
H24   H     H_    0.757843 0.295478 0.300362 0.198236
H25   H     H_    0.387875 0.154527 0.140381 0.135528
H26   H     H_    0.774670 0.252323 0.173421 0.116906
H27   H     H_    0.342264 0.008876 0.340834 0.136693
H28   H     H_    0.537968 0.030109 0.387724 0.128348
H29   H     H_    0.277923 0.441229 0.308577 0.149433
H30   H     H_    0.110129 0.963627 0.162109 0.147780
H31   H     H_    0.224622 0.470239 0.182645 0.122152
H32   H     H_    0.588220 0.875710 0.671904 0.118425
H33   H     H_    0.026896 0.152346 0.244037 0.125176
H34   H     H_    0.997623 0.907341 0.408478 0.131896
H35   H     H_    0.865900 0.721263 0.777785 0.128537
H36   H     H_    0.843760 0.690638 0.659182 0.109303
H37   H     H_    0.746765 0.457272 0.820197 0.132621
H38   H     H_    0.563585 0.584538 0.829924 0.115882
H39   H     H_    0.531696 0.565833 0.711497 0.129564
O1    O     O_R   0.507340 0.255690 0.581430 -0.528433
O2    O     O_R   0.524510 0.695820 0.424050 -0.511038
O3    O     O_R   0.736370 0.504260 0.414810 -0.493566
O4    O     O_R   0.691220 0.277270 0.422180 -0.444022
O5    O     O_3   0.499990 0.499990 0.499980 -0.252860
O6    O     O_R   0.089570 0.825450 0.930590 -0.524033
O7    O     O_R   0.818700 0.054260 0.929860 -0.513273
O8    O     O_R   0.606310 0.077010 0.915520 -0.534575
O9    O     O_R   0.646730 0.806540 0.917560 -0.511399
O10   O     O_R   0.837290 0.593240 0.915240 -0.528502
O11   O     O_R   0.065320 0.635310 0.931580 -0.512041
O12   O     O_R   0.280360 0.527380 0.578910 -0.513925
O13   O     O_R   0.068470 0.828620 0.091850 -0.541685
O14   O     O_R   0.799150 0.057200 0.079350 -0.499984
O15   O     O_R   0.585220 0.080180 0.076770 -0.536929
O16   O     O_R   0.627170 0.809480 0.067050 -0.493286
O17   O     O_R   0.816200 0.596410 0.076500 -0.532943
O18   O     O_R   0.045770 0.638240 0.081070 -0.497512
O19   O     O_3   0.833840 0.833520 0.001110 -0.239086
O20   O     O_R   0.260600 0.739610 0.584580 -0.527451
O21   O     O_R   0.532370 0.695050 0.573830 -0.512788
O22   O     O_R   0.744850 0.503430 0.576380 -0.527299
O23   O     O_R   0.699080 0.276500 0.571950 -0.507272
O24   O     O_R   0.498860 0.256520 0.419860 -0.537294
O25   O     O_R   0.272490 0.528150 0.429140 -0.512008
O26   O     O_R   0.252110 0.740440 0.423010 -0.515138
H40   H     H_    0.230015 0.833692 0.829386 0.132193
H41   H     H_    0.276707 0.060320 0.215252 0.093949
F1    F     F_    0.970436 0.149364 0.378228 -0.646392

loop_
_geom_bond_atom_site_label_1
_geom_bond_atom_site_label_2
_ccdc_geom_bond_type
C45   O3    A    
C21   H11   S    
C34   O26   A    
C8    C13   A    
Cr3   O4    S    
C29   C33   A    
C58   H33   S    
Cr6   O11   S    
C41   C42   A    
C23   O23   A    
C35   C36   A    
C67   H1    S    
C14   H8    S    
C24   H13   S    
C49   H28   S    
C37   H21   S    
C65   O15   A    
Cr5   O19   S    
C7    C8    A    
C7    C11   A    
C26   C27   A    
C17   C23   S    
Cr1   O5    S    
Cr5   O8    S    
C36   C37   A    
C9    C16   A    
C30   C31   A    
C2    H37   S    
Cr2   O21   S    
Cr3   O23   S    
C10   C17   A    
C15   C16   A    
C47   H41   S    
C18   C19   A    
C32   C39   A    
C62   O8    A    
C23   O1    A    
C54   C55   A    
C53   C61   A    
C69   H32   S    
Cr4   O13   S    
C19   C20   A    
C8    C9    A    
Cr2   O2    S    
C1    C28   S    
C41   C46   A    
C4    C12   S    
C68   O13   A    
Cr5   O15   S    
C39   C45   S    
C69   H22   S    
C68   O18   A    
C32   H17   S    
C59   C60   A    
Cr3   O5    S    
C13   C14   A    
C16   H10   S    
Cr6   O10   S    
Cr1   O12   S    
C2    C6    S    
C33   H19   S    
C4    C69   S    
C53   C60   A    
Cr5   O16   S    
C63   O9    A    
C66   O17   A    
Cr2   O26   S    
C46   H25   S    
C54   C61   A    
Cr5   O9    S    
C3    C70   S    
C60   H34   S    
C43   H24   S    
C4    C6    S    
C52   C57   A    
C56   O24   A    
Cr6   O19   S    
C38   H23   S    
Cr2   O20   S    
Cr1   O24   S    
C20   C28   A    
C11   H7    S    
C25   C26   A    
C48   H27   S    
C13   H6    S    
C34   C61   S    
C50   C56   S    
C51   C52   A    
C55   H31   S    
C67   C69   S    
C37   C38   A    
C43   C44   A    
C7    C62   S    
C29   C30   A    
C36   H20   S    
C47   C48   A    
C14   C15   A    
Cr6   O18   S    
Cr2   O5    S    
C25   H14   S    
C27   H16   S    
C24   C25   A    
C5    H4    S    
C63   O10   A    
C42   C50   A    
C30   C35   A    
C9    C17   A    
C40   C41   A    
Cr4   O7    S    
C21   C28   A    
C59   F1    S    
C64   O11   A    
C40   C65   S    
C56   O4    A    
C58   C59   A    
C62   O7    A    
C57   H30   S    
C52   C53   A    
C66   O16   A    
C35   H18   S    
C45   O2    A    
C46   C47   A    
C48   C49   A    
C44   H26   S    
Cr3   O3    S    
C54   H29   S    
C70   H3    S    
C18   C22   A    
C3    C67   S    
C1    O12   A    
C4    C5    S    
C5    C70   S    
C65   O14   A    
C22   H40   S    
C43   C50   A    
C67   H12   S    
Cr1   O25   S    
C20   C27   A    
C3    C63   S    
C5    H36   S    
C10   H5    S    
C70   H35   S    
C31   C38   A    
C15   H9    S    
C32   C33   A    
C2    C3    S    
C26   H15   S    
C1    O20   A    
Cr6   O17   S    
C2    H38   S    
C18   C64   S    
C57   C58   A    
Cr3   O22   S    
Cr4   O19   S    
C34   O25   A    
C31   C39   A    
Cr1   O1    S    
C19   C24   A    
C51   C55   A    
C51   C68   S    
C6    H39   S    
C6    H2    S    
C10   C11   A    
C42   C49   A    
C29   C66   S    
C40   C44   A    
Cr4   O6    S    
C12   O21   A    
Cr4   O14   S    
C12   O22   A    
C21   C22   A    
C64   O6    A    
