data_mof_unit_40598.cif
_audit_creation_date              2012-10-26T19:37:01-0400
_audit_creation_method            fapswitch 2.2
_symmetry_space_group_name_H-M    P1
_symmetry_Int_Tables_number       1
_space_group_crystal_system       triclinic
_cell_length_a                    10.853751
_cell_length_b                    17.727374
_cell_length_c                    16.435261
_cell_angle_alpha                 90.459432
_cell_angle_beta                  91.722159
_cell_angle_gamma                 90.597582
_cell_volume                      3160.57386406

loop_
_atom_site_label
_atom_site_type_symbol
_atom_type_description
_atom_site_fract_x
_atom_site_fract_y
_atom_site_fract_z
_atom_type_partial_charge
C1    C     C_R   0.499929 0.355239 0.499763 0.554670
C2    C     C_R   0.532877 0.232834 0.429138 -0.149135
C3    C     C_R   0.506070 0.727038 0.500543 -0.037128
C4    C     C_R   0.502159 0.272351 0.499513 -0.052367
C5    C     C_R   0.561015 0.765232 0.436559 -0.112503
C6    C     C_R   0.475142 0.232585 0.570254 -0.133481
C7    C     C_R   0.572641 0.844508 0.437978 0.239053
C8    C     C_R   0.481686 0.152928 0.572234 0.246857
C9    C     C_R   0.519409 0.884799 0.501961 0.064430
C10   C     C_R   0.512711 0.114442 0.500531 0.071126
C11   C     C_1   0.519142 0.965768 0.500789 0.071261
C12   C     C_R   0.500790 0.644561 0.500194 0.551253
C13   C     C_1   0.516738 0.033460 0.500418 0.073252
C14   C     C_R   0.564436 0.553579 0.831829 -0.169880
C15   C     C_R   0.426527 0.452652 0.167911 -0.171997
C16   C     C_R   0.261758 0.501167 0.498687 0.536409
C17   C     C_R   0.738270 0.500706 0.501451 0.536906
C18   C     C_R   0.564819 0.554009 0.745666 0.278405
C19   C     C_R   0.427041 0.450850 0.253851 0.276479
C20   C     C_R   0.431139 0.447383 0.740582 0.041970
C21   C     C_R   0.576015 0.549423 0.260640 0.034184
C22   C     C_R   0.425491 0.446986 0.826707 0.230296
C23   C     C_R   0.872018 0.502942 0.503984 -0.015657
C24   C     C_R   0.581234 0.552022 0.173563 0.239811
C25   C     C_R   0.496104 0.499663 0.873247 -0.011763
C26   C     C_R   0.503826 0.502374 0.127206 0.005810
C27   C     C_1   0.498491 0.500143 0.962907 -0.001877
C28   C     C_1   0.501848 0.501479 0.037475 0.012476
C29   C     C_R   0.252269 0.651336 0.294016 0.255976
C30   C     C_R   0.781993 0.378037 0.741379 0.259322
C31   C     C_R   0.195950 0.621400 0.361791 -0.072107
C32   C     C_R   0.825705 0.397308 0.665115 -0.065753
C33   C     C_R   0.111939 0.560877 0.354205 -0.013148
C34   C     C_R   0.127937 0.502870 0.496716 -0.018770
C35   C     C_R   0.893344 0.464076 0.654180 -0.030145
C36   C     C_R   0.077944 0.532615 0.275475 0.142217
C37   C     C_R   0.920158 0.512534 0.721895 0.144668
C38   C     C_R   0.136593 0.561527 0.206115 0.125962
C39   C     C_R   0.873635 0.494630 0.798958 0.143806
C40   C     C_R   0.225313 0.619811 0.216788 -0.099929
C41   C     C_R   0.804473 0.427732 0.807565 -0.108145
C42   C     C_R   0.929638 0.528962 0.434286 -0.122925
C43   C     C_R   0.070089 0.477699 0.566486 -0.143651
C44   C     C_3   0.738317 0.849792 0.351677 -0.014602
C45   C     C_R   0.943514 0.480632 0.572886 -0.034598
C46   C     C_3   0.817459 0.906845 0.307894 -0.376360
C47   C     C_3   0.466829 0.149571 0.714520 -0.012518
C48   C     C_3   0.469956 0.094185 0.784603 -0.385145
C49   C     C_3   0.638254 0.685711 0.736713 -0.326156
C50   C     C_3   0.343407 0.322526 0.264805 -0.328991
C51   C     C_3   0.229869 0.412936 0.856522 -0.011476
C52   C     C_3   0.152871 0.360445 0.907727 -0.372413
C53   C     C_3   0.731455 0.649411 0.180228 -0.022939
C54   C     C_3   0.808365 0.700012 0.126883 -0.372212
C55   C     C_3   0.321605 0.770356 0.257849 -0.015603
C56   C     C_R   0.057149 0.529802 0.429315 -0.016124
C57   C     C_3   0.428909 0.782333 0.201618 -0.374781
C58   C     C_3   0.730271 0.272032 0.817800 -0.034535
C59   C     C_3   0.621534 0.277579 0.874304 -0.369656
C60   C     C_3   0.011327 0.401199 0.281575 -0.316745
C61   C     C_3   0.108537 0.586378 0.747537 -0.305377
C62   C     C_3   0.160252 0.561446 0.055322 -0.333217
C63   C     C_3   0.863197 0.525160 0.947450 -0.322370
C64   C     C_3   0.503135 0.904851 0.696875 -0.293397
C65   C     C_3   0.698358 0.097052 0.352318 -0.292611
C66   C     C_R   0.464082 0.846428 0.566390 0.096340
C67   C     C_R   0.538456 0.154155 0.429045 0.096031
C68   C     C_R   0.458550 0.767689 0.565359 -0.152100
Cu1   Cu    Cu3+1 0.499990 0.499980 0.580420 0.953846
Cu2   Cu    Cu3+1 0.500010 0.500020 0.419580 0.970479
H1    H     H_    0.275109 0.640941 0.165730 0.116294
H2    H     H_    0.124094 0.456096 0.617568 0.127811
H3    H     H_    0.416139 0.738314 0.615067 0.129452
H4    H     H_    0.555153 0.263059 0.374422 0.134419
H5    H     H_    0.595575 0.732882 0.386207 0.123360
H6    H     H_    0.447793 0.264361 0.623008 0.125351
H7    H     H_    0.716772 0.802855 0.308235 0.110116
H8    H     H_    0.793659 0.828244 0.404705 0.119724
H9    H     H_    0.846389 0.953182 0.350300 0.143168
H10   H     H_    0.901195 0.878896 0.285492 0.088464
H11   H     H_    0.764911 0.930409 0.255112 0.153448
H12   H     H_    0.764375 0.415338 0.865095 0.112111
H13   H     H_    0.386996 0.187410 0.722822 0.135960
H14   H     H_    0.554718 0.182439 0.717449 0.160471
H15   H     H_    0.551423 0.057202 0.780147 0.139664
H16   H     H_    0.476692 0.125355 0.843445 0.091177
H17   H     H_    0.384325 0.059317 0.783170 0.162038
H18   H     H_    0.716972 0.591037 0.683197 0.270532
H19   H     H_    0.670418 0.724670 0.689058 0.146500
H20   H     H_    0.703823 0.689890 0.789755 0.120090
H21   H     H_    0.544878 0.703439 0.754570 0.140702
H22   H     H_    0.264777 0.421667 0.307115 0.256371
H23   H     H_    0.618070 0.594921 0.866797 0.120719
H24   H     H_    0.303476 0.285936 0.311984 0.146461
H25   H     H_    0.437116 0.301864 0.251727 0.144504
H26   H     H_    0.283541 0.318296 0.208947 0.109616
H27   H     H_    0.197057 0.407119 0.791902 0.116688
H28   H     H_    0.214648 0.471773 0.878051 0.125220
H29   H     H_    0.180683 0.366832 0.973048 0.147934
H30   H     H_    0.053811 0.374565 0.899861 0.095379
H31   H     H_    0.166063 0.300992 0.888329 0.151597
H32   H     H_    0.796000 0.616868 0.220110 0.129173
H33   H     H_    0.672283 0.686459 0.217153 0.114889
H34   H     H_    0.365630 0.415416 0.132532 0.113836
H35   H     H_    0.747479 0.731682 0.084047 0.152964
H36   H     H_    0.862268 0.740877 0.165623 0.085842
H37   H     H_    0.873407 0.665601 0.091802 0.157546
H38   H     H_    0.316978 0.820207 0.298982 0.162919
H39   H     H_    0.233294 0.768939 0.221211 0.097725
H40   H     H_    0.438991 0.732683 0.160880 0.151745
H41   H     H_    0.412606 0.833132 0.163884 0.099232
H42   H     H_    0.515579 0.790749 0.238161 0.171087
H43   H     H_    0.818228 0.286884 0.851251 0.105943
H44   H     H_    0.739347 0.211984 0.799464 0.139507
H45   H     H_    0.379128 0.405612 0.705200 0.122817
H46   H     H_    0.534020 0.264199 0.840390 0.176799
H47   H     H_    0.633494 0.236997 0.924958 0.088719
H48   H     H_    0.614663 0.335079 0.900545 0.165620
H49   H     H_    0.925359 0.485021 0.213695 0.265052
H50   H     H_    0.075033 0.380301 0.235080 0.122658
H51   H     H_    0.926320 0.365784 0.278595 0.143591
H52   H     H_    0.054393 0.395323 0.343274 0.164092
H53   H     H_    0.978924 0.604962 0.654126 0.253236
H54   H     H_    0.148750 0.643182 0.736981 0.134088
H55   H     H_    0.168599 0.543679 0.719745 0.139238
H56   H     H_    0.632512 0.586199 0.299164 0.105992
H57   H     H_    0.107403 0.577497 0.814170 0.165264
H58   H     H_    0.094695 0.472298 0.125366 0.251490
H59   H     H_    0.121907 0.531884 0.000342 0.145428
H60   H     H_    0.261412 0.553536 0.057348 0.152823
H61   H     H_    0.137923 0.622251 0.050115 0.144324
H62   H     H_    0.878781 0.602667 0.851778 0.268471
H63   H     H_    0.897760 0.569275 0.990758 0.164252
H64   H     H_    0.908513 0.471247 0.963762 0.144411
H65   H     H_    0.762094 0.519892 0.953552 0.164227
H66   H     H_    0.335788 0.861275 0.654882 0.243657
H67   H     H_    0.219547 0.644912 0.421391 0.125377
H68   H     H_    0.546291 0.852644 0.720885 0.115632
H69   H     H_    0.456443 0.933261 0.747561 0.138120
H70   H     H_    0.575666 0.943241 0.674070 0.171294
H71   H     H_    0.536813 0.140988 0.304161 0.240709
H72   H     H_    0.755238 0.149573 0.352266 0.124408
H73   H     H_    0.714120 0.065163 0.295268 0.143122
H74   H     H_    0.727544 0.061661 0.404770 0.169151
H75   H     H_    0.806234 0.359998 0.613654 0.134219
H76   H     H_    0.874662 0.550741 0.383708 0.145887
N1    N     N_R   0.499970 0.499970 0.701220 -0.231569
N2    N     N_2   0.569170 0.115183 0.356534 -0.505437
N3    N     N_R   0.500030 0.500030 0.298780 -0.223798
N4    N     N_2   0.634409 0.609523 0.704391 -0.454395
N5    N     N_2   0.349307 0.399559 0.294649 -0.454295
N6    N     N_2   0.979625 0.478836 0.265761 -0.526726
N7    N     N_2   0.985062 0.582268 0.711636 -0.524591
N8    N     N_2   0.106273 0.530079 0.127271 -0.530687
N9    N     N_2   0.892583 0.546648 0.865404 -0.531845
N10   N     N_2   0.413700 0.886643 0.632584 -0.496620
O1    O     O_R   0.499990 0.391240 0.567930 -0.501864
O2    O     O_3   0.452782 0.109631 0.640018 -0.555736
O3    O     O_3   0.355334 0.393302 0.865293 -0.575670
O4    O     O_3   0.658249 0.600225 0.130466 -0.569607
O5    O     O_3   0.343328 0.705982 0.306514 -0.556744
O6    O     O_3   0.706862 0.314294 0.746197 -0.567307
O7    O     O_R   0.500010 0.608760 0.432070 -0.487913
O8    O     O_R   0.500000 0.391270 0.432120 -0.465812
O9    O     O_R   0.500000 0.608730 0.567880 -0.472913
O10   O     O_R   0.319640 0.499990 0.567910 -0.524372
O11   O     O_R   0.680360 0.500010 0.432090 -0.518014
O12   O     O_R   0.319650 0.500020 0.432090 -0.489955
O13   O     O_R   0.680350 0.499980 0.567910 -0.496836
O14   O     O_3   0.628272 0.884545 0.376053 -0.558214

loop_
_geom_bond_atom_site_label_1
_geom_bond_atom_site_label_2
_ccdc_geom_bond_type
C51   H27   S    
C66   C68   A    
C34   C56   A    
C43   H2    S    
C23   C45   A    
C40   H1    S    
C62   H60   S    
C3    C68   A    
C49   H20   S    
C8    O2    S    
Cu2   O7    S    
H62   N9    S    
C39   C41   A    
C64   H68   S    
C53   C54   S    
C15   C19   A    
C17   C23   S    
C23   C42   A    
C49   N4    S    
C61   H54   S    
C63   H63   S    
C44   H7    S    
C35   C37   A    
C24   C26   A    
C64   H70   S    
C46   H9    S    
H66   N10   S    
C51   H28   S    
C17   O13   A    
C50   H25   S    
C57   H42   S    
C22   O3    S    
C33   C36   A    
C60   N6    S    
C14   C18   A    
C9    C66   A    
C3    C12   S    
H71   N2    S    
C42   C56   A    
Cu1   O10   S    
C50   N5    S    
C47   C48   S    
C1    O8    A    
C16   O10   A    
C59   H46   S    
C22   C25   A    
C58   H43   S    
Cu1   O1    S    
C31   C33   A    
C30   C41   A    
C47   H13   S    
C15   H34   S    
C31   H67   S    
C14   H23   S    
C2    H4    S    
H58   N8    S    
C16   C34   S    
C33   C56   S    
C59   H47   S    
C55   H39   S    
C62   H59   S    
C60   H51   S    
Cu2   N3    S    
C49   H21   S    
C44   C46   S    
Cu1   O9    S    
C52   H31   S    
C20   N1    A    
C54   H36   S    
C51   C52   S    
C30   C32   A    
C32   C35   A    
C37   N7    S    
C55   O5    S    
C4    C6    A    
C2    C67   A    
C17   O11   A    
C12   O9    A    
C5    C7    A    
C65   H74   S    
C36   N6    S    
C15   C26   A    
C6    C8    A    
C32   H75   S    
C58   C59   S    
C10   C67   A    
C52   H30   S    
C62   N8    S    
C39   N9    S    
C63   H65   S    
C5    H5    S    
C2    C4    A    
C44   H8    S    
C63   H64   S    
Cu2   O12   S    
C46   H11   S    
C9    C11   S    
C19   N5    S    
C57   H40   S    
C53   H32   S    
H22   N5    S    
C48   H17   S    
C1    O1    A    
C61   H57   S    
Cu1   O13   S    
C47   H14   S    
C65   N2    S    
C60   H52   S    
C43   C45   A    
C54   H37   S    
C8    C10   A    
C20   C22   A    
C18   N1    A    
C59   H48   S    
C21   N3    A    
C55   C57   S    
Cu1   N1    S    
C48   H16   S    
C21   C24   A    
C38   N8    S    
C35   C45   S    
C67   N2    S    
H53   N7    S    
C61   N7    S    
H49   N6    S    
C7    C9    A    
C53   O4    S    
C54   H35   S    
H18   N4    S    
C62   H61   S    
C50   H24   S    
C34   C43   A    
C49   H19   S    
C3    C5    A    
C10   C13   S    
Cu2   O8    S    
C20   H45   S    
C24   O4    S    
C6    H6    S    
C25   C27   S    
C64   N10   S    
C52   H29   S    
C26   C28   S    
C55   H38   S    
C1    C4    S    
C36   C38   A    
C66   N10   S    
C68   H3    S    
C63   N9    S    
C29   C31   A    
Cu2   O11   S    
C12   O7    A    
C38   C40   A    
C65   H72   S    
C11   C13   T    
C50   H26   S    
C57   H41   S    
C16   O12   A    
C65   H73   S    
C41   H12   S    
C29   C40   A    
C51   O3    S    
C19   N3    A    
C60   H50   S    
C14   C25   A    
Cu1   Cu2   S    
C44   O14   S    
C37   C39   A    
C7    O14   S    
C27   C28   T    
C58   H44   S    
C42   H76   S    
C30   O6    S    
C48   H15   S    
C53   H33   S    
C61   H55   S    
C46   H10   S    
C29   O5    S    
C21   H56   S    
C18   N4    S    
C64   H69   S    
C47   O2    S    
C58   O6    S    
