data_mof_unit_62654.cif
_audit_creation_date              2012-12-10T18:24:50-0500
_audit_creation_method            fapswitch 2.2
_symmetry_space_group_name_H-M    P1
_symmetry_Int_Tables_number       1
_space_group_crystal_system       triclinic
_cell_length_a                    16.056254
_cell_length_b                    16.039133
_cell_length_c                    19.560933
_cell_angle_alpha                 95.395669
_cell_angle_beta                  90.78016
_cell_angle_gamma                 84.044507
_cell_volume                      4988.06905581

loop_
_atom_site_label
_atom_site_type_symbol
_atom_type_description
_atom_site_fract_x
_atom_site_fract_y
_atom_site_fract_z
_atom_type_partial_charge
C1    C     C_R   0.275848 0.510934 0.490901 0.508036
C2    C     C_2   0.497866 0.541143 0.983011 -0.130890
C3    C     C_2   0.521147 0.474267 0.017697 -0.129240
C4    C     C_R   0.724052 0.489140 0.509061 0.508425
C5    C     C_R   0.515506 0.483125 0.236361 0.025469
C6    C     C_1   0.186396 0.514997 0.487520 0.030120
C7    C     C_2   0.021081 0.520835 0.482608 -0.129406
C8    C     C_2   0.978631 0.474756 0.521224 -0.007049
C9    C     C_1   0.888737 0.480221 0.516598 -0.049577
C10   C     C_1   0.111190 0.517980 0.485019 -0.030097
C11   C     C_1   0.813509 0.484548 0.512936 0.015606
C12   C     C_R   0.497286 0.534034 0.907574 0.040700
C13   C     C_1   0.516332 0.184824 0.487096 0.028739
C14   C     C_2   0.524510 0.018735 0.480406 -0.116182
C15   C     C_2   0.474889 0.981281 0.519564 -0.118384
C16   C     C_R   0.511721 0.274861 0.490865 0.509174
C17   C     C_1   0.479368 0.890865 0.516016 -0.039551
C18   C     C_1   0.520116 0.109147 0.483993 -0.033439
C19   C     C_1   0.483302 0.815180 0.512926 0.019600
C20   C     C_R   0.488177 0.725126 0.509126 0.504479
C21   C     C_R   0.510664 0.488946 0.311490 0.505229
C22   C     C_R   0.490528 0.510409 0.688627 0.509148
C23   C     C_R   0.437475 0.584644 0.873027 -0.112285
C24   C     C_R   0.491387 0.518125 0.763840 0.035925
C25   C     C_R   0.552319 0.468891 0.798619 -0.121942
C26   C     C_R   0.555670 0.477165 0.869809 -0.108504
C27   C     C_1   0.020357 0.419107 0.567908 0.233482
C28   C     C_1   0.488654 0.331305 0.224552 0.219016
C29   C     C_R   0.434225 0.576539 0.801453 -0.119779
C30   C     C_R   0.535321 0.552253 0.133739 -0.110908
C31   C     C_R   0.533199 0.554288 0.204894 -0.134993
C32   C     C_R   0.502512 0.408123 0.195284 -0.016161
C33   C     C_R   0.505410 0.406542 0.123955 -0.115652
C34   C     C_R   0.520086 0.478672 0.092929 0.027464
H1    H     H_    0.598123 0.424446 0.770856 0.140825
H2    H     H_    0.387209 0.615851 0.775653 0.138528
H3    H     H_    0.473613 0.600720 0.010166 0.121105
H4    H     H_    0.604587 0.439570 0.895058 0.112379
H5    H     H_    0.495304 0.349125 0.092368 0.112603
H6    H     H_    0.987590 0.561987 0.448088 0.127969
H7    H     H_    0.430522 0.018372 0.554635 0.140901
H8    H     H_    0.568882 0.981638 0.445344 0.141324
H9    H     H_    0.544190 0.612082 0.235420 0.135175
H10   H     H_    0.536191 0.412661 0.990069 0.122138
H11   H     H_    0.392544 0.629414 0.901461 0.111746
H12   H     H_    0.549701 0.607945 0.110901 0.114955
N1    N     N_1   0.053755 0.374582 0.605260 -0.285575
N2    N     N_1   0.477592 0.269731 0.247932 -0.273870
O1    O     O_3   0.500000 0.500000 0.500000 -0.444998
O2    O     O_R   0.462330 0.445560 0.340470 -0.526732
O3    O     O_R   0.440930 0.559110 0.655640 -0.543717
O4    O     O_R   0.554010 0.538050 0.348260 -0.545736
O5    O     O_R   0.542730 0.457290 0.655630 -0.545903
O6    O     O_R   0.555880 0.314540 0.535300 -0.537434
O7    O     O_R   0.439840 0.689760 0.546310 -0.536390
O8    O     O_R   0.320170 0.458170 0.449830 -0.532012
O9    O     O_R   0.684110 0.537530 0.468570 -0.535897
O10   O     O_R   0.310830 0.559620 0.535340 -0.535733
O11   O     O_R   0.684890 0.444680 0.546270 -0.533866
O12   O     O_R   0.463420 0.314900 0.449800 -0.522417
O13   O     O_R   0.540870 0.680800 0.468590 -0.537371
Zn1   Zn    Zn3+2 0.569660 0.430340 0.558290 0.951254
Zn2   Zn    Zn3+2 0.437560 0.430860 0.436130 0.973288
Zn3   Zn    Zn3+2 0.568560 0.563000 0.447270 0.946917
Zn4   Zn    Zn3+2 0.424220 0.575810 0.558310 0.949972

loop_
_geom_bond_atom_site_label_1
_geom_bond_atom_site_label_2
_ccdc_geom_bond_type
C4    O9    A    
C6    C10   T    
O13   Zn3   S    
C7    H6    S    
C23   H11   S    
C26   H4    S    
C7    C10   S    
O5    Zn1   S    
C14   C18   S    
O10   Zn4   S    
C19   C20   S    
C12   C23   A    
C14   H8    S    
C5    C32   A    
C2    C12   S    
C32   C33   A    
C33   C34   A    
O8    Zn2   S    
C7    C8    D    
O1    Zn3   S    
C1    O10   A    
C4    C11   S    
O2    Zn2   S    
C9    C11   T    
C2    H3    S    
C33   H5    S    
O1    Zn4   S    
C13   C18   T    
C25   H1    S    
C20   O7    A    
O1    Zn2   S    
C23   C29   A    
C4    O11   A    
C21   O2    A    
O7    Zn4   S    
C1    O8    A    
C2    C3    D    
C22   O5    A    
C22   C24   S    
O12   Zn2   S    
O3    Zn4   S    
C30   C31   A    
C16   O6    A    
C3    H10   S    
C22   O3    A    
C30   C34   A    
C1    C6    S    
C28   C32   S    
C5    C21   S    
C24   C25   A    
C15   H7    S    
O9    Zn3   S    
O4    Zn3   S    
C13   C16   S    
C27   N1    T    
C20   O13   A    
C15   C17   S    
C8    C27   S    
C14   C15   D    
C28   N2    T    
O11   Zn1   S    
O1    Zn1   S    
O6    Zn1   S    
C3    C34   S    
C17   C19   T    
C25   C26   A    
C24   C29   A    
C16   O12   A    
C31   H9    S    
C30   H12   S    
C21   O4    A    
C29   H2    S    
C12   C26   A    
C8    C9    S    
C5    C31   A    
