data_mof_unit_67715.cif
_audit_creation_date              2013-03-05T16:49:09-0500
_audit_creation_method            fapswitch 2.2
_symmetry_space_group_name_H-M    P1
_symmetry_Int_Tables_number       1
_space_group_crystal_system       triclinic
_cell_length_a                    11.046609
_cell_length_b                    11.051777
_cell_length_c                    9.81756
_cell_angle_alpha                 90.361056
_cell_angle_beta                  92.368451
_cell_angle_gamma                 94.261282
_cell_volume                      1194.18619905

loop_
_atom_site_label
_atom_site_type_symbol
_atom_site_description
_atom_site_fract_x
_atom_site_fract_y
_atom_site_fract_z
_atom_type_partial_charge
O1    O     O_R   0.500060 0.316850 0.620870 -0.540965
O2    O     O_R   0.499940 0.683150 0.379130 -0.541124
O3    O     O_R   0.500000 0.316860 0.379090 -0.524308
O4    O     O_R   0.500000 0.683140 0.620910 -0.524311
C1    C     C_R   0.503187 0.260343 0.499645 0.873761
C2    C     C_R   0.496613 0.739622 0.500328 0.873570
O5    O     O_R   0.319670 0.500010 0.620890 -0.526044
O6    O     O_R   0.680330 0.499990 0.379110 -0.525950
O7    O     O_R   0.319620 0.500010 0.379110 -0.536994
O8    O     O_R   0.680380 0.499990 0.620890 -0.536821
C3    C     C_R   0.263065 0.493422 0.497011 0.819471
C4    C     C_R   0.736957 0.506682 0.503010 0.819699
Cu1   Cu    Cu3+1 0.500030 0.499990 0.643150 1.122567
Cu2   Cu    Cu3+1 0.499970 0.500010 0.356850 1.122506
C5    C     C_R   0.062792 0.360443 0.064815 -0.242285
C6    C     C_R   0.937139 0.639045 0.935607 -0.242125
H1    H     H_    0.070243 0.414504 0.975704 0.242748
H2    H     H_    0.929418 0.584837 0.024583 0.242665
C7    C     C_R   0.084615 0.415157 0.191507 0.295537
C8    C     C_R   0.915757 0.584545 0.808729 0.295334
C9    C     C_R   0.080794 0.343381 0.308737 -0.138585
C10   C     C_R   0.919547 0.656556 0.691695 -0.138062
C11   C     C_R   0.058493 0.217754 0.295571 0.231729
C12   C     C_R   0.941876 0.782185 0.705222 0.232111
C13   C     C_R   0.004406 0.169296 0.172013 0.270850
C14   C     C_R   0.995291 0.830606 0.829122 0.269881
C15   C     C_R   0.020814 0.238974 0.053965 0.299065
C16   C     C_R   0.978588 0.760647 0.946929 0.298689
C17   C     C_R   0.921104 0.402932 0.451270 0.312361
C18   C     C_R   0.078986 0.597222 0.548851 0.312396
C19   C     C_R   0.871756 0.503424 0.507506 -0.084905
C20   C     C_R   0.128312 0.496740 0.492591 -0.084462
C21   C     C_R   0.952007 0.597050 0.566171 0.025073
C22   C     C_R   0.048101 0.403095 0.434023 0.025205
C23   C     C_3   0.592666 0.043712 0.581048 0.299834
C24   C     C_3   0.406715 0.956171 0.418778 0.300158
C25   C     C_3   0.602360 0.960098 0.455438 -0.291617
C26   C     C_3   0.397054 0.039821 0.544404 -0.291559
H3    H     H_    0.686609 0.928032 0.415266 0.262548
H4    H     H_    0.312918 0.071924 0.584762 0.262730
C27   C     C_3   0.492845 0.877459 0.501205 -0.243145
C28   C     C_3   0.506594 0.122449 0.498659 -0.243446
C29   C     C_3   0.483796 0.960998 0.626390 0.312898
C30   C     C_3   0.515609 0.038908 0.373458 0.312966
C31   C     C_3   0.472841 0.601922 0.047886 0.292637
C32   C     C_3   0.527155 0.398084 0.952114 0.292711
C33   C     C_3   0.395020 0.520390 0.945660 0.236055
C34   C     C_3   0.604985 0.479607 0.054347 0.235712
N1    N     N_3   0.500090 0.499970 0.858290 -0.280786
N2    N     N_3   0.499910 0.500030 0.141710 -0.280767
C35   C     C_3   0.577558 0.581483 0.953464 0.185368
C36   C     C_3   0.422451 0.418517 0.046530 0.185532
Br1   Br    Br    0.990231 0.173807 0.876337 -0.128400
Br2   Br    Br    0.006619 0.825906 0.124975 -0.129572
Br3   Br    Br    0.241806 0.573963 0.880081 -0.354084
Br4   Br    Br    0.758015 0.425571 0.119942 -0.353851
Br5   Br    Br    0.437469 0.761167 0.106574 -0.172378
Br6   Br    Br    0.562470 0.238827 0.893420 -0.171669
Br7   Br    Br    0.672030 0.721499 0.888436 -0.362138
Br8   Br    Br    0.327954 0.278506 0.111506 -0.361521
N3    N     N_R   0.091820 0.544363 0.201906 0.122806
O9    O     O_R   0.004890 0.596892 0.258190 -0.348123
O10   O     O_R   0.191643 0.607709 0.175727 -0.256342
N4    N     N_R   0.908390 0.455352 0.798023 0.122732
O11   O     O_R   0.995396 0.402714 0.742004 -0.347641
O12   O     O_R   0.808433 0.392136 0.823984 -0.256220
Br9   Br    Br    0.085461 0.124565 0.455163 -0.242693
Br10  Br    Br    0.914799 0.875858 0.546127 -0.241938
N5    N     N_R   0.912667 0.068936 0.171971 0.189572
O13   O     O_R   0.839080 0.046678 0.066406 -0.226250
O14   O     O_R   0.883435 0.016750 0.285232 -0.230122
N6    N     N_R   0.086265 0.931738 0.829935 0.190146
O15   O     O_R   0.157097 0.956476 0.937418 -0.228181
O16   O     O_R   0.117606 0.982704 0.716561 -0.230395
Br11  Br    Br    0.810867 0.262661 0.406689 -0.335643
Br12  Br    Br    0.189243 0.737427 0.593600 -0.336058
Br13  Br    Br    0.735512 0.088808 0.692745 -0.171557
Br14  Br    Br    0.263793 0.911041 0.306922 -0.171149
Br15  Br    Br    0.444879 0.919686 0.810129 -0.158024
Br16  Br    Br    0.554408 0.080241 0.189729 -0.157414

loop_
_geom_bond_atom_site_label_1
_geom_bond_atom_site_label_2
_geom_bond_distance
_ccdc_geom_bond_type
C6    C16   1.389462 A    
C18   C20   1.393650 A    
C1    C28   1.527207 S    
C14   N6    1.446217 S    
C13   N5    1.445737 S    
C33   N1    1.500870 S    
C5    C7    1.383798 A    
C32   N1    1.498709 S    
C31   Br5   1.920950 S    
O1    C1    1.343444 A    
C23   C25   1.548353 S    
C12   C14   1.414108 A    
C26   C28   1.544562 S    
C31   C35   1.540549 S    
C29   Br15  1.921585 S    
C32   C36   1.540381 S    
C5    H1    1.065052 S    
C11   Br9   1.905687 S    
O4    Cu1   2.037267 S    
N3    O10   1.297349 A    
C23   C28   1.543942 S    
C36   Br8   1.928319 S    
C34   C35   1.542840 S    
N1    C35   1.491873 S    
C2    C27   1.526981 S    
N2    C36   1.491852 S    
C19   C21   1.415003 A    
C23   C29   1.538230 S    
N3    O9    1.298911 A    
O6    C4    1.343683 A    
C34   N2    1.500875 S    
Cu1   Cu2   2.810742 S    
C32   Br6   1.920917 S    
C27   C29   1.543512 S    
C24   C27   1.544374 S    
O2    C2    1.343257 A    
C28   C30   1.543600 S    
C31   C33   1.536345 S    
C32   C34   1.536383 S    
N5    O14   1.297467 A    
C30   Br16  1.921231 S    
N6    O16   1.298768 A    
C16   Br2   1.891472 S    
C9    C22   1.463140 S    
C17   C22   1.419868 A    
C23   Br13  1.916798 S    
N4    O12   1.297365 A    
C8    N4    1.427038 S    
O5    C3    1.343382 A    
O7    Cu2   2.013165 S    
C18   Br12  1.934991 S    
C5    C15   1.389306 A    
C6    C8    1.383931 A    
C6    H2    1.065072 S    
O7    C3    1.337712 A    
O3    Cu2   2.037267 S    
O8    C4    1.337686 A    
Cu1   N1    2.112124 S    
O4    C2    1.342239 A    
C8    C10   1.402091 A    
C3    C20   1.490589 S    
C9    C11   1.396185 A    
C4    C19   1.491013 S    
C10   C12   1.396526 A    
C24   C30   1.538494 S    
O1    Cu1   2.034462 S    
C33   Br3   1.921788 S    
C34   Br4   1.921959 S    
C10   C21   1.463251 S    
O6    Cu2   1.995335 S    
C18   C21   1.419776 A    
C7    C9    1.402199 A    
N6    O15   1.302607 A    
O3    C1    1.342139 A    
O8    Cu1   2.013165 S    
C15   Br1   1.890305 S    
C33   C36   1.542741 S    
C17   Br11  1.935090 S    
C13   C15   1.406011 A    
C14   C16   1.406131 A    
N4    O11   1.299004 A    
C25   C30   1.547220 S    
C24   C26   1.548661 S    
C26   C29   1.547277 S    
C25   H3    1.106737 S    
C24   Br14  1.918356 S    
C26   H4    1.106505 S    
Cu2   N2    2.112123 S    
C31   N2    1.498768 S    
C7    N3    1.427032 S    
C11   C13   1.414079 A    
C25   C27   1.544483 S    
N5    O13   1.301085 A    
O2    Cu2   2.034462 S    
C12   Br10  1.904894 S    
O5    Cu1   1.995335 S    
C35   Br7   1.928398 S    
C17   C19   1.393760 A    
C20   C22   1.414544 A    
