data_mof_unit_12569.cif
_audit_creation_date              2012-12-11T17:07:54-0500
_audit_creation_method            fapswitch 2.2
_symmetry_space_group_name_H-M    P1
_symmetry_Int_Tables_number       1
_space_group_crystal_system       triclinic
_cell_length_a                    17.330761
_cell_length_b                    17.350856
_cell_length_c                    17.339642
_cell_angle_alpha                 90.013017
_cell_angle_beta                  90.182933
_cell_angle_gamma                 89.848718
_cell_volume                      5214.04682975

loop_
_atom_site_label
_atom_site_type_symbol
_atom_type_description
_atom_site_fract_x
_atom_site_fract_y
_atom_site_fract_z
_atom_type_partial_charge
C1    C     C_R   0.426425 0.334799 0.853891 -0.052235
C2    C     C_R   0.165903 0.925658 0.354274 -0.084470
C3    C     C_R   0.686056 0.769648 0.351247 -0.178508
C4    C     C_R   0.222849 0.316910 0.656763 -0.157872
C5    C     C_R   0.224636 0.859875 0.801433 -0.190015
C6    C     C_R   0.770792 0.686293 0.649230 -0.176581
C7    C     C_R   0.773284 0.136663 0.798058 -0.176576
C8    C     C_R   0.724926 0.182674 0.844651 -0.188465
C9    C     C_R   0.729395 0.642651 0.702906 -0.198057
C10   C     C_R   0.268609 0.814864 0.852598 -0.157415
C11   C     C_R   0.271642 0.363646 0.701963 -0.172592
C12   C     C_R   0.641297 0.726437 0.299575 -0.192029
C13   C     C_R   0.105541 0.196410 0.396847 -0.108096
C14   C     C_R   0.816728 0.270126 0.147871 -0.179867
C15   C     C_R   0.362900 0.269688 0.296058 -0.172253
C16   C     C_R   0.181377 0.722177 0.157539 -0.187206
C17   C     C_3   0.995393 0.268145 0.861534 0.276225
C18   C     C_3   0.034198 0.191126 0.844932 -0.972843
C19   C     C_3   0.805392 0.851620 0.796472 0.236531
C20   C     C_3   0.847380 0.889333 0.863802 -0.911725
C21   C     C_3   0.000278 0.692665 0.799282 0.228497
C22   C     C_3   0.915222 0.673539 0.793187 -0.971207
C23   C     C_3   0.254907 0.125267 0.793721 0.245679
C24   C     C_R   0.832979 0.075346 0.354863 -0.031473
C25   C     C_3   0.238644 0.073658 0.862710 -0.871962
C26   C     C_3   0.850618 0.802046 0.200718 0.237978
C27   C     C_3   0.887181 0.841656 0.131615 -0.910916
C28   C     C_3   0.699931 0.997340 0.196674 0.237098
C29   C     C_3   0.675736 0.913509 0.198298 -0.968004
C30   C     C_3   0.121062 0.256517 0.205874 0.262230
C31   C     C_3   0.068524 0.246160 0.135932 -0.913072
C32   C     C_3   0.239158 0.032321 0.195105 0.248063
C33   C     C_3   0.222640 0.083006 0.125366 -0.898215
C34   C     C_3   0.376481 0.764919 0.291658 0.252785
C35   C     C_R   0.925737 0.166325 0.645601 -0.069362
C36   C     C_3   0.436503 0.737059 0.349581 -0.927049
C37   C     C_3   0.260472 0.511956 0.328531 0.289311
C38   C     C_3   0.256992 0.597701 0.345045 -0.978362
C39   C     C_3   0.642092 0.283722 0.302944 0.262836
C40   C     C_3   0.612717 0.366478 0.300775 -0.952803
C41   C     C_3   0.814996 0.504672 0.289229 0.214673
C42   C     C_3   0.835354 0.419934 0.281179 -0.956998
C43   C     C_3   0.513089 0.258261 0.670517 0.288986
C44   C     C_3   0.598242 0.252694 0.651447 -0.978713
C45   C     C_3   0.294143 0.651775 0.699798 0.250877
C46   C     C_R   0.196636 0.105841 0.602644 -0.108205
C47   C     C_3   0.327650 0.617561 0.626354 -0.897625
C48   C     C_3   0.505786 0.816305 0.713092 0.220318
C49   C     C_3   0.421196 0.837010 0.722502 -0.972420
C50   C     C_3   0.749179 0.384569 0.708665 0.265803
C51   C     C_3   0.715225 0.445827 0.655564 -0.940154
C52   C     C_3   0.962341 0.388002 0.659714 0.330862
C53   C     C_3   0.922427 0.455405 0.620137 -0.987150
C54   C     C_3   0.616656 0.988471 0.731022 0.258965
C55   C     C_3   0.615697 0.060696 0.682120 -0.917064
C56   C     C_3   0.112424 0.628968 0.600538 0.289172
C57   C     C_R   0.074432 0.834106 0.645479 -0.021353
C58   C     C_3   0.121176 0.652016 0.516690 -0.946761
C59   C     C_3   0.401139 0.025872 0.638771 0.327691
C60   C     C_3   0.429849 0.991858 0.563275 -0.949163
C61   C     C_3   0.988005 0.614687 0.267520 0.262699
C62   C     C_3   0.061312 0.615364 0.315310 -0.925206
C63   C     C_3   0.627151 0.104029 0.390269 0.290570
C64   C     C_3   0.635855 0.129704 0.473498 -0.963630
C65   C     C_3   0.027313 0.403254 0.362576 0.334402
C66   C     C_3   0.995135 0.435298 0.437314 -0.961441
C67   C     C_3   0.383809 0.982907 0.315215 0.277688
C68   C     C_R   0.802294 0.894164 0.598259 -0.059040
C69   C     C_3   0.451159 0.947743 0.359369 -0.938894
C70   C     C_3   0.464142 0.901906 0.120039 0.344438
C71   C     C_3   0.488788 0.928621 0.040783 -0.990073
C72   C     C_3   0.119753 0.464980 0.160963 0.315500
C73   C     C_3   0.110865 0.463846 0.073706 -0.970376
C74   C     C_3   0.513940 0.111899 0.201347 0.265366
C75   C     C_3   0.448327 0.116837 0.143036 -0.922430
C76   C     C_3   0.867941 0.632387 0.092983 0.291662
C77   C     C_3   0.845230 0.654848 0.011185 -0.942859
C78   C     C_3   0.465670 0.120534 0.839214 0.313477
C79   C     C_3   0.908297 0.312699 0.759957 0.790783
C80   C     C_3   0.464641 0.112472 0.926507 -0.967536
C81   C     C_3   0.114410 0.511556 0.776156 0.285154
C82   C     C_3   0.117911 0.439256 0.825838 -0.942561
C83   C     C_3   0.640040 0.872438 0.905827 0.286144
C84   C     C_3   0.664122 0.851588 0.987647 -0.941839
C85   C     C_3   0.904481 0.469323 0.866307 0.319973
C86   C     C_3   0.942583 0.492965 0.941445 -0.994194
C87   C     C_3   0.681716 0.869937 0.730478 0.750272
C88   C     C_3   0.118123 0.681620 0.725577 0.727784
C89   C     C_R   0.696817 0.393608 0.899081 -0.096196
C90   C     C_3   0.352175 0.139897 0.694277 0.759776
C91   C     C_3   0.869390 0.679893 0.268467 0.754615
C92   C     C_3   0.681910 0.116009 0.267243 0.708812
C93   C     C_3   0.139737 0.352459 0.306260 0.757332
C94   C     C_3   0.305815 0.916598 0.224405 0.750115
C95   C     C_3   0.356450 0.854100 0.185906 0.776266
C96   C     C_3   0.191205 0.411544 0.263584 0.751712
C97   C     C_3   0.633592 0.172165 0.217072 0.765842
C98   C     C_3   0.818971 0.625018 0.218940 0.722113
C99   C     C_3   0.412094 0.191210 0.736235 0.752584
C100  C     C_R   0.576640 0.668246 0.855912 -0.028877
C101  C     C_3   0.175542 0.632053 0.772907 0.759783
C102  C     C_3   0.627653 0.820416 0.781447 0.722587
C103  C     C_3   0.849114 0.362710 0.804901 0.738173
C104  C     C_R   0.392256 0.697158 0.898625 -0.195999
C105  C     C_R   0.333333 0.423488 0.853545 -0.152013
C106  C     C_R   0.606889 0.302819 0.897700 -0.186825
C107  C     C_R   0.672392 0.580988 0.857607 -0.160444
C108  C     C_R   0.422915 0.332384 0.145717 -0.152358
C109  C     C_R   0.302862 0.606276 0.103226 -0.174517
C110  C     C_R   0.580096 0.671283 0.143378 -0.153176
C111  C     C_R   0.302448 0.605905 0.900346 -0.070104
C112  C     C_R   0.697608 0.392512 0.101055 -0.212306
C113  C     C_R   0.919828 0.170774 0.356258 -0.152018
C114  C     C_R   0.802836 0.892516 0.398477 -0.200133
C115  C     C_R   0.076544 0.833479 0.353682 -0.145626
C116  C     C_R   0.196744 0.106437 0.397014 -0.191173
C117  C     C_R   0.892262 0.802705 0.600161 -0.207530
C118  C     C_R   0.833464 0.076638 0.646089 -0.155995
C119  C     C_R   0.106345 0.196772 0.603539 -0.138171
C120  C     C_R   0.170395 0.920251 0.644247 -0.146435
C121  C     C_R   0.367325 0.365186 0.809827 0.042277
C122  C     C_R   0.393476 0.696277 0.102565 -0.095044
C123  C     C_R   0.683485 0.316888 0.882321 0.053226
C124  C     C_R   0.639327 0.640428 0.815073 0.070550
C125  C     C_R   0.315278 0.682203 0.884256 0.048121
C126  C     C_R   0.316585 0.682730 0.119770 0.055129
C127  C     C_R   0.638463 0.637102 0.186663 0.066849
C128  C     C_R   0.683301 0.315509 0.114884 0.077145
C129  C     C_R   0.364507 0.366167 0.189331 0.042553
C130  C     C_R   0.818098 0.815640 0.384350 0.046944
C131  C     C_R   0.134812 0.867293 0.309915 0.039619
C132  C     C_R   0.182023 0.182570 0.379224 0.049127
C133  C     C_R   0.666444 0.574967 0.145276 -0.025443
C134  C     C_R   0.861289 0.136847 0.312942 0.063967
C135  C     C_R   0.867269 0.135177 0.689288 0.045760
C136  C     C_R   0.182897 0.182363 0.620275 0.043441
C137  C     C_R   0.135989 0.862149 0.687519 0.057617
C138  C     C_R   0.815186 0.817722 0.613423 0.043914
C139  C     C_R   0.809093 0.288690 0.822959 -0.175190
C140  C     C_R   0.650209 0.753137 0.730453 -0.211755
C141  C     C_R   0.191837 0.704466 0.819153 -0.147437
C142  C     C_R   0.361662 0.259302 0.711835 -0.243278
C143  C     C_R   0.752365 0.648726 0.270228 -0.209894
C144  C     C_R   0.606834 0.302518 0.098098 -0.036217
C145  C     C_R   0.707395 0.190222 0.175214 -0.115766
C146  C     C_R   0.259005 0.360448 0.287333 -0.240963
C147  C     C_R   0.283416 0.812533 0.169317 -0.107881
C148  C     C_R   0.237754 0.863083 0.208327 -0.178497
C149  C     C_R   0.213160 0.311973 0.328351 -0.113847
C150  C     C_R   0.751562 0.144103 0.221919 -0.226687
C151  C     C_R   0.797381 0.694316 0.316123 -0.148716
C152  C     C_R   0.312707 0.213444 0.671017 -0.114045
C153  C     C_R   0.145276 0.749564 0.773940 -0.218447
C154  C     C_R   0.694884 0.797473 0.683227 -0.145114
C155  C     C_R   0.334339 0.425783 0.145766 -0.054146
C156  C     C_R   0.857247 0.244366 0.780222 -0.182019
C157  C     C_R   0.740373 0.262049 0.853485 0.095338
C158  C     C_R   0.670530 0.677052 0.746768 0.109612
C159  C     C_R   0.256785 0.734680 0.855702 0.065184
C160  C     C_R   0.337762 0.332019 0.737814 0.083086
C161  C     C_R   0.675597 0.667980 0.255097 0.107383
C162  C     C_R   0.736869 0.256797 0.141701 0.076162
C163  C     C_R   0.331385 0.336127 0.260867 0.083286
C164  C     C_R   0.259851 0.739912 0.145774 0.070140
C165  C     C_R   0.166329 0.838458 0.236909 0.069621
C166  C     C_R   0.894452 0.802586 0.400342 -0.068145
C167  C     C_R   0.237594 0.239565 0.352542 0.079225
C168  C     C_R   0.826508 0.166136 0.242172 0.102637
C169  C     C_R   0.766360 0.757933 0.354225 0.071405
C170  C     C_R   0.240305 0.238038 0.646519 0.075170
C171  C     C_R   0.165701 0.825718 0.757141 0.097806
C172  C     C_R   0.757939 0.766197 0.644453 0.071420
C173  C     C_R   0.836908 0.169531 0.759442 0.100106
C174  C     C_R   0.134930 0.771410 0.202733 -0.157587
C175  C     C_R   0.316306 0.221601 0.341689 -0.170548
C176  C     C_R   0.861047 0.226064 0.199692 -0.191996
H1    H     H_    0.470393 0.295578 0.835841 0.142368
H2    H     H_    0.205411 0.969035 0.336685 0.131197
H3    H     H_    0.633914 0.263929 0.362936 0.160379
H4    H     H_    0.550419 0.368196 0.315616 0.265240
H5    H     H_    0.645192 0.401898 0.343153 0.217962
H6    H     H_    0.620540 0.391838 0.242803 0.270041
H7    H     H_    0.751373 0.507606 0.296842 0.109083
H8    H     H_    0.843991 0.527771 0.341440 0.151632
H9    H     H_    0.895247 0.412982 0.259890 0.259187
H10   H     H_    0.829353 0.390318 0.337602 0.223864
H11   H     H_    0.795122 0.392968 0.239597 0.262875
H12   H     H_    0.506150 0.306409 0.712038 0.085137
H13   H     H_    0.077622 0.251204 0.403240 0.152815
H14   H     H_    0.481183 0.271708 0.616371 0.130212
H15   H     H_    0.608839 0.203520 0.612433 0.288000
H16   H     H_    0.616679 0.305931 0.621764 0.219865
H17   H     H_    0.632617 0.245224 0.705034 0.253418
H18   H     H_    0.343018 0.658787 0.740333 0.120317
H19   H     H_    0.270538 0.709673 0.686316 0.138240
H20   H     H_    0.281757 0.609229 0.582544 0.264029
H21   H     H_    0.371963 0.656987 0.602495 0.211150
H22   H     H_    0.355004 0.560974 0.639058 0.255793
H23   H     H_    0.508360 0.752696 0.705608 0.104176
H24   H     H_    0.790297 0.034016 0.337319 0.134317
H25   H     H_    0.527871 0.844859 0.660381 0.152961
H26   H     H_    0.414870 0.897149 0.743224 0.262946
H27   H     H_    0.390207 0.830147 0.666779 0.223116
H28   H     H_    0.395034 0.797678 0.765122 0.252664
H29   H     H_    0.700085 0.361026 0.741307 0.110758
H30   H     H_    0.773153 0.337915 0.672227 0.158126
H31   H     H_    0.760971 0.481944 0.629959 0.268628
H32   H     H_    0.683267 0.418361 0.607448 0.217327
H33   H     H_    0.673937 0.482335 0.688113 0.247286
H34   H     H_    0.004421 0.362622 0.618963 0.094090
H35   H     H_    0.967759 0.207907 0.663700 0.156238
H36   H     H_    0.995905 0.412033 0.708418 0.101247
H37   H     H_    0.890540 0.490308 0.663134 0.275612
H38   H     H_    0.966279 0.493388 0.593411 0.216752
H39   H     H_    0.882469 0.434314 0.574677 0.281698
H40   H     H_    0.653402 0.999967 0.782134 0.095441
H41   H     H_    0.557312 0.978259 0.752170 0.121100
H42   H     H_    0.565559 0.060674 0.642656 0.280911
H43   H     H_    0.612696 0.111232 0.720777 0.251222
H44   H     H_    0.668180 0.065230 0.646552 0.256457
H45   H     H_    0.050330 0.615857 0.609289 0.135104
H46   H     H_    0.251398 0.078009 0.595749 0.155297
H47   H     H_    0.147139 0.576212 0.611255 0.103824
H48   H     H_    0.181127 0.671196 0.505423 0.268894
H49   H     H_    0.107585 0.601886 0.479594 0.222503
H50   H     H_    0.080925 0.700002 0.502677 0.259287
H51   H     H_    0.349759 0.991930 0.655861 0.120387
H52   H     H_    0.446420 0.020046 0.683551 0.096961
H53   H     H_    0.479576 0.025205 0.541252 0.264702
H54   H     H_    0.447936 0.931091 0.571992 0.225722
H55   H     H_    0.382813 0.993654 0.519633 0.257308
H56   H     H_    0.998372 0.649928 0.215279 0.096096
H57   H     H_    0.032820 0.791809 0.663056 0.137641
H58   H     H_    0.977554 0.554862 0.247900 0.119791
H59   H     H_    0.062345 0.566116 0.355517 0.282248
H60   H     H_    0.111529 0.611907 0.276386 0.248758
H61   H     H_    0.065981 0.668627 0.349734 0.260232
H62   H     H_    0.630864 0.040002 0.390172 0.147435
H63   H     H_    0.569673 0.122836 0.368615 0.081561
H64   H     H_    0.633432 0.193459 0.477326 0.257638
H65   H     H_    0.588372 0.105236 0.508368 0.228393
H66   H     H_    0.691925 0.109276 0.497219 0.267286
H67   H     H_    0.992052 0.351981 0.347639 0.119887
H68   H     H_    0.747119 0.922195 0.590991 0.147292
H69   H     H_    0.021537 0.446895 0.316399 0.096106
H70   H     H_    0.031505 0.483234 0.458836 0.265010
H71   H     H_    0.935425 0.456658 0.428102 0.231884
H72   H     H_    0.994240 0.388899 0.481306 0.255638
H73   H     H_    0.360102 0.030452 0.350355 0.091205
H74   H     H_    0.406436 0.008940 0.262014 0.100252
H75   H     H_    0.486815 0.911900 0.320219 0.270859
H76   H     H_    0.488245 0.994314 0.382773 0.202527
H77   H     H_    0.429786 0.912221 0.408004 0.280340
H78   H     H_    0.502502 0.853478 0.137297 0.107000
H79   H     H_    0.419432 0.753123 0.901347 0.130862
H80   H     H_    0.469913 0.949547 0.161765 0.102534
H81   H     H_    0.444686 0.967875 0.015886 0.283604
H82   H     H_    0.544732 0.959231 0.044487 0.232566
H83   H     H_    0.493295 0.877686 0.002458 0.254831
H84   H     H_    0.135899 0.524719 0.177045 0.113730
H85   H     H_    0.063595 0.449477 0.187372 0.100420
H86   H     H_    0.090311 0.406630 0.054034 0.264698
H87   H     H_    0.068656 0.508713 0.055937 0.221030
H88   H     H_    0.167044 0.476099 0.045693 0.263272
H89   H     H_    0.497552 0.147482 0.251894 0.101078
H90   H     H_    0.289796 0.463598 0.834732 0.143924
H91   H     H_    0.520491 0.051978 0.221952 0.123810
H92   H     H_    0.453487 0.070442 0.099953 0.280664
H93   H     H_    0.392281 0.112080 0.173074 0.239311
H94   H     H_    0.449776 0.172098 0.111354 0.253763
H95   H     H_    0.881418 0.569860 0.093849 0.128994
H96   H     H_    0.920441 0.665006 0.109064 0.104130
H97   H     H_    0.821916 0.714476 0.009770 0.272439
H98   H     H_    0.896660 0.652257 0.973577 0.213926
H99   H     H_    0.800420 0.614909 0.988843 0.263291
H100  H     H_    0.525573 0.136132 0.823032 0.114744
H101  H     H_    0.579555 0.247114 0.900604 0.112222
H102  H     H_    0.449759 0.064299 0.813055 0.102407
H103  H     H_    0.509963 0.070981 0.944823 0.219472
H104  H     H_    0.476320 0.168983 0.954195 0.263233
H105  H     H_    0.407528 0.091592 0.946044 0.271303
H106  H     H_    0.149188 0.500418 0.723768 0.098302
H107  H     H_    0.054230 0.520879 0.756762 0.118774
H108  H     H_    0.068011 0.437104 0.864681 0.268847
H109  H     H_    0.117585 0.387071 0.788818 0.244538
H110  H     H_    0.170090 0.438386 0.862490 0.260958
H111  H     H_    0.578146 0.888620 0.905693 0.134056
H112  H     H_    0.751191 0.421710 0.906429 0.160115
H113  H     H_    0.721789 0.546075 0.842817 0.124496
H114  H     H_    0.674056 0.923156 0.887706 0.106768
H115  H     H_    0.722987 0.826218 0.988183 0.271039
H116  H     H_    0.664606 0.904308 0.023670 0.213434
H117  H     H_    0.623367 0.808989 0.012382 0.265995
H118  H     H_    0.854956 0.508784 0.856023 0.124046
H119  H     H_    0.946236 0.474387 0.818429 0.103263
H120  H     H_    0.983469 0.447766 0.961003 0.270545
H121  H     H_    0.973923 0.548124 0.934041 0.240997
H122  H     H_    0.897717 0.498774 0.986319 0.256449
H123  H     H_    0.462200 0.287742 0.163816 0.150379
H124  H     H_    0.247174 0.578890 0.099384 0.109570
H125  H     H_    0.545433 0.720813 0.158371 0.120091
H126  H     H_    0.753487 0.419933 0.098280 0.134019
H127  H     H_    0.955150 0.219375 0.340622 0.118145
H128  H     H_    0.746772 0.919950 0.400226 0.117909
H129  H     H_    0.036357 0.790141 0.335115 0.143074
H130  H     H_    0.252538 0.079586 0.402543 0.105227
H131  H     H_    0.919913 0.746793 0.598297 0.126653
H132  H     H_    0.535841 0.711693 0.838797 0.140231
H133  H     H_    0.789642 0.037021 0.664573 0.147325
H134  H     H_    0.079004 0.252512 0.599587 0.095693
H135  H     H_    0.219158 0.955352 0.660204 0.117541
H136  H     H_    0.077267 0.753250 0.216606 0.153106
H137  H     H_    0.340556 0.168044 0.362390 0.107077
H138  H     H_    0.919204 0.244365 0.212329 0.152828
H139  H     H_    0.659468 0.817585 0.381106 0.129534
H140  H     H_    0.169088 0.341173 0.636113 0.111011
H141  H     H_    0.242104 0.918580 0.790938 0.149104
H142  H     H_    0.818769 0.659557 0.619576 0.133686
H143  H     H_    0.247340 0.578471 0.908356 0.151130
H144  H     H_    0.757612 0.077482 0.787695 0.152959
H145  H     H_    0.673371 0.157229 0.868580 0.113542
H146  H     H_    0.749194 0.585234 0.715687 0.156329
H147  H     H_    0.317048 0.841138 0.881990 0.143727
H148  H     H_    0.253675 0.421793 0.714589 0.149303
H149  H     H_    0.582766 0.744278 0.288687 0.150419
H150  H     H_    0.842885 0.319744 0.120764 0.138490
H151  H     H_    0.420789 0.250966 0.282960 0.140448
H152  H     H_    0.157384 0.668072 0.138105 0.111868
H153  H     H_    0.942317 0.259561 0.896052 0.125214
H154  H     H_    0.421625 0.750357 0.095896 0.155424
H155  H     H_    0.034820 0.301903 0.899032 0.137000
H156  H     H_    0.088707 0.200883 0.813037 0.261139
H157  H     H_    0.047585 0.161139 0.899956 0.230444
H158  H     H_    0.995857 0.153965 0.809745 0.258792
H159  H     H_    0.850038 0.841318 0.752476 0.129032
H160  H     H_    0.782610 0.795107 0.815179 0.146185
H161  H     H_    0.806861 0.903420 0.910961 0.260392
H162  H     H_    0.892362 0.849549 0.886468 0.214908
H163  H     H_    0.875516 0.943356 0.844291 0.260379
H164  H     H_    0.004251 0.756615 0.800782 0.104802
H165  H     H_    0.709166 0.533605 0.162887 0.140636
H166  H     H_    0.023876 0.667719 0.853480 0.144019
H167  H     H_    0.907238 0.610836 0.784698 0.261118
H168  H     H_    0.884295 0.692595 0.845681 0.228063
H169  H     H_    0.890643 0.704236 0.742953 0.257764
H170  H     H_    0.199540 0.134306 0.763136 0.108392
H171  H     H_    0.274703 0.181720 0.816223 0.144088
H172  H     H_    0.292738 0.046910 0.884350 0.269594
H173  H     H_    0.212185 0.108104 0.909774 0.218066
H174  H     H_    0.197251 0.027886 0.846270 0.235034
H175  H     H_    0.841564 0.847762 0.244055 0.128831
H176  H     H_    0.579853 0.247645 0.088061 0.148206
H177  H     H_    0.793513 0.779178 0.183605 0.145671
H178  H     H_    0.899970 0.799508 0.085438 0.262003
H179  H     H_    0.847272 0.886193 0.108368 0.212361
H180  H     H_    0.941888 0.869896 0.149370 0.260647
H181  H     H_    0.763625 0.998699 0.204601 0.099871
H182  H     H_    0.683925 0.022346 0.139785 0.142204
H183  H     H_    0.612233 0.909024 0.193311 0.260104
H184  H     H_    0.703213 0.881484 0.150431 0.226915
H185  H     H_    0.694363 0.887580 0.253545 0.261395
H186  H     H_    0.127623 0.199787 0.234504 0.103213
H187  H     H_    0.294745 0.469426 0.163744 0.142920
H188  H     H_    0.178669 0.274177 0.184651 0.142628
H189  H     H_    0.037383 0.300505 0.122480 0.272089
H190  H     H_    0.102992 0.229177 0.084754 0.221387
H191  H     H_    0.025865 0.199999 0.147169 0.232104
H192  H     H_    0.252325 0.069615 0.245458 0.092052
H193  H     H_    0.185603 0.999336 0.206438 0.097310
H194  H     H_    0.219840 0.047235 0.072287 0.276893
H195  H     H_    0.166255 0.112123 0.132696 0.208378
H196  H     H_    0.268174 0.127280 0.118549 0.251087
H197  H     H_    0.353206 0.712694 0.263789 0.107508
H198  H     H_    0.922414 0.747397 0.407403 0.147786
H199  H     H_    0.329271 0.793145 0.324185 0.154752
H200  H     H_    0.475231 0.784465 0.367560 0.268698
H201  H     H_    0.407410 0.714385 0.401784 0.218695
H202  H     H_    0.470803 0.689451 0.324008 0.241759
H203  H     H_    0.308490 0.502761 0.287420 0.085107
H204  H     H_    0.273356 0.481381 0.383484 0.130282
H205  H     H_    0.209813 0.610286 0.385860 0.281223
H206  H     H_    0.312233 0.616544 0.371247 0.224556
H207  H     H_    0.247062 0.630015 0.290708 0.255254
H208  H     H_    0.704618 0.283649 0.289832 0.117120
N1    N     N_R   0.425360 0.368540 0.922560 -0.047478
N2    N     N_R   0.131460 0.925360 0.422560 -0.042799
N3    N     N_R   0.074640 0.131460 0.422560 -0.047497
N4    N     N_R   0.868540 0.074640 0.422560 -0.049775
N5    N     N_R   0.925360 0.131460 0.577440 -0.047268
N6    N     N_R   0.131460 0.074640 0.577440 -0.047798
N7    N     N_R   0.074640 0.868540 0.577440 -0.048480
N8    N     N_R   0.868540 0.925360 0.577440 -0.048919
N9    N     N_R   0.425340 0.631500 0.922560 -0.044248
N10   N     N_R   0.368500 0.425340 0.922560 -0.044804
N11   N     N_R   0.574660 0.368500 0.922560 -0.045653
N12   N     N_R   0.631460 0.425360 0.922560 -0.048914
N13   N     N_R   0.631500 0.574660 0.922560 -0.043495
N14   N     N_R   0.425340 0.368500 0.077440 -0.045453
N15   N     N_R   0.368500 0.574660 0.077440 -0.045647
N16   N     N_R   0.574660 0.631500 0.077440 -0.043571
N17   N     N_R   0.631500 0.425340 0.077440 -0.048496
N18   N     N_R   0.925340 0.131500 0.422560 -0.043915
N19   N     N_R   0.868500 0.925340 0.422560 -0.043893
N20   N     N_R   0.074660 0.868500 0.422560 -0.045465
N21   N     N_R   0.131500 0.074660 0.422560 -0.041024
N22   N     N_R   0.925340 0.868500 0.577440 -0.044258
N23   N     N_R   0.574640 0.631460 0.922560 -0.046065
N24   N     N_R   0.868500 0.074660 0.577440 -0.045718
N25   N     N_R   0.074660 0.131500 0.577440 -0.045872
N26   N     N_R   0.131500 0.925340 0.577440 -0.043672
N27   N     N_R   0.368540 0.574640 0.922560 -0.050577
N28   N     N_R   0.425360 0.631460 0.077440 -0.049659
N29   N     N_R   0.631460 0.574640 0.077440 -0.044868
N30   N     N_R   0.574640 0.368540 0.077440 -0.055179
N31   N     N_R   0.368540 0.425360 0.077440 -0.047404
N32   N     N_R   0.925360 0.868540 0.422560 -0.049564
Ni1   Ni    Ni4+2 0.500000 0.369720 0.000000 0.209612
Ni2   Ni    Ni4+2 0.630280 0.500000 0.000000 0.214906
Ni3   Ni    Ni4+2 0.500000 0.630280 0.000000 0.217714
Ni4   Ni    Ni4+2 0.369720 0.500000 0.000000 0.212817
Ni5   Ni    Ni4+2 1.000000 0.869720 0.500000 0.212123
Ni6   Ni    Ni4+2 0.130280 0.000000 0.500000 0.219020
Ni7   Ni    Ni4+2 0.000000 0.130280 0.500000 0.217574
Ni8   Ni    Ni4+2 0.869720 0.000000 0.500000 0.211839
O1    O     O_3   0.985023 0.309827 0.791763 -0.694184
O2    O     O_3   0.188651 0.486481 0.298675 -0.675500
O3    O     O_3   0.596776 0.237743 0.252542 -0.685353
O4    O     O_3   0.839166 0.544590 0.222020 -0.691227
O5    O     O_3   0.486853 0.187213 0.700976 -0.675332
O6    O     O_3   0.239712 0.599518 0.731357 -0.678972
O7    O     O_3   0.547155 0.840780 0.779566 -0.688623
O8    O     O_3   0.805225 0.417375 0.759405 -0.688148
O9    O     O_3   0.908123 0.330050 0.679752 -0.684955
O10   O     O_3   0.641756 0.925489 0.685543 -0.668698
O11   O     O_3   0.139165 0.690283 0.647044 -0.659505
O12   O     O_3   0.748585 0.903159 0.767163 -0.677913
O13   O     O_3   0.382363 0.104124 0.626952 -0.656468
O14   O     O_3   0.925604 0.640679 0.313373 -0.668029
O15   O     O_3   0.686990 0.137105 0.346171 -0.684163
O16   O     O_3   0.105446 0.383222 0.374020 -0.657235
O17   O     O_3   0.324744 0.927724 0.303529 -0.702574
O18   O     O_3   0.387124 0.877977 0.114297 -0.647694
O19   O     O_3   0.177885 0.412034 0.182635 -0.675674
O20   O     O_3   0.583233 0.134131 0.165210 -0.667346
O21   O     O_3   0.806118 0.650751 0.142323 -0.657692
O22   O     O_3   0.412915 0.178734 0.817248 -0.676555
O23   O     O_3   0.038334 0.661191 0.734291 -0.690203
O24   O     O_3   0.138962 0.576086 0.819880 -0.668605
O25   O     O_3   0.654656 0.808509 0.857818 -0.656448
O26   O     O_3   0.879022 0.393053 0.874544 -0.690020
O27   O     O_3   0.308950 0.088924 0.743713 -0.703931
O28   O     O_3   0.902402 0.745625 0.230136 -0.676395
O29   O     O_3   0.661549 0.036406 0.257104 -0.686961
O30   O     O_3   0.087013 0.309940 0.257922 -0.707470
O31   O     O_3   0.303346 0.984850 0.178497 -0.650846
O32   O     O_3   0.410558 0.814610 0.235838 -0.697748

loop_
_geom_bond_atom_site_label_1
_geom_bond_atom_site_label_2
_ccdc_geom_bond_type
C83   O25   S    
C72   O19   S    
C53   H38   S    
C24   N4    A    
C68   C138  A    
C19   C20   S    
C90   O13   S    
C89   N12   A    
C4    H140  S    
C5    H141  S    
C109  N15   A    
C66   H72   S    
C71   H82   S    
C54   H40   S    
C72   H85   S    
C135  C173  S    
C15   C163  A    
C30   O30   S    
C147  C164  A    
C63   H63   S    
N17   Ni2   S    
C102  O25   S    
C34   H199  S    
C18   H156  S    
C39   H208  S    
N30   Ni1   S    
C12   C161  A    
C40   H4    S    
C83   H114  S    
N1    N10   A    
N28   Ni3   S    
C124  C158  S    
C111  C125  A    
C99   O22   S    
C112  H126  S    
C47   H22   S    
C58   H50   S    
C73   H88   S    
C154  C172  A    
C143  C151  A    
C49   H28   S    
C80   H105  S    
C45   O6    S    
C52   H34   S    
C148  C165  A    
C114  C130  A    
N5    N24   A    
C107  C124  A    
C18   H157  S    
C8    C157  A    
C2    N2    A    
C55   H42   S    
C45   C47   S    
C36   H200  S    
C33   H195  S    
C156  C173  A    
C90   O27   S    
C48   H23   S    
C60   H53   S    
C77   H97   S    
N11   Ni1   S    
C78   H102  S    
C90   C152  S    
C70   H80   S    
C31   H191  S    
C3    C169  A    
C84   H117  S    
N8    Ni8   S    
N22   Ni5   S    
C19   O12   S    
C100  C124  A    
C65   O16   S    
C19   H159  S    
C43   C44   S    
C27   H178  S    
C37   C38   S    
C152  C170  A    
N2    Ni6   S    
C78   O22   S    
C101  O24   S    
C150  C168  A    
C128  C162  S    
C2    C131  A    
C26   C27   S    
C10   H147  S    
C59   H52   S    
C128  C144  A    
C67   H73   S    
C93   C96   S    
N23   Ni3   S    
C120  H135  S    
C17   O1    S    
C21   O23   S    
C104  N9    A    
C50   O8    S    
C40   H5    S    
C66   H70   S    
C24   C134  A    
C45   H18   S    
C9    H146  S    
C76   O21   S    
C87   O12   S    
C97   C145  S    
C72   C73   S    
C31   H190  S    
N8    N22   A    
C111  H143  S    
C117  N22   A    
C22   H168  S    
C32   H193  S    
C86   H121  S    
C75   H93   S    
C119  C136  A    
C46   H46   S    
N4    N18   A    
C34   H197  S    
C44   H16   S    
C14   H150  S    
C101  O6    S    
C9    C158  A    
C98   O21   S    
C13   C132  A    
C74   O20   S    
C100  N23   A    
C64   H64   S    
N19   Ni8   S    
C69   H75   S    
C68   N8    A    
C24   H24   S    
C118  H133  S    
C52   H36   S    
C143  C161  A    
C85   H119  S    
C42   H11   S    
C36   H202  S    
C60   H55   S    
C77   H99   S    
C147  C148  A    
C81   H107  S    
C21   H164  S    
C78   H100  S    
C82   H108  S    
C70   H78   S    
C6    C9    A    
C31   H189  S    
C23   H170  S    
C7    C8    A    
C6    C172  A    
C85   C86   S    
C16   C164  A    
C129  C163  S    
C62   H61   S    
C4    C170  A    
C103  C139  S    
N5    Ni7   S    
C56   H45   S    
C78   C80   S    
C130  C169  S    
C71   H83   S    
C92   O29   S    
C76   H95   S    
C61   H56   S    
C174  H136  S    
C26   H175  S    
C82   H109  S    
C130  C166  A    
C32   H192  S    
C30   H188  S    
C122  N28   A    
C141  C159  A    
C92   O15   S    
C116  C132  A    
C80   H103  S    
C41   H8    S    
C15   H151  S    
C145  C150  A    
C6    H142  S    
C93   O30   S    
C91   C98   S    
C87   O10   S    
C91   O28   S    
C79   C103  S    
C92   C97   S    
C38   H207  S    
C94   C148  S    
N2    N20   A    
C28   H182  S    
C95   C147  S    
C35   C135  A    
C39   C40   S    
C55   H43   S    
C123  C157  S    
C165  C174  A    
C3    H139  S    
C97   O20   S    
C25   H173  S    
C74   H91   S    
C83   C84   S    
C84   H116  S    
C94   O17   S    
C26   O28   S    
C17   C18   S    
C57   C137  A    
C153  C171  A    
C27   H179  S    
C33   H194  S    
C50   H30   S    
C42   H9    S    
C136  C170  S    
C1    N1    A    
C134  C168  S    
C144  H176  S    
C90   C99   S    
C83   H111  S    
C52   C53   S    
N13   N23   A    
C167  C175  A    
C108  H123  S    
C16   C174  A    
C168  C176  A    
C54   C55   S    
C53   H37   S    
C62   H59   S    
N21   Ni6   S    
N4    Ni8   S    
C56   H47   S    
C39   H3    S    
C75   H94   S    
C116  H130  S    
N27   Ni4   S    
C71   H81   S    
C96   C146  S    
C151  C169  A    
C155  H187  S    
N16   N29   A    
C119  N25   A    
C96   O2    S    
C20   H161  S    
C30   H186  S    
C141  C153  A    
N29   Ni2   S    
C56   C58   S    
C34   C36   S    
C61   C62   S    
C41   O4    S    
C1    C121  A    
C63   C64   S    
C109  C126  A    
C59   C60   S    
C131  C165  S    
C110  H125  S    
C37   O2    S    
C47   H21   S    
N10   Ni4   S    
C2    H2    S    
C21   C22   S    
N15   N28   A    
C73   H87   S    
N18   Ni7   S    
C49   H27   S    
C81   O24   S    
C37   H204  S    
C41   C42   S    
C93   C149  S    
C117  C138  A    
C149  C167  A    
C132  C167  S    
C18   H158  S    
C122  H154  S    
N14   Ni1   S    
C112  N17   A    
C65   H67   S    
C29   H183  S    
C44   H17   S    
C104  H79   S    
C60   H54   S    
C28   C29   S    
C30   C31   S    
C74   H89   S    
C23   H171  S    
N6    N25   A    
C64   H66   S    
C144  N30   A    
C166  H198  S    
C38   H205  S    
C86   H120  S    
N9    N27   A    
C142  C152  A    
C33   H196  S    
C14   C176  A    
C104  C125  A    
C43   H14   S    
C121  C160  S    
C99   O5    S    
C70   C71   S    
C59   H51   S    
C28   O29   S    
C97   O3    S    
C75   H92   S    
C53   H39   S    
N20   Ni5   S    
C43   O5    S    
C115  H129  S    
C103  O8    S    
C11   C160  A    
C88   C101  S    
C40   H6    S    
C66   H71   S    
C13   N3    A    
C19   H160  S    
C7    H144  S    
C138  C172  S    
C34   O32   S    
C47   H20   S    
C20   H163  S    
C129  C155  A    
C58   H48   S    
C86   H122  S    
C111  N27   A    
C67   O17   S    
C95   O18   S    
C56   O11   S    
C14   C162  A    
C12   H149  S    
C146  C149  A    
C110  N16   A    
C109  H124  S    
C108  N14   A    
C50   C51   S    
C87   C154  S    
N1    Ni1   S    
C106  H101  S    
C102  C140  S    
C4    C11   A    
C61   O14   S    
C58   H49   S    
C48   C49   S    
C113  C134  A    
C92   C150  S    
N3    N21   A    
C175  H137  S    
C23   O27   S    
C54   H41   S    
N9    Ni3   S    
C94   O31   S    
C65   H69   S    
C52   O9    S    
C39   O3    S    
C105  N10   A    
C77   H98   S    
C81   H106  S    
C127  C133  A    
N11   N12   A    
C125  C159  S    
C64   H65   S    
C103  O26   S    
C48   O7    S    
C32   C33   S    
C8    H145  S    
C17   H153  S    
C43   H12   S    
C76   H96   S    
C51   H31   S    
C94   C95   S    
C82   H110  S    
C112  C128  A    
C63   O15   S    
C155  N31   A    
C67   H74   S    
C5    C10   A    
C89   H112  S    
C80   H104  S    
N31   Ni4   S    
C41   H7    S    
C120  C137  A    
C102  O7    S    
C115  N20   A    
C118  C135  A    
C54   O10   S    
C113  N18   A    
C45   H19   S    
C176  H138  S    
C98   C143  S    
C46   N6    A    
C99   C142  S    
N14   N31   A    
C29   H185  S    
C63   H62   S    
C120  N26   A    
C81   C82   S    
C69   H77   S    
C115  C131  A    
C22   H167  S    
C118  N24   A    
N7    N26   A    
C44   H15   S    
C145  C162  A    
N12   Ni2   S    
C13   H13   S    
C11   H148  S    
C88   O11   S    
C51   H33   S    
C21   H166  S    
C25   H172  S    
C35   H35   S    
C3    C12   A    
C69   H76   S    
C38   H206  S    
C79   C156  S    
C1    H1    S    
C117  H131  S    
C139  C157  A    
C106  C123  A    
N6    Ni6   S    
C110  C127  A    
C140  C158  A    
C42   H10   S    
C36   H201  S    
C133  H165  S    
N13   Ni2   S    
C127  C161  S    
N25   Ni7   S    
C61   H58   S    
C106  N11   A    
C101  C141  S    
C126  C164  S    
N19   N32   A    
N24   Ni8   S    
C22   H169  S    
C133  N29   A    
C62   H60   S    
C74   C75   S    
C70   O18   S    
C26   H177  S    
C166  N32   A    
C76   C77   S    
C91   O14   S    
C17   H155  S    
C51   H32   S    
C57   N7    A    
C89   C123  A    
C105  H90   S    
C46   C136  A    
C48   H25   S    
C119  H134  S    
C67   C69   S    
C122  C126  A    
C88   O23   S    
C20   H162  S    
C87   C102  S    
C16   H152  S    
C113  H127  S    
C35   N5    A    
C114  H128  S    
C5    C171  A    
C105  C121  A    
N32   Ni5   S    
C108  C129  A    
C114  N19   A    
C72   H84   S    
C32   O31   S    
N16   Ni3   S    
C85   O26   S    
C10   C159  A    
N15   Ni4   S    
C73   H86   S    
C59   O13   S    
C49   H26   S    
C37   H203  S    
C28   H181  S    
C142  C160  A    
C95   O32   S    
C57   H57   S    
C79   O9    S    
C55   H44   S    
C107  N13   A    
C146  C163  A    
C15   C175  A    
C98   O4    S    
C88   C153  S    
N7    Ni5   S    
C25   H174  S    
C91   C151  S    
N17   N30   A    
C96   O19   S    
C79   O1    S    
C84   H115  S    
C139  C156  A    
C68   H68   S    
C85   H118  S    
C7    C173  A    
C116  N21   A    
C93   O16   S    
C23   C25   S    
C27   H180  S    
C137  C171  S    
N3    Ni7   S    
C100  H132  S    
C50   H29   S    
C65   C66   S    
N26   Ni6   S    
C107  H113  S    
C29   H184  S    
C140  C154  A    
