data_mof_unit_38319.cif
_audit_creation_date              2012-10-26T18:50:03-0400
_audit_creation_method            fapswitch 2.2
_symmetry_space_group_name_H-M    P1
_symmetry_Int_Tables_number       1
_space_group_crystal_system       triclinic
_cell_length_a                    10.82536
_cell_length_b                    12.975741
_cell_length_c                    11.63133
_cell_angle_alpha                 100.087534
_cell_angle_beta                  94.64496
_cell_angle_gamma                 90.136014
_cell_volume                      1603.05077308

loop_
_atom_site_label
_atom_site_type_symbol
_atom_type_description
_atom_site_fract_x
_atom_site_fract_y
_atom_site_fract_z
_atom_type_partial_charge
C1    C     C_R   0.492967 0.299125 0.478300 0.578484
C2    C     C_R   0.448727 0.862353 0.453195 -0.141859
C3    C     C_R   0.541146 0.030117 0.543784 -0.030825
C4    C     C_R   0.458860 0.969881 0.456214 -0.030813
C5    C     C_R   0.367057 0.417939 0.021656 -0.113147
C6    C     C_R   0.632943 0.582061 0.978344 -0.113149
C7    C     C_R   0.381629 0.423968 0.143885 0.080673
C8    C     C_R   0.618371 0.576032 0.856115 0.080662
C9    C     C_R   0.559875 0.532993 0.157110 0.086492
C10   C     C_R   0.440125 0.467007 0.842889 0.086490
C11   C     C_R   0.548916 0.529160 0.034257 0.043089
C12   C     C_R   0.507033 0.700874 0.521700 0.578487
C13   C     C_R   0.451084 0.470840 0.965743 0.043087
C14   C     C_R   0.262367 0.512922 0.500651 0.546947
C15   C     C_R   0.737633 0.487077 0.499349 0.546958
C16   C     C_R   0.132840 0.585517 0.714845 -0.044397
C17   C     C_R   0.867159 0.414480 0.285156 -0.044402
C18   C     C_R   0.085027 0.579574 0.821255 0.246210
C19   C     C_R   0.914972 0.420423 0.178745 0.246209
C20   C     C_R   0.974761 0.524801 0.822013 -0.075135
C21   C     C_R   0.025238 0.475196 0.177987 -0.075138
C22   C     C_R   0.907581 0.483681 0.716582 -0.105207
C23   C     C_R   0.518446 0.814151 0.534117 -0.036149
C24   C     C_R   0.092418 0.516316 0.283418 -0.105213
C25   C     C_R   0.948916 0.498059 0.607732 0.018017
C26   C     C_R   0.051084 0.501939 0.392268 0.018013
C27   C     C_R   0.070516 0.536559 0.607186 -0.021858
C28   C     C_R   0.929484 0.463438 0.392814 -0.021861
C29   C     C_R   0.873706 0.474315 0.500174 -0.015755
C30   C     C_R   0.126294 0.525682 0.499826 -0.015758
C31   C     C_R   0.481558 0.185848 0.465881 -0.036147
C32   C     C_R   0.388096 0.018380 0.373781 0.281469
C33   C     C_R   0.611929 0.981616 0.626209 0.281457
C34   C     C_R   0.398822 0.126761 0.379328 0.264257
C35   C     C_R   0.601208 0.873234 0.620657 0.264245
C36   C     C_R   0.551266 0.137646 0.546808 -0.141875
Cl1   Cl    Cl    0.166022 0.637602 0.953684 -0.571134
Cl2   Cl    Cl    0.833976 0.362395 0.046316 -0.571137
Cl3   Cl    Cl    0.698382 0.811935 0.717460 -0.481761
Cl4   Cl    Cl    0.301693 0.188052 0.282497 -0.481771
Cl5   Cl    Cl    0.284140 0.945164 0.263720 -0.434662
Cl6   Cl    Cl    0.715925 0.054827 0.736253 -0.434643
Cu1   Cu    Cu3+1 0.509250 0.507730 0.615930 1.004910
Cu2   Cu    Cu3+1 0.490750 0.492270 0.384070 1.004918
H1    H     H_    0.060266 0.484550 0.095824 0.169490
H2    H     H_    0.634171 0.578515 0.210671 0.134500
H3    H     H_    0.684352 0.616203 0.813938 0.182508
H4    H     H_    0.315648 0.383797 0.186062 0.182510
H5    H     H_    0.290304 0.372761 0.971515 0.131971
H6    H     H_    0.709696 0.627239 0.028484 0.131971
H7    H     H_    0.939733 0.515447 0.904176 0.169490
H8    H     H_    0.217570 0.630494 0.717327 0.176317
H9    H     H_    0.782429 0.369503 0.282673 0.176318
H10   H     H_    0.825550 0.437750 0.721858 0.168863
H11   H     H_    0.174448 0.562247 0.278142 0.168863
H12   H     H_    0.386200 0.814409 0.387867 0.197277
H13   H     H_    0.613777 0.185592 0.612144 0.197277
H14   H     H_    0.365829 0.421484 0.789329 0.134497
N1    N     N_R   0.523180 0.519350 0.790130 -0.242438
N2    N     N_R   0.476820 0.480650 0.209870 -0.242436
O1    O     O_R   0.506570 0.354460 0.582000 -0.513086
O2    O     O_R   0.493430 0.645540 0.418000 -0.513079
O3    O     O_R   0.490940 0.341410 0.386200 -0.452385
O4    O     O_R   0.509060 0.658590 0.613800 -0.452399
O5    O     O_R   0.327470 0.506520 0.597900 -0.521603
O6    O     O_R   0.672530 0.493480 0.402100 -0.521601
O7    O     O_R   0.311840 0.493460 0.402100 -0.510055
O8    O     O_R   0.688160 0.506540 0.597900 -0.510049

loop_
_geom_bond_atom_site_label_1
_geom_bond_atom_site_label_2
_ccdc_geom_bond_type
C35   Cl3   S    
C32   Cl5   S    
C10   C13   A    
C15   C29   S    
C19   C21   A    
C19   Cl2   S    
C25   C27   A    
C11   C13   A    
C5    C13   A    
Cu1   N1    S    
Cu1   O5    S    
C9    N2    A    
C7    H4    S    
C16   C27   A    
C10   N1    A    
C8    H3    S    
C9    H2    S    
C22   H10   S    
C2    H12   S    
C6    H6    S    
C24   H11   S    
C9    C11   A    
C12   C23   S    
C5    H5    S    
Cu2   O6    S    
C4    C32   A    
C3    C36   A    
Cu2   N2    S    
C34   Cl4   S    
C2    C4    A    
C1    O3    A    
C28   C29   A    
C33   C35   A    
C14   O5    A    
C20   C22   A    
Cu1   O4    S    
C26   C30   A    
C20   H7    S    
C21   H1    S    
C6    C11   A    
C8    N1    A    
C25   C29   A    
Cu1   Cu2   S    
C12   O4    A    
C23   C35   A    
C31   C34   A    
C33   Cl6   S    
C14   O7    A    
C3    C4    A    
C17   H9    S    
C7    N2    A    
C1    C31   S    
C12   O2    A    
C15   O6    A    
Cu1   O1    S    
C18   C20   A    
C16   C18   A    
Cu2   O3    S    
C21   C24   A    
C2    C23   A    
C5    C7    A    
Cu2   O7    S    
C3    C33   A    
C31   C36   A    
C17   C19   A    
C36   H13   S    
C6    C8    A    
C10   H14   S    
Cu2   O2    S    
C32   C34   A    
C14   C30   S    
C17   C28   A    
C26   C28   A    
C18   Cl1   S    
C16   H8    S    
C15   O8    A    
C24   C26   A    
Cu1   O8    S    
C27   C30   A    
C22   C25   A    
C1    O1    A    
