data_mof_unit_32813.cif
_audit_creation_date              2013-03-05T15:41:44-0500
_audit_creation_method            fapswitch 2.2
_symmetry_space_group_name_H-M    P1
_symmetry_Int_Tables_number       1
_space_group_crystal_system       triclinic
_cell_length_a                    6.940092
_cell_length_b                    13.727993
_cell_length_c                    20.366242
_cell_angle_alpha                 102.271314
_cell_angle_beta                  89.632621
_cell_angle_gamma                 90.588578
_cell_volume                      1895.91284073

loop_
_atom_site_label
_atom_site_type_symbol
_atom_site_description
_atom_site_fract_x
_atom_site_fract_y
_atom_site_fract_z
_atom_type_partial_charge
O1    O     O_R   0.506860 0.599390 0.449240 -0.551890
O2    O     O_R   0.180220 0.594600 0.586780 -0.518625
O3    O     O_R   0.004500 0.400610 0.550760 -0.563478
C1    C     C_R   0.347611 0.612849 0.614820 0.919839
O4    O     O_R   0.177490 0.611290 0.451970 -0.537331
O5    O     O_R   0.001750 0.417420 0.414990 -0.535841
C2    C     C_R   0.347164 0.637544 0.434677 0.954972
O6    O     O_R   0.509610 0.582580 0.585010 -0.541418
O7    O     O_3   0.337420 0.436370 0.488020 -0.278404
V1    V     V_3+5 0.064680 0.511800 0.502220 1.304228
O8    O     O_R   0.671710 0.405400 0.413220 -0.535312
C3    C     C_R   0.840733 0.384841 0.386091 0.892296
O9    O     O_R   0.674440 0.388710 0.548030 -0.569239
C4    C     C_R   0.842115 0.362368 0.564368 0.849850
V2    V     V_3+5 0.564010 0.488200 0.497780 1.284812
O10   O     O_3   0.841140 0.563630 0.511980 -0.253684
C5    C     C_R   0.839901 0.111972 0.607828 0.031702
H1    H     H_    0.867091 0.986345 0.687512 0.156640
C6    C     C_R   0.845653 0.285353 0.603103 -0.099174
C7    C     C_R   0.849133 0.310455 0.926299 -0.053957
C8    C     C_R   0.827531 0.385675 0.891140 0.024905
C9    C     C_R   0.820714 0.363247 0.821322 -0.058231
C10   C     C_R   0.838292 0.263855 0.784341 0.016690
C11   C     C_R   0.858880 0.185937 0.820463 -0.066229
C12   C     C_R   0.838329 0.239692 0.712538 0.040958
C13   C     C_R   0.840553 0.138233 0.678283 -0.020759
C14   C     C_R   0.854485 0.063427 0.714102 -0.064869
C15   C     C_R   0.874682 0.086092 0.783455 0.318504
C16   C     C_R   0.842319 0.312731 0.673160 -0.100113
C17   C     C_R   0.841653 0.185387 0.570379 -0.036859
C18   C     C_R   0.863373 0.211086 0.892207 -0.112799
H2    H     H_    0.851348 0.329670 0.980739 0.124928
H3    H     H_    0.798481 0.425557 0.797927 0.103356
C19   C     C_2   0.005259 0.300833 0.278713 0.364739
C20   C     C_2   0.848782 0.313468 0.320112 -0.191666
C21   C     C_2   0.012496 0.222864 0.215357 -0.076694
C22   C     C_2   0.856643 0.185112 0.179564 -0.224071
H4    H     H_    0.154439 0.201625 0.194772 0.158216
C23   C     C_2   0.213615 0.751021 0.797617 0.289246
C24   C     C_2   0.358759 0.816312 0.819486 -0.192362
C25   C     C_2   0.197269 0.700102 0.724797 0.278589
C26   C     C_2   0.355216 0.670722 0.685609 -0.286103
C27   C     C_R   0.412077 0.892181 0.392248 0.328487
C28   C     C_R   0.360441 0.718134 0.397166 -0.215844
C29   C     C_R   0.383739 0.688568 0.073695 -0.158682
C30   C     C_R   0.431989 0.615126 0.108472 0.327093
C31   C     C_R   0.446725 0.639493 0.179373 0.278493
C32   C     C_R   0.397832 0.737621 0.215656 -0.030059
C33   C     C_R   0.369723 0.812860 0.178299 -0.074622
C34   C     C_R   0.383990 0.764860 0.287613 0.007365
C35   C     C_R   0.387814 0.867203 0.321019 -0.130778
C36   C     C_R   0.362915 0.940672 0.282243 0.380192
C37   C     C_R   0.351971 0.912566 0.212386 -0.106080
C38   C     C_R   0.353956 0.693275 0.327128 -0.069474
C39   C     C_R   0.398223 0.817084 0.430023 0.256940
C40   C     C_R   0.361954 0.787381 0.107199 -0.123227
O11   O     O_R   0.203230 0.917310 0.915020 -0.484369
O12   O     O_R   0.535500 0.888690 0.048040 -0.570996
O13   O     O_R   0.711080 0.082610 0.085000 -0.563727
C41   C     C_R   0.366710 0.863757 0.066256 0.844159
O14   O     O_R   0.532630 0.905370 0.913230 -0.533341
O15   O     O_R   0.708190 0.099410 0.949230 -0.555390
C42   C     C_R   0.364204 0.881613 0.887472 0.960539
O16   O     O_R   0.206120 0.900510 0.050790 -0.560360
O17   O     O_3   0.375360 0.063570 0.011990 -0.288282
V3    V     V_3+5 0.648170 0.988200 0.997780 1.256185
O18   O     O_R   0.038240 0.111390 0.951940 -0.540224
C43   C     C_R   0.870382 0.135930 0.933642 0.883948
O19   O     O_R   0.041120 0.094710 0.086750 -0.575650
C44   C     C_R   0.871801 0.115565 0.113546 0.844932
V4    V     V_3+5 0.148810 0.011930 0.002180 1.259610
O20   O     O_3   0.871750 0.936430 0.988010 -0.237690
H5    H     H_    0.841628 0.164417 0.515995 0.137497
H6    H     H_    0.722222 0.266663 0.306922 0.127017
H7    H     H_    0.713108 0.208198 0.197310 0.136467
N1    N     N_R   0.072146 0.728718 0.844782 0.114748
O21   O     O_R   0.127285 0.709639 0.901689 -0.388348
O22   O     O_R   0.890459 0.719228 0.829172 -0.273388
H8    H     H_    0.472670 0.828016 0.785161 0.105217
N2    N     N_R   0.007033 0.678968 0.698043 0.135138
O23   O     O_R   0.897298 0.751910 0.690304 -0.294330
O24   O     O_R   0.933087 0.590112 0.692465 -0.374731
H9    H     H_    0.497702 0.684138 0.707519 0.124740
N3    N     N_R   0.426932 0.841139 0.501490 0.104251
O25   O     O_R   0.300165 0.814200 0.541665 -0.354711
O26   O     O_R   0.583444 0.886997 0.526488 -0.316741
N4    N     N_R   0.324326 0.042856 0.312540 0.112353
O27   O     O_R   0.410492 0.113669 0.289812 -0.345881
O28   O     O_R   0.175932 0.064599 0.352140 -0.316933
N5    N     N_R   0.462787 0.991831 0.426135 0.137489
O29   O     O_R   0.616892 0.034476 0.408178 -0.323228
O30   O     O_R   0.365711 0.036595 0.478618 -0.286970
H10   H     H_    0.320337 0.617295 0.304067 0.183951
H11   H     H_    0.381630 0.670230 0.019211 0.147983
N6    N     N_R   0.533847 0.568600 0.212454 0.098107
O31   O     O_R   0.686895 0.593245 0.249056 -0.340455
O32   O     O_R   0.466897 0.477856 0.203304 -0.255662
N7    N     N_R   0.482778 0.518134 0.070337 0.113720
O33   O     O_R   0.385658 0.478444 0.016690 -0.351796
O34   O     O_R   0.644431 0.477629 0.081782 -0.311117
H12   H     H_    0.326007 0.970430 0.184789 0.089028
H13   H     H_    0.841918 0.034513 0.581689 0.155368
H14   H     H_    0.846624 0.391383 0.695041 0.102965
H15   H     H_    0.813789 0.462189 0.918305 0.138435
N8    N     N_R   0.948530 0.009019 0.812591 0.067340
O35   O     O_R   0.133664 0.996112 0.809294 -0.393439
O36   O     O_R   0.836628 0.935076 0.819023 -0.316944
N9    N     N_R   0.170583 0.365252 0.293564 0.116782
O37   O     O_R   0.343232 0.328660 0.284669 -0.302458
O38   O     O_R   0.148655 0.461116 0.302866 -0.355978

loop_
_geom_bond_atom_site_label_1
_geom_bond_atom_site_label_2
_geom_bond_distance
_ccdc_geom_bond_type
N4    O27   1.301025 A    
C20   H6    1.083771 S    
C25   C26   1.364649 D    
N6    O31   1.301508 A    
C1    O6    1.303413 A    
C25   N2    1.434671 S    
C23   C25   1.503619 S    
C29   C30   1.394204 A    
N8    O36   1.299881 A    
C13   C14   1.384733 A    
C34   C38   1.409495 A    
C24   C42   1.481418 S    
C5    C13   1.403242 A    
C8    C9    1.390458 A    
C21   C22   1.344591 D    
N3    O26   1.300831 A    
O13   V3    2.011335 S    
O5    C3    1.296708 A    
O12   C41   1.291197 A    
V2    O10   2.166548 S    
N9    O37   1.300667 A    
C16   H14   1.077161 S    
O14   C42   1.294286 A    
C19   C20   1.360248 D    
O16   V4    2.034487 S    
O19   V4    1.996367 S    
C38   H10   1.072917 S    
C8    H15   1.082982 S    
O8    V2    1.996351 S    
N3    O25   1.301134 A    
O12   V3    2.021769 S    
V3    O20   1.706146 S    
C29   C40   1.392110 A    
C37   H12   1.083242 S    
C10   C11   1.429959 A    
O1    V2    2.030628 S    
O7    V1    2.155158 S    
O18   V4    2.031139 S    
C32   C34   1.436215 A    
C30   N7    1.437670 S    
C22   C44   1.478167 S    
C22   H7    1.084686 S    
C5    C17   1.387070 A    
C29   H11   1.084566 S    
O14   V3    2.016869 S    
O11   C42   1.299739 A    
C12   C16   1.410780 A    
C18   C43   1.466505 S    
C27   N5    1.436482 S    
O15   V3    2.026159 S    
C35   C36   1.419396 A    
N1    O21   1.301930 A    
N2    O24   1.301235 A    
C23   C24   1.354227 D    
O4    C2    1.296340 A    
C17   H5    1.083565 S    
C12   C13   1.419211 A    
O17   V4    1.713317 S    
O18   C43   1.294787 A    
O2    C1    1.296206 A    
C5    H13   1.083470 S    
N5    O30   1.301582 A    
C31   C32   1.434875 A    
C15   N8    1.419937 S    
C34   C35   1.425011 A    
C24   H8    1.085142 S    
C23   N1    1.444696 S    
O11   V4    2.000573 S    
C3    C20   1.486353 S    
O3    C4    1.291571 A    
C27   C39   1.413550 A    
C32   C33   1.422617 A    
O17   V3    2.155212 S    
O6    V2    2.000091 S    
N7    O34   1.301324 A    
N4    O28   1.301346 A    
O2    V1    2.016863 S    
C36   C37   1.395061 A    
C7    H2    1.083948 S    
C9    H3    1.076775 S    
C30   C31   1.415398 A    
O1    C2    1.293382 A    
C4    C6    1.447778 S    
C36   N4    1.434551 S    
H1    C14   1.085532 S    
C11   C15   1.421876 A    
N1    O22   1.300827 A    
N2    O23   1.300705 A    
O5    V1    2.011330 S    
O8    C3    1.301213 A    
N6    O32   1.301160 A    
C33   C40   1.416826 A    
N8    O35   1.298170 A    
O15   C43   1.292534 A    
C41   O16   1.295968 A    
C19   N9    1.435236 S    
O9    V2    2.031218 S    
C26   H9    1.085300 S    
C11   C18   1.428670 A    
O4    V1    2.021791 S    
O3    V1    2.026009 S    
V1    O10   1.706218 S    
C28   C39   1.403667 A    
C27   C35   1.428581 A    
N5    O29   1.301325 A    
C1    C26   1.491888 S    
C33   C37   1.403228 A    
C21   H4    1.086205 S    
N9    O38   1.299511 A    
C19   C21   1.492073 S    
C10   C12   1.429093 A    
O7    V2    1.714528 S    
O19   C44   1.301115 A    
O13   C44   1.293432 A    
C28   C38   1.395241 A    
V4    O20   2.166521 S    
C40   C41   1.471836 S    
C7    C8    1.385775 A    
N7    O33   1.301446 A    
C14   C15   1.387927 A    
C31   N6    1.436206 S    
C9    C10   1.417484 A    
C2    C28   1.473897 S    
C39   N3    1.437113 S    
O9    C4    1.288570 A    
C6    C17   1.392441 A    
C7    C18   1.397136 A    
C6    C16   1.396205 A    
