data_mof_unit_48390.cif
_audit_creation_date              2012-12-11T15:28:33-0500
_audit_creation_method            fapswitch 2.2
_symmetry_space_group_name_H-M    P1
_symmetry_Int_Tables_number       1
_space_group_crystal_system       triclinic
_cell_length_a                    6.971861
_cell_length_b                    19.588109
_cell_length_c                    23.421627
_cell_angle_alpha                 96.173716
_cell_angle_beta                  91.014785
_cell_angle_gamma                 88.820889
_cell_volume                      3178.97758343

loop_
_atom_site_label
_atom_site_type_symbol
_atom_type_description
_atom_site_fract_x
_atom_site_fract_y
_atom_site_fract_z
_atom_type_partial_charge
O1    O     O_R   0.617180 0.809390 0.808140 -0.523910
O2    O     O_R   0.382820 0.190610 0.191860 -0.514185
O3    O     O_R   0.293300 0.672410 0.795490 -0.537328
O4    O     O_R   0.706700 0.327590 0.204510 -0.537091
O5    O     O_R   0.117220 0.690610 0.691850 -0.524814
O6    O     O_R   0.882780 0.309390 0.308150 -0.519842
C1    C     C_R   0.464597 0.648060 0.805512 0.691334
C2    C     C_R   0.535403 0.351940 0.194488 0.689464
O7    O     O_R   0.287840 0.807750 0.814460 -0.520434
O8    O     O_R   0.712160 0.192250 0.185540 -0.532027
O9    O     O_R   0.111720 0.826910 0.710960 -0.531786
O10   O     O_R   0.888280 0.173090 0.289040 -0.535615
C3    C     C_R   0.456471 0.830796 0.833111 0.717083
C4    C     C_R   0.543547 0.169199 0.166893 0.723613
O11   O     O_R   0.622680 0.673080 0.789040 -0.534021
O12   O     O_R   0.377320 0.326920 0.210960 -0.535162
O13   O     O_3   0.448820 0.756130 0.716020 -0.365683
O14   O     O_3   0.551180 0.243870 0.283980 -0.361575
V1    V     V_3+5 0.176220 0.748860 0.756300 1.442474
V2    V     V_3+5 0.823780 0.251140 0.243700 1.430101
O15   O     O_R   0.781670 0.827580 0.704500 -0.545069
O16   O     O_R   0.218330 0.172420 0.295500 -0.531529
C5    C     C_R   0.948564 0.851830 0.694472 0.838290
C6    C     C_R   0.051737 0.147969 0.305387 0.823569
O17   O     O_R   0.787130 0.692240 0.685530 -0.526856
O18   O     O_R   0.212870 0.307760 0.314470 -0.530465
C7    C     C_R   0.956122 0.669339 0.666774 0.731369
C8    C     C_R   0.043878 0.330701 0.333201 0.726145
V3    V     V_3+5 0.675510 0.751130 0.743690 1.418818
V4    V     V_3+5 0.324490 0.248870 0.256310 1.441860
O19   O     O_3   0.952780 0.743870 0.783980 -0.362654
O20   O     O_3   0.047220 0.256130 0.216020 -0.364876
C9    C     C_1   0.966690 0.617324 0.614680 -0.200763
C10   C     C_1   0.033308 0.382773 0.385260 -0.199172
C11   C     C_1   0.978246 0.573810 0.571851 0.004363
C12   C     C_1   0.021757 0.426323 0.428067 0.006341
C13   C     C_1   0.993442 0.521964 0.521258 0.003094
C14   C     C_1   0.006566 0.478190 0.478647 0.003431
C15   C     C_R   0.953993 0.913051 0.662922 -0.267223
C16   C     C_R   0.052405 0.084430 0.334084 -0.282297
C17   C     C_R   0.974491 0.035677 0.664707 -0.221447
C18   C     C_R   0.135924 0.963886 0.332036 -0.223510
C19   C     C_R   0.963785 0.977822 0.693961 0.386326
C20   C     C_R   0.127747 0.023809 0.304913 0.391320
C21   C     C_R   0.946398 0.906447 0.602249 0.385422
C22   C     C_R   0.983930 0.084078 0.390483 0.412644
C23   C     C_R   0.978584 0.964883 0.571025 -0.017764
C24   C     C_R   0.023979 0.026192 0.421849 -0.015463
C25   C     C_R   0.981769 0.029951 0.604553 -0.060825
C26   C     C_R   0.083560 0.964652 0.389610 -0.066744
C27   C     C_R   0.009187 0.963021 0.509356 -0.106636
C28   C     C_R   0.009362 0.026911 0.483323 -0.099706
C29   C     C_R   0.021355 0.089313 0.520110 0.527837
C30   C     C_R   0.059846 0.901895 0.473003 0.508675
C31   C     C_R   0.000877 0.090019 0.578898 -0.246952
C32   C     C_R   0.095883 0.904034 0.414975 -0.238198
H1    H     H_    0.009640 0.138977 0.605234 0.141825
H2    H     H_    0.139455 0.856806 0.389603 0.144306
H3    H     H_    0.982563 0.085566 0.689596 0.142423
H4    H     H_    0.189536 0.916969 0.308335 0.143806
C33   C     C_R   0.483816 0.585933 0.835734 -0.044347
C34   C     C_R   0.516184 0.414068 0.164267 -0.043928
C35   C     C_R   0.582442 0.466626 0.833227 -0.161205
C36   C     C_R   0.417549 0.533374 0.166775 -0.161225
C37   C     C_R   0.547363 0.524798 0.805179 -0.166467
C38   C     C_R   0.452629 0.475202 0.194822 -0.166148
C39   C     C_R   0.456254 0.588643 0.895300 -0.214909
C40   C     C_R   0.543750 0.411359 0.104701 -0.215093
C41   C     C_R   0.495439 0.530171 0.925397 0.086644
C42   C     C_R   0.504562 0.469831 0.074605 0.086692
C43   C     C_R   0.558759 0.468832 0.892760 0.138739
C44   C     C_R   0.441238 0.531169 0.107241 0.138775
C45   C     C_R   0.477294 0.530502 0.986487 0.057521
C46   C     C_R   0.522709 0.469500 0.013514 0.057418
C47   C     C_R   0.583949 0.410196 0.978530 -0.186457
C48   C     C_R   0.416052 0.589806 0.021472 -0.186710
C49   C     C_R   0.600967 0.410048 0.919586 -0.200074
C50   C     C_R   0.399031 0.589954 0.080416 -0.200414
H5    H     H_    0.649371 0.363199 0.894656 0.124269
H6    H     H_    0.350623 0.636802 0.105345 0.123995
H7    H     H_    0.589941 0.362554 0.083250 0.095169
H8    H     H_    0.410068 0.637449 0.916751 0.095250
H9    H     H_    0.428604 0.477698 0.240590 0.107686
H10   H     H_    0.571383 0.522301 0.759410 0.107459
H11   H     H_    0.631639 0.419887 0.808338 0.114733
H12   H     H_    0.368348 0.580112 0.191664 0.115013
H13   H     H_    0.620900 0.362565 0.995365 0.124105
H14   H     H_    0.379101 0.637437 0.004636 0.123939
C51   C     C_1   0.467193 0.882909 0.885143 -0.207139
C52   C     C_1   0.532896 0.117082 0.114863 -0.206991
C53   C     C_1   0.478693 0.926422 0.927978 -0.000651
C54   C     C_1   0.521467 0.073567 0.072028 -0.003468
C55   C     C_1   0.493662 0.978166 0.978651 -0.002608
C56   C     C_1   0.506541 0.021821 0.021355 -0.004409
O21   O     O_3   0.869425 0.138701 0.412518 -0.523492
C57   C     C_3   0.676119 0.119987 0.403920 -0.176367
H15   H     H_    0.640264 0.077751 0.429845 0.111437
H16   H     H_    0.641907 0.104907 0.357698 0.131449
H17   H     H_    0.583996 0.165202 0.418059 0.148309
O22   O     O_3   0.899232 0.842628 0.575916 -0.524301
C58   C     C_3   0.704032 0.843693 0.560428 -0.185424
H18   H     H_    0.612546 0.855388 0.598870 0.110169
H19   H     H_    0.673693 0.880927 0.528575 0.121461
H20   H     H_    0.666823 0.791836 0.540030 0.156234
O23   O     O_3   0.197736 0.023294 0.249992 -0.551241
C59   C     C_3   0.050247 0.002317 0.210399 -0.242371
H21   H     H_    0.104882 0.003453 0.166318 0.165175
H22   H     H_    0.923427 0.037860 0.215147 0.126612
H23   H     H_    0.006957 0.948756 0.214703 0.135976
O24   O     O_3   0.971139 0.984407 0.753341 -0.553726
C60   C     C_3   0.785542 0.001517 0.773939 -0.237038
H24   H     H_    0.789579 0.003889 0.821482 0.166630
H25   H     H_    0.680001 0.961793 0.757777 0.130735
H26   H     H_    0.737164 0.052867 0.762489 0.135266
O25   O     O_3   0.074130 0.150071 0.500333 -0.521153
C61   C     C_3   0.275404 0.155049 0.504637 -0.222269
H27   H     H_    0.348019 0.109863 0.480783 0.108179
H28   H     H_    0.324800 0.160849 0.550301 0.131503
H29   H     H_    0.318316 0.201547 0.485268 0.164384
O26   O     O_3   0.090819 0.838916 0.492752 -0.516382
C62   C     C_3   0.282761 0.834182 0.511349 -0.192316
H30   H     H_    0.317054 0.876275 0.545560 0.109171
H31   H     H_    0.382210 0.834259 0.474710 0.108457
H32   H     H_    0.304209 0.784813 0.529979 0.165459

loop_
_geom_bond_atom_site_label_1
_geom_bond_atom_site_label_2
_ccdc_geom_bond_type
C35   C37   A    
C55   C56   T    
C30   O26   S    
O13   V3    S    
C45   C46   A    
O21   C57   S    
O4    C2    A    
V1    O19   S    
C23   C25   A    
C20   O23   S    
C28   C29   A    
C16   C22   A    
O9    V1    S    
C58   H18   S    
C40   H7    S    
C11   C13   S    
C48   C50   A    
O3    C1    A    
C9    C11   T    
C50   H6    S    
C59   H21   S    
O12   V4    S    
O25   C61   S    
C57   H17   S    
C61   H27   S    
C21   C23   A    
C36   H12   S    
C41   C43   A    
O7    C3    A    
O24   C60   S    
C1    C33   S    
C62   H32   S    
C44   C50   A    
C6    C16   S    
C38   H9    S    
O5    C7    A    
O7    V1    S    
C4    C52   S    
C22   O21   S    
C60   H24   S    
O8    V2    S    
C57   H16   S    
C42   C46   A    
O3    V1    S    
O14   V4    S    
C19   O24   S    
C32   H2    S    
C51   C53   T    
C48   H14   S    
C10   C12   T    
C15   C21   A    
C24   C26   A    
C8    C10   S    
C58   H19   S    
C35   H11   S    
C17   C19   A    
C18   C20   A    
C17   C25   A    
O11   V3    S    
C22   C24   A    
C29   C31   A    
O17   V3    S    
C30   C32   A    
C46   C47   A    
C34   C38   A    
C27   C28   A    
C17   H3    S    
O8    C4    A    
C18   H4    S    
C37   H10   S    
C15   C19   A    
C1    O11   A    
C25   C31   A    
O15   V3    S    
C26   C32   A    
C39   C41   A    
C36   C38   A    
C13   C14   T    
C53   C55   S    
C33   C39   A    
C52   C54   T    
C16   C20   A    
C57   H15   S    
O10   V2    S    
O1    V3    S    
C49   H5    S    
C60   H25   S    
C41   C45   A    
C47   C49   A    
C62   H30   S    
C18   C26   A    
C47   H13   S    
C35   C43   A    
O18   V4    S    
C58   H20   S    
C31   H1    S    
C45   C48   A    
O16   C6    A    
O1    C3    A    
C12   C14   S    
C43   C49   A    
O26   C62   S    
V2    O20   S    
O16   V4    S    
C3    C51   S    
C21   O22   S    
C23   C27   A    
O5    V1    S    
O17   C7    A    
O6    V2    S    
O23   C59   S    
O10   C6    A    
O18   C8    A    
C61   H29   S    
C34   C40   A    
O2    V4    S    
C27   C30   A    
O15   C5    A    
V3    O19   S    
V4    O20   S    
C54   C56   S    
C59   H22   S    
C5    C15   S    
O9    C5    A    
O22   C58   S    
O13   V1    S    
C61   H28   S    
C60   H26   S    
O14   V2    S    
C36   C44   A    
O2    C4    A    
C62   H31   S    
O4    V2    S    
C33   C37   A    
O6    C8    A    
C24   C28   A    
C39   H8    S    
C2    O12   A    
C7    C9    S    
C40   C42   A    
C42   C44   A    
C29   O25   S    
C2    C34   S    
C59   H23   S    
