data_mof_unit_48378.cif
_audit_creation_date              2012-12-10T20:24:40-0500
_audit_creation_method            fapswitch 2.2
_symmetry_space_group_name_H-M    P1
_symmetry_Int_Tables_number       1
_space_group_crystal_system       triclinic
_cell_length_a                    10.788375
_cell_length_b                    19.052195
_cell_length_c                    18.435273
_cell_angle_alpha                 88.836064
_cell_angle_beta                  91.889568
_cell_angle_gamma                 89.132607
_cell_volume                      3785.9113156

loop_
_atom_site_label
_atom_site_type_symbol
_atom_type_description
_atom_site_fract_x
_atom_site_fract_y
_atom_site_fract_z
_atom_type_partial_charge
C1    C     C_R   0.503524 0.365419 0.500478 0.864205
C2    C     C_R   0.498716 0.634987 0.499052 0.858986
C3    C     C_R   0.872487 0.501896 0.503402 -0.084123
C4    C     C_R   0.127077 0.505309 0.497267 -0.105801
C5    C     C_R   0.944634 0.485336 0.566679 0.031548
C6    C     C_R   0.054765 0.523052 0.434336 0.027344
C7    C     C_R   0.546606 0.743143 0.433362 -0.235485
C8    C     C_R   0.367316 0.266212 0.490449 -0.204578
C9    C     C_R   0.525365 0.813526 0.416977 -0.206611
C10   C     C_R   0.345816 0.196922 0.472716 -0.197067
C11   C     C_R   0.459429 0.855521 0.464298 0.147484
C12   C     C_R   0.446070 0.150253 0.466116 0.139752
C13   C     C_R   0.419084 0.825707 0.529601 -0.148143
C14   C     C_R   0.567264 0.173274 0.480529 -0.130171
C15   C     C_R   0.428667 0.753380 0.543120 -0.037460
C16   C     C_R   0.590707 0.243842 0.492492 -0.030599
C17   C     C_R   0.493891 0.711576 0.494192 -0.084479
C18   C     C_R   0.488748 0.290310 0.498778 -0.047567
C19   C     C_R   0.328613 0.966206 0.471332 0.533067
C20   C     C_R   0.514239 0.041670 0.403303 0.535072
C21   C     C_R   0.329435 0.039096 0.474909 -0.329740
C22   C     C_R   0.523325 0.969054 0.408900 -0.332766
C23   C     C_R   0.259632 0.502401 0.498693 0.872443
C24   C     C_R   0.740310 0.499497 0.501318 0.880509
C25   C     C_R   0.426706 0.076979 0.445386 -0.101265
C26   C     C_R   0.435043 0.930601 0.446647 -0.096937
C27   C     C_R   0.438958 0.553177 0.721503 0.023690
C28   C     C_R   0.398858 0.474782 0.274600 0.024121
C29   C     C_R   0.428642 0.554350 0.796837 -0.270854
C30   C     C_R   0.391849 0.475060 0.198806 -0.263329
C31   C     C_R   0.484026 0.500902 0.840964 0.061887
C32   C     C_R   0.491640 0.498805 0.158403 0.063206
C33   C     C_R   0.547106 0.445215 0.806665 -0.068308
C34   C     C_R   0.598928 0.522515 0.197035 -0.064217
C35   C     C_R   0.551552 0.445978 0.730092 -0.028190
C36   C     C_R   0.598778 0.523732 0.273587 -0.059859
C37   C     C_R   0.431865 0.445189 0.960647 -0.218127
C38   C     C_R   0.510619 0.561352 0.037932 -0.215134
C39   C     C_R   0.439839 0.440990 0.036939 0.006692
C40   C     C_R   0.513364 0.563125 0.961691 0.001759
C41   C     C_R   0.480426 0.499893 0.076762 0.035173
C42   C     C_R   0.474597 0.503950 0.922036 0.037535
C43   C     C_R   0.186457 0.629738 0.279307 0.584814
C44   C     C_R   0.833454 0.353606 0.703373 0.561771
C45   C     C_R   0.159455 0.607013 0.350572 -0.234920
C46   C     C_R   0.841219 0.391722 0.638002 -0.203214
C47   C     C_R   0.103214 0.541979 0.362383 0.088905
C48   C     C_R   0.897595 0.457455 0.636120 0.077550
C49   C     C_R   0.072584 0.500105 0.302773 -0.196202
C50   C     C_R   0.934776 0.488372 0.701761 -0.164474
C51   C     C_R   0.097157 0.522876 0.232478 -0.240001
C52   C     C_R   0.922392 0.452152 0.767582 -0.231477
C53   C     C_R   0.153003 0.587500 0.220836 -0.173096
C54   C     C_R   0.875221 0.384368 0.768348 -0.225808
C55   C     C_R   0.927829 0.522233 0.438989 -0.261913
C56   C     C_R   0.071405 0.487697 0.562343 -0.267708
H1    H     H_    0.170540 0.604961 0.165924 0.147445
H2    H     H_    0.870573 0.356250 0.819512 0.161748
H3    H     H_    0.257082 0.065228 0.504025 0.178371
H4    H     H_    0.603468 0.943898 0.386368 0.178140
H5    H     H_    0.396436 0.594253 0.688071 0.169265
H6    H     H_    0.322644 0.454781 0.304957 0.150920
H7    H     H_    0.377218 0.596846 0.820597 0.153928
H8    H     H_    0.308122 0.456953 0.171783 0.154105
H9    H     H_    0.595687 0.403260 0.702709 0.153734
H10   H     H_    0.678890 0.542491 0.303751 0.131613
H11   H     H_    0.399675 0.400138 0.930841 0.153197
H12   H     H_    0.538115 0.607528 0.067436 0.158520
H13   H     H_    0.176110 0.640825 0.396195 0.116084
H14   H     H_    0.809561 0.368577 0.588029 0.163781
H15   H     H_    0.026337 0.450628 0.310676 0.138564
H16   H     H_    0.979185 0.538966 0.701577 0.131247
H17   H     H_    0.071919 0.490608 0.186833 0.166378
H18   H     H_    0.953274 0.475676 0.817853 0.149572
H19   H     H_    0.871902 0.537136 0.390968 0.166519
H20   H     H_    0.127210 0.472119 0.610199 0.179837
H21   H     H_    0.597626 0.712176 0.395324 0.155887
H22   H     H_    0.289314 0.302382 0.493312 0.125692
H23   H     H_    0.557659 0.833962 0.365939 0.134106
H24   H     H_    0.251357 0.180638 0.462110 0.139168
H25   H     H_    0.373866 0.857996 0.568797 0.181960
H26   H     H_    0.645017 0.136770 0.478886 0.171202
N1    N     N_R   0.500020 0.499980 0.689440 -0.105663
N2    N     N_R   0.499980 0.500020 0.310560 -0.104858
O1    O     O_R   0.500010 0.398180 0.560840 -0.613312
O2    O     O_R   0.499990 0.601820 0.439160 -0.632503
O3    O     O_R   0.499950 0.398180 0.439210 -0.621759
O4    O     O_R   0.500050 0.601820 0.560790 -0.612883
O5    O     O_R   0.316790 0.500010 0.560810 -0.624646
O6    O     O_R   0.683210 0.499990 0.439190 -0.639085
O7    O     O_R   0.316730 0.500000 0.439190 -0.623726
O8    O     O_R   0.683270 0.500000 0.560810 -0.610710
Zn1   Zn    Zn3+2 0.500040 0.500000 0.581210 0.955522
Zn2   Zn    Zn3+2 0.499960 0.500000 0.418790 0.926165
C57   C     C_R   0.353957 0.723887 0.602042 0.121491
C58   C     C_R   0.251892 0.681523 0.585023 -0.105105
C59   C     C_R   0.171555 0.660751 0.639157 -0.142880
C60   C     C_R   0.192185 0.682221 0.710554 -0.154393
C61   C     C_R   0.293465 0.724392 0.727951 -0.151072
C62   C     C_R   0.373915 0.745413 0.673914 -0.156206
H27   H     H_    0.232908 0.666036 0.529615 0.096743
H28   H     H_    0.092664 0.628613 0.625583 0.138386
H29   H     H_    0.129915 0.666067 0.752383 0.125011
H30   H     H_    0.309408 0.740967 0.783245 0.138034
H31   H     H_    0.450727 0.779108 0.687812 0.130031
C63   C     C_R   0.721594 0.266776 0.491948 0.072435
C64   C     C_R   0.760230 0.315764 0.439570 -0.167186
C65   C     C_R   0.885118 0.333577 0.436226 -0.143513
C66   C     C_R   0.972944 0.301918 0.484168 -0.118649
C67   C     C_R   0.936358 0.251506 0.534889 -0.146727
C68   C     C_R   0.811352 0.233686 0.538591 -0.098888
H32   H     H_    0.694851 0.338740 0.399881 0.160921
H33   H     H_    0.913943 0.371481 0.395956 0.136002
H34   H     H_    0.069297 0.316153 0.481583 0.124802
H35   H     H_    0.004718 0.226407 0.571480 0.128501
H36   H     H_    0.784372 0.194242 0.577875 0.144255
O9    O     O_3   0.228969 0.931063 0.499180 -0.622421
C69   C     C_3   0.158627 0.903182 0.441046 -0.306381
H37   H     H_    0.211912 0.862396 0.412340 0.167008
H38   H     H_    0.125147 0.945315 0.402119 0.163544
H39   H     H_    0.075904 0.877572 0.463195 0.197169
O10   O     O_3   0.602240 0.077035 0.364379 -0.614282
C70   C     C_3   0.543672 0.108389 0.302045 -0.329462
H40   H     H_    0.477404 0.150734 0.316488 0.169964
H41   H     H_    0.495753 0.068671 0.268118 0.156178
H42   H     H_    0.615634 0.132828 0.268610 0.189529
C71   C     C_R   0.606457 0.385780 0.848984 0.098632
C72   C     C_R   0.576305 0.316292 0.832331 -0.109296
C73   C     C_R   0.626119 0.260287 0.874576 -0.116723
C74   C     C_R   0.706596 0.273044 0.933616 -0.134345
C75   C     C_R   0.738283 0.341819 0.950221 -0.170292
C76   C     C_R   0.689382 0.397955 0.907881 -0.139415
H43   H     H_    0.512475 0.305520 0.787506 0.130938
H44   H     H_    0.601916 0.206945 0.861692 0.127607
H45   H     H_    0.744675 0.229612 0.966367 0.123962
H46   H     H_    0.801061 0.351670 0.995762 0.121346
H47   H     H_    0.715862 0.450779 0.921285 0.126520
C77   C     C_R   0.712005 0.545012 0.159611 0.104495
C78   C     C_R   0.763639 0.610809 0.173925 -0.171346
C79   C     C_R   0.866097 0.633756 0.135984 -0.100518
C80   C     C_R   0.918204 0.591195 0.083792 -0.114146
C81   C     C_R   0.869151 0.525151 0.070198 -0.166549
C82   C     C_R   0.767099 0.501870 0.108203 -0.127749
H48   H     H_    0.722986 0.644937 0.213285 0.118188
H49   H     H_    0.904834 0.684698 0.146837 0.135598
H50   H     H_    0.997233 0.609160 0.054312 0.118890
H51   H     H_    0.910074 0.491995 0.030123 0.116918
H52   H     H_    0.730303 0.450651 0.096789 0.115849
C83   C     C_R   0.411886 0.372857 0.072632 0.119810
C84   C     C_R   0.501660 0.337733 0.117575 -0.112618
C85   C     C_R   0.474386 0.273767 0.151451 -0.142653
C86   C     C_R   0.357874 0.244061 0.140301 -0.114610
C87   C     C_R   0.268557 0.278184 0.095027 -0.133356
C88   C     C_R   0.295402 0.342224 0.061081 -0.188310
H53   H     H_    0.592547 0.359766 0.126475 0.113144
H54   H     H_    0.543659 0.247204 0.186313 0.119001
H55   H     H_    0.336924 0.194546 0.166623 0.116663
H56   H     H_    0.178393 0.255063 0.086322 0.123536
H57   H     H_    0.225050 0.368321 0.026509 0.121320
C89   C     C_R   0.562636 0.626368 0.925381 0.121508
C90   C     C_R   0.668855 0.621609 0.883459 -0.115776
C91   C     C_R   0.712658 0.681125 0.847554 -0.133205
C92   C     C_R   0.651432 0.745799 0.853618 -0.113482
C93   C     C_R   0.546739 0.751135 0.895975 -0.146700
C94   C     C_R   0.502621 0.691733 0.932014 -0.183789
H58   H     H_    0.717220 0.571891 0.878187 0.116978
H59   H     H_    0.793950 0.677068 0.814914 0.124588
H60   H     H_    0.685222 0.791793 0.825595 0.122650
H61   H     H_    0.499455 0.801264 0.900647 0.127380
H62   H     H_    0.420701 0.696400 0.964106 0.128156
O11   O     O_3   0.232695 0.695629 0.263543 -0.628563
C95   C     C_3   0.336614 0.709826 0.308805 -0.324823
H63   H     H_    0.402026 0.664054 0.314410 0.181925
H64   H     H_    0.306935 0.727433 0.362685 0.177118
H65   H     H_    0.387893 0.753643 0.283838 0.191841
O12   O     O_3   0.777751 0.288560 0.702332 -0.620412
C96   C     C_3   0.858154 0.236877 0.734591 -0.362651
H66   H     H_    0.858626 0.239389 0.794695 0.177581
H67   H     H_    0.954219 0.240705 0.714593 0.155872
H68   H     H_    0.823152 0.184473 0.719752 0.189055

loop_
_geom_bond_atom_site_label_1
_geom_bond_atom_site_label_2
_ccdc_geom_bond_type
C1    O3    A    
C38   C40   A    
O11   C95   S    
C29   H7    S    
C20   C25   A    
C56   H20   S    
C31   C42   S    
C30   H8    S    
C27   C29   A    
C64   H32   S    
C5    C56   A    
C57   C58   A    
C6    C55   A    
C22   H4    S    
C72   C73   A    
C59   C60   A    
C93   H61   S    
C83   C84   A    
C70   H40   S    
C39   C41   A    
C62   H31   S    
C53   H1    S    
C93   C94   A    
C19   C21   A    
C21   H3    S    
C52   H18   S    
C77   C82   A    
C15   C57   S    
C36   H10   S    
C70   H41   S    
C28   N2    A    
C63   C64   A    
C35   H9    S    
C60   H29   S    
N1    Zn1   S    
O3    Zn2   S    
C13   H25   S    
C33   C71   S    
C65   C66   A    
C15   C17   A    
C9    H23   S    
C2    O2    A    
C37   C42   A    
C19   C26   A    
C50   H16   S    
C71   C76   A    
C27   H5    S    
C67   C68   A    
C80   C81   A    
C43   C53   A    
C92   C93   A    
C52   C54   A    
C96   H67   S    
C59   H28   S    
C50   C52   A    
C32   C41   S    
C23   O5    A    
C2    O4    A    
C68   H36   S    
C14   C16   A    
O2    Zn2   S    
C20   O10   S    
C90   H58   S    
C95   H65   S    
C16   C63   S    
C7    H21   S    
C55   H19   S    
C40   C42   A    
C61   H30   S    
C58   H27   S    
C69   H37   S    
C2    C17   S    
C8    H22   S    
C3    C24   S    
O1    Zn1   S    
C24   O8    A    
C95   H64   S    
O6    Zn2   S    
C63   C68   A    
C45   C47   A    
C1    O1    A    
C82   H52   S    
C5    C48   S    
C46   C48   A    
C6    C47   S    
C87   H56   S    
C45   H13   S    
C44   O12   S    
C79   C80   A    
C38   C41   A    
C47   C49   A    
C75   H46   S    
C4    C23   S    
C35   N1    A    
C57   C62   A    
C70   H42   S    
C44   C46   A    
C11   C26   S    
C49   C51   A    
C76   H47   S    
C85   H54   S    
C34   C77   S    
C8    C18   A    
C73   H44   S    
C24   O6    A    
C51   C53   A    
C69   H39   S    
C32   C34   A    
C65   H33   S    
C83   C88   A    
C43   C45   A    
C78   H48   S    
C61   C62   A    
C12   C14   A    
C85   C86   A    
C96   H68   S    
C58   C59   A    
C31   C33   A    
C1    C18   S    
C16   C18   A    
N2    Zn2   S    
C89   C94   A    
C48   C50   A    
C9    C11   A    
C10   C12   A    
C66   H34   S    
C80   H50   S    
C4    C6    A    
O12   C96   S    
C74   H45   S    
C20   C22   A    
C96   H66   S    
C84   H53   S    
C13   C15   A    
C22   C26   A    
C23   O7    A    
C14   H26   S    
C64   C65   A    
C71   C72   A    
C95   H63   S    
C91   C92   A    
C54   H2    S    
C94   H62   S    
C7    C9    A    
C21   C25   A    
C86   H55   S    
C43   O11   S    
C29   C31   A    
C81   H51   S    
C40   C89   S    
C51   H17   S    
C38   H12   S    
C3    C5    A    
C7    C17   A    
C79   H49   S    
C78   C79   A    
C10   H24   S    
C39   C83   S    
C3    C55   A    
C84   C85   A    
C12   C25   S    
C89   C90   A    
C27   N1    A    
C74   C75   A    
C73   C74   A    
C88   H57   S    
C37   C39   A    
C90   C91   A    
O9    C69   S    
O7    Zn2   S    
C30   C32   A    
C11   C13   A    
C36   N2    A    
C37   H11   S    
C28   C30   A    
O8    Zn1   S    
C33   C35   A    
O4    Zn1   S    
C92   H60   S    
C34   C36   A    
O5    Zn1   S    
C69   H38   S    
C46   H14   S    
C77   C78   A    
C91   H59   S    
C44   C54   A    
C86   C87   A    
C19   O9    S    
C8    C10   A    
C60   C61   A    
C49   H15   S    
C66   C67   A    
O10   C70   S    
C81   C82   A    
C87   C88   A    
C72   H43   S    
C67   H35   S    
C4    C56   A    
C75   C76   A    
C28   H6    S    
