data_mof_unit_39971.cif
_audit_creation_date              2012-10-26T19:21:51-0400
_audit_creation_method            fapswitch 2.2
_symmetry_space_group_name_H-M    P1
_symmetry_Int_Tables_number       1
_space_group_crystal_system       triclinic
_cell_length_a                    23.447747
_cell_length_b                    11.127094
_cell_length_c                    9.896239
_cell_angle_alpha                 109.779442
_cell_angle_beta                  98.820831
_cell_angle_gamma                 91.604446
_cell_volume                      2392.03604824

loop_
_atom_site_label
_atom_site_type_symbol
_atom_type_description
_atom_site_fract_x
_atom_site_fract_y
_atom_site_fract_z
_atom_type_partial_charge
C1    C     C_R   0.495137 0.256587 0.443300 0.591114
C2    C     C_R   0.711434 0.589641 0.604377 -0.035513
C3    C     C_R   0.237773 0.419194 0.542276 0.047521
C4    C     C_R   0.771502 0.577526 0.609329 0.030999
C5    C     C_R   0.207441 0.503651 0.483655 0.151906
C6    C     C_R   0.790518 0.485145 0.489537 0.160116
C7    C     C_2   0.483950 0.123244 0.419203 0.032548
C8    C     C_2   0.508275 0.882750 0.575669 -0.069312
C9    C     C_2   0.522051 0.059278 0.481346 0.002762
C10   C     C_2   0.506081 0.924391 0.459241 -0.058878
C11   C     C_2   0.504255 0.518342 0.086770 0.051872
C12   C     C_R   0.503542 0.745248 0.555785 0.541911
C13   C     C_2   0.487082 0.532001 0.938384 0.090441
C14   C     C_R   0.391184 0.500305 0.500155 0.527918
C15   C     C_R   0.608819 0.500433 0.499746 0.570419
C16   C     C_R   0.879963 0.619237 0.507968 0.385748
C17   C     C_R   0.110624 0.404830 0.369538 0.377828
C18   C     C_R   0.867652 0.413413 0.338610 0.453909
C19   C     C_R   0.123013 0.605515 0.564473 0.373710
C20   C     C_R   0.927906 0.404978 0.343601 0.007157
C21   C     C_R   0.062795 0.618015 0.543485 -0.005823
C22   C     C_R   0.965173 0.512284 0.438556 -0.040393
C23   C     C_R   0.237049 0.588719 0.434180 0.040194
C24   C     C_R   0.025828 0.510281 0.447386 -0.041884
C25   C     C_R   0.940998 0.624526 0.517625 -0.006644
C26   C     C_R   0.049623 0.400851 0.359971 -0.002170
C27   C     C_R   0.951348 0.294209 0.257792 -0.013469
C28   C     C_R   0.038772 0.733557 0.615605 -0.015428
C29   C     C_R   0.012078 0.292159 0.266801 -0.023297
C30   C     C_R   0.977982 0.736469 0.602545 -0.031708
C31   C     C_2   0.912970 0.175761 0.169214 0.308900
C32   C     C_2   0.076739 0.854818 0.693007 0.309820
C33   C     C_2   0.583152 0.529165 0.903258 0.439627
C34   C     C_R   0.752068 0.373092 0.414820 0.038793
C35   C     C_2   0.432406 0.345669 0.045369 0.408260
C36   C     C_1   0.035152 0.172994 0.190198 0.340930
C37   C     C_1   0.954440 0.855594 0.677057 0.339579
C38   C     C_2   0.202704 0.672257 0.367816 0.291841
C39   C     C_2   0.773512 0.243040 0.376487 0.303090
C40   C     C_1   0.329371 0.680426 0.400887 0.308177
C41   C     C_1   0.651530 0.275747 0.312315 0.247514
C42   C     C_1   0.330322 0.324668 0.593310 0.309393
C43   C     C_1   0.690617 0.702025 0.702599 0.340512
C44   C     C_2   0.204627 0.336134 0.600044 0.308215
C45   C     C_R   0.297808 0.590369 0.445393 -0.033350
C46   C     C_2   0.813896 0.642499 0.746607 0.325603
C47   C     C_2   0.487420 0.842221 0.302400 0.275259
C48   C     C_2   0.582743 0.110494 0.556200 0.272402
C49   C     C_1   0.519147 0.972913 0.724199 0.225171
C50   C     C_1   0.425504 0.069763 0.346537 0.213712
C51   C     C_1   0.427280 0.555214 0.904467 0.302290
C52   C     C_1   0.552701 0.603616 0.182908 0.290431
C53   C     C_R   0.691959 0.382915 0.407080 -0.064845
C54   C     C_R   0.328238 0.503740 0.499333 -0.051338
C55   C     C_R   0.671485 0.494102 0.498686 -0.030884
C56   C     C_R   0.298378 0.417302 0.546104 -0.033510
Cu1   Cu    Cu3+1 0.509980 0.521810 0.644910 1.102336
Cu2   Cu    Cu3+1 0.490020 0.478190 0.355090 0.996934
H1    H     H_    0.878078 0.144673 0.213343 0.179862
H2    H     H_    0.609853 0.051890 0.602751 0.133562
H3    H     H_    0.111459 0.879459 0.643541 0.166236
H4    H     H_    0.592337 0.441676 0.925214 0.091068
H5    H     H_    0.399235 0.312147 0.092561 0.141065
H6    H     H_    0.157385 0.644359 0.320101 0.124430
H7    H     H_    0.748217 0.161421 0.292310 0.146245
H8    H     H_    0.161417 0.357205 0.622225 0.134265
H9    H     H_    0.856647 0.608571 0.759402 0.121097
H10   H     H_    0.452366 0.767290 0.268599 0.157034
N1    N     N_R   0.847508 0.503416 0.449652 -0.372922
N2    N     N_1   0.673874 0.791920 0.780311 -0.173571
N3    N     N_1   0.527795 0.044819 0.842708 -0.186168
N4    N     N_1   0.378891 0.027606 0.288755 -0.197901
N5    N     N_1   0.379253 0.575084 0.880758 -0.254319
N6    N     N_1   0.591987 0.671729 0.257612 -0.223357
N7    N     N_R   0.145400 0.503607 0.473676 -0.431383
N8    N     N_2   0.475010 0.445410 0.137370 -0.290950
N9    N     N_2   0.524990 0.554590 0.862630 -0.259451
N10   N     N_1   0.053329 0.077707 0.129415 -0.120749
N11   N     N_1   0.935848 0.950785 0.736328 -0.108415
N12   N     N_1   0.354400 0.752696 0.365704 -0.242864
N13   N     N_1   0.619280 0.190381 0.236592 -0.193364
N14   N     N_1   0.355930 0.250571 0.630336 -0.171475
O1    O     O_R   0.505330 0.332340 0.577400 -0.479306
O2    O     O_2   0.135536 0.311951 0.275959 -0.452885
O3    O     O_2   0.830323 0.342114 0.218310 -0.475833
O4    O     O_2   0.159346 0.692967 0.675273 -0.455633
O5    O     O_2   0.919448 0.113324 0.045598 -0.431690
O6    O     O_2   0.070269 0.926541 0.812972 -0.430378
O7    O     O_2   0.623157 0.606855 0.916053 -0.438348
O8    O     O_2   0.434666 0.291285 0.916649 -0.489289
O9    O     O_2   0.223707 0.774060 0.368328 -0.433515
O10   O     O_2   0.818826 0.225104 0.443314 -0.489388
O11   O     O_2   0.224268 0.242856 0.622397 -0.443826
O12   O     O_R   0.494670 0.667660 0.422600 -0.540584
O13   O     O_2   0.802030 0.732278 0.846894 -0.433063
O14   O     O_2   0.509126 0.863958 0.207452 -0.469443
O15   O     O_2   0.603846 0.214544 0.563880 -0.492431
O16   O     O_R   0.488470 0.295500 0.332650 -0.496935
O17   O     O_R   0.511530 0.704500 0.667350 -0.458554
O18   O     O_R   0.426310 0.518390 0.622390 -0.496914
O19   O     O_R   0.573690 0.481610 0.377610 -0.498497
O20   O     O_R   0.409450 0.481550 0.377650 -0.528661
O21   O     O_R   0.590550 0.518450 0.622350 -0.456499
O22   O     O_2   0.852993 0.727984 0.547908 -0.454719

loop_
_geom_bond_atom_site_label_1
_geom_bond_atom_site_label_2
_ccdc_geom_bond_type
C6    N1    S    
C23   C45   A    
C27   C29   A    
C39   O10   D    
C44   H8    S    
Cu2   O16   S    
C19   O4    S    
Cu2   N8    S    
C4    C46   S    
C48   O15   D    
C37   N11   T    
C29   C36   S    
C17   C26   A    
C19   C21   A    
C24   C26   A    
C32   H3    S    
C52   N6    T    
C2    C55   A    
C14   O20   A    
Cu1   O17   S    
C25   C30   A    
C31   H1    S    
C50   N4    T    
C12   O17   A    
C11   C52   S    
C42   C56   S    
C13   C51   S    
C16   O22   S    
C46   O13   D    
C33   H4    S    
C22   C25   A    
C42   N14   T    
C47   O14   D    
Cu1   O1    S    
Cu2   O20   S    
C9    C10   S    
C18   N1    A    
C39   H7    S    
C12   O12   A    
C48   H2    S    
C38   H6    S    
C53   C55   A    
C40   C45   S    
Cu1   O21   S    
C13   N9    D    
C35   N8    S    
C18   O3    S    
C31   O5    D    
C27   C31   S    
C34   C39   S    
Cu1   N9    S    
C28   C32   S    
C4    C6    A    
C44   O11   D    
Cu1   O18   S    
C38   O9    D    
C6    C34   A    
C30   C37   S    
C15   C55   S    
C5    N7    S    
C2    C4    A    
C33   O7    D    
C3    C56   A    
C5    C23   A    
C2    C43   S    
C8    C12   S    
C41   N13   T    
C40   N12   T    
Cu2   O19   S    
C15   O19   A    
C41   C53   S    
C26   C29   A    
C14   C54   S    
C21   C28   A    
C20   C22   A    
C45   C54   A    
C43   N2    T    
C3    C44   S    
C9    C48   S    
C22   C24   A    
C47   H10   S    
C16   C25   A    
C7    C9    D    
C1    C7    S    
C16   N1    A    
C51   N5    T    
C7    C50   S    
C3    C5    A    
C1    O16   A    
C54   C56   A    
C14   O18   A    
C20   C27   A    
C1    O1    A    
C23   C38   S    
C11   N8    D    
C17   O2    S    
C28   C30   A    
Cu2   O12   S    
C46   H9    S    
C36   N10   T    
C11   C13   S    
C33   N9    S    
Cu1   Cu2   S    
C19   N7    A    
C18   C20   A    
C35   O8    D    
C34   C53   A    
C8    C10   D    
C49   N3    T    
C21   C24   A    
C10   C47   S    
C17   N7    A    
C35   H5    S    
C15   O21   A    
C8    C49   S    
C32   O6    D    
