data_mof_unit_12465.cif
_audit_creation_date              2012-12-10T17:46:21-0500
_audit_creation_method            fapswitch 2.2
_symmetry_space_group_name_H-M    P1
_symmetry_Int_Tables_number       1
_space_group_crystal_system       triclinic
_cell_length_a                    14.12821
_cell_length_b                    10.547189
_cell_length_c                    9.964574
_cell_angle_alpha                 91.911557
_cell_angle_beta                  89.97819
_cell_angle_gamma                 92.443164
_cell_volume                      1482.67398804

loop_
_atom_site_label
_atom_site_type_symbol
_atom_type_description
_atom_site_fract_x
_atom_site_fract_y
_atom_site_fract_z
_atom_type_partial_charge
Br1   Br    Br    0.176074 0.248920 0.801226 -0.567441
Br2   Br    Br    0.395569 0.192874 0.183848 -0.615801
C1    C     C_R   0.517671 0.263821 0.499414 0.916563
C2    C     C_R   0.558204 0.064981 0.383976 -0.179953
C3    C     C_R   0.552297 0.934895 0.388122 -0.223234
C4    C     C_R   0.329498 0.502332 0.500657 0.922140
C5    C     C_R   0.538860 0.875857 0.510975 -0.104526
C6    C     C_R   0.356012 0.353152 0.126373 0.243306
C7    C     C_R   0.269594 0.327672 0.055830 0.005888
C8    C     C_R   0.274585 0.324554 0.915157 0.212366
C9    C     C_R   0.357391 0.365577 0.853032 -0.186268
C10   C     C_R   0.428984 0.434190 0.924489 0.081021
C11   C     C_R   0.428255 0.432539 0.068133 0.075947
C12   C     C_1   0.772405 0.505445 0.501016 -0.203873
C13   C     C_R   0.568532 0.563164 0.073697 -0.134217
C14   C     C_R   0.568803 0.562481 0.931015 -0.129401
C15   C     C_R   0.510125 0.741254 0.503291 0.874090
C16   C     C_R   0.670721 0.501336 0.500093 0.848462
C17   C     C_1   0.228399 0.510696 0.504132 -0.198482
C18   C     C_1   0.143305 0.516022 0.507912 0.014779
C19   C     C_1   0.043330 0.517252 0.508491 0.025488
C20   C     C_1   0.957920 0.514831 0.506644 0.015157
C21   C     C_1   0.857839 0.509870 0.503359 -0.011199
C22   C     C_3   0.632732 0.187401 0.987034 -0.414915
C23   C     C_R   0.602690 0.151995 0.740462 -0.210158
C24   C     C_3   0.736666 0.234175 0.972613 -0.367208
C25   C     C_3   0.770998 0.309522 0.098233 -0.837425
C26   C     C_3   0.529134 0.918049 0.009699 -0.461766
C27   C     C_3   0.424388 0.872169 0.994832 -0.301136
C28   C     C_3   0.383479 0.822486 0.125571 -0.820457
C29   C     C_3   0.185228 0.258378 0.119810 -0.333622
C30   C     C_3   0.167329 0.301491 0.264909 -0.361009
C31   C     C_3   0.083252 0.226435 0.323954 -0.824686
C32   C     C_R   0.599590 0.101961 0.868779 0.141522
C33   C     C_R   0.565438 0.974818 0.880320 0.128059
C34   C     C_R   0.558496 0.896998 0.763759 -0.254472
C35   C     C_R   0.556834 0.947786 0.633806 0.086294
C36   C     C_R   0.571108 0.079772 0.625832 0.074377
C37   C     C_R   0.552702 0.136352 0.502450 -0.120536
H1    H     H_    0.560564 0.109679 0.288597 0.186292
H2    H     H_    0.845813 0.343177 0.084507 0.250824
H3    H     H_    0.781999 0.151425 0.956339 0.235130
H4    H     H_    0.745203 0.296501 0.885421 0.225466
H5    H     H_    0.586840 0.270141 0.995013 0.231144
H6    H     H_    0.628232 0.138615 0.082730 0.203329
H7    H     H_    0.423543 0.740865 0.158057 0.276945
H8    H     H_    0.386087 0.898340 0.205533 0.291719
H9    H     H_    0.308416 0.789984 0.109691 0.246471
H10   H     H_    0.381707 0.952138 0.962962 0.262122
H11   H     H_    0.416820 0.794390 0.917109 0.224221
H12   H     H_    0.364302 0.338934 0.749650 0.239004
H13   H     H_    0.573186 0.837581 0.035349 0.186218
H14   H     H_    0.532181 0.987195 0.094349 0.223723
H15   H     H_    0.017206 0.244904 0.268733 0.252781
H16   H     H_    0.095681 0.123105 0.318105 0.270160
H17   H     H_    0.074055 0.255209 0.431114 0.274322
H18   H     H_    0.230588 0.287817 0.327954 0.265125
H19   H     H_    0.151783 0.403698 0.265819 0.225550
H20   H     H_    0.119743 0.276178 0.062986 0.233115
H21   H     H_    0.195795 0.154466 0.113957 0.247636
H22   H     H_    0.625303 0.613536 0.879784 0.137688
H23   H     H_    0.629237 0.248895 0.730477 0.169876
H24   H     H_    0.552178 0.798149 0.782807 0.190163
H25   H     H_    0.551538 0.880997 0.294053 0.174317
H26   H     H_    0.624464 0.615220 0.128722 0.139128
H27   H     H_    0.727144 0.393263 0.116501 0.269565
H28   H     H_    0.766938 0.248910 0.187306 0.256748
N1    N     N_R   0.499190 0.498800 0.142780 -0.096461
N2    N     N_R   0.499160 0.498720 0.857170 -0.101499
O1    O     O_R   0.500000 0.316780 0.614690 -0.641198
O2    O     O_R   0.499990 0.316750 0.385360 -0.555558
O3    O     O_R   0.373720 0.500010 0.614690 -0.598974
O4    O     O_R   0.373710 0.499990 0.385360 -0.592714
O5    O     O_R   0.500010 0.683250 0.614640 -0.628035
O6    O     O_R   0.500000 0.683220 0.385310 -0.620276
O7    O     O_R   0.626290 0.500010 0.614640 -0.616160
O8    O     O_R   0.626280 0.499990 0.385310 -0.604032
Zn1   Zn    Zn3+2 0.500010 0.500020 0.653130 0.918436
Zn2   Zn    Zn3+2 0.499990 0.499980 0.346870 0.944019

loop_
_geom_bond_atom_site_label_1
_geom_bond_atom_site_label_2
_ccdc_geom_bond_type
C31   H16   S    
C10   N2    A    
C6    C11   A    
O1    Zn1   S    
C12   C16   S    
C17   C18   T    
C30   H19   S    
O2    Zn2   S    
C27   H10   S    
C4    O3    A    
C4    C17   S    
C24   C25   S    
C35   C36   A    
C22   H6    S    
C28   H9    S    
C34   C35   A    
C22   C24   S    
C36   C37   A    
C13   C14   A    
C13   H26   S    
C32   C33   A    
C29   H20   S    
O3    Zn1   S    
C2    H1    S    
C26   C33   S    
C6    C7    A    
C5    C15   S    
C34   H24   S    
C7    C8    A    
C23   C32   A    
C31   H17   S    
C1    C37   S    
C19   C20   T    
N2    Zn1   S    
C30   H18   S    
C24   H4    S    
C27   H11   S    
O8    Zn2   S    
C5    C35   A    
Br1   C8    S    
C28   H8    S    
C1    O1    A    
C25   H28   S    
C3    C5    A    
C22   C32   S    
C3    H25   S    
C33   C34   A    
C12   C21   T    
C1    O2    A    
C27   C28   S    
C23   C36   A    
C25   H2    S    
C29   C30   S    
C2    C37   A    
C9    C10   A    
O4    Zn2   S    
C18   C19   S    
C15   O5    A    
C22   H5    S    
C14   H22   S    
C24   H3    S    
C4    O4    A    
C31   H15   S    
C26   C27   S    
C16   O7    A    
C28   H7    S    
Br2   C6    S    
C14   N2    A    
O7    Zn1   S    
C2    C3    A    
C26   H14   S    
C30   C31   S    
C25   H27   S    
C26   H13   S    
N1    Zn2   S    
C16   O8    A    
C13   N1    A    
C23   H23   S    
C9    H12   S    
C8    C9    A    
C7    C29   S    
C10   C11   A    
O5    Zn1   S    
C15   O6    A    
C20   C21   S    
C29   H21   S    
O6    Zn2   S    
C11   N1    A    
