data_mof_unit_37267.cif
_audit_creation_date              2013-03-05T15:50:13-0500
_audit_creation_method            fapswitch 2.2
_symmetry_space_group_name_H-M    P1
_symmetry_Int_Tables_number       1
_space_group_crystal_system       triclinic
_cell_length_a                    15.273582
_cell_length_b                    15.772148
_cell_length_c                    9.737861
_cell_angle_alpha                 90.001176
_cell_angle_beta                  89.058524
_cell_angle_gamma                 90.000029
_cell_volume                      2345.50672149

loop_
_atom_site_label
_atom_site_type_symbol
_atom_site_description
_atom_site_fract_x
_atom_site_fract_y
_atom_site_fract_z
_atom_type_partial_charge
O1    O     O_R   0.409820 0.909830 0.618810 -0.590615
O2    O     O_R   0.409820 0.090170 0.618810 -0.589210
O3    O     O_R   0.909820 0.409830 0.618810 -0.589231
O4    O     O_R   0.909820 0.590170 0.618810 -0.590625
O5    O     O_R   0.409840 0.909830 0.381240 -0.525084
O6    O     O_R   0.409840 0.090170 0.381240 -0.528452
O7    O     O_R   0.909840 0.409830 0.381240 -0.528411
O8    O     O_R   0.909840 0.590170 0.381240 -0.525073
C1    C     C_R   0.383193 0.879154 0.502242 0.838927
C2    C     C_R   0.385998 0.122722 0.500301 0.846029
C3    C     C_R   0.885974 0.377294 0.500300 0.846015
C4    C     C_R   0.883195 0.620847 0.502244 0.838907
Cu1   Cu    Cu3+1 0.499990 0.000000 0.640660 0.927656
Cu2   Cu    Cu3+1 0.999990 0.500000 0.640660 0.927656
Cu3   Cu    Cu3+1 0.500010 0.000000 0.359340 1.078016
Cu4   Cu    Cu3+1 0.000010 0.500000 0.359340 1.078053
O9    O     O_R   0.590170 0.090170 0.618760 -0.628708
O10   O     O_R   0.590170 0.909830 0.618760 -0.610265
O11   O     O_R   0.090170 0.590170 0.618760 -0.610274
O12   O     O_R   0.090170 0.409830 0.618760 -0.628732
O13   O     O_R   0.590190 0.090180 0.381190 -0.539534
O14   O     O_R   0.590190 0.909820 0.381190 -0.567693
O15   O     O_R   0.090190 0.590180 0.381190 -0.567716
O16   O     O_R   0.090190 0.409820 0.381190 -0.539440
C5    C     C_R   0.615665 0.121717 0.500377 0.794358
C6    C     C_R   0.614046 0.877211 0.498011 0.765460
C7    C     C_R   0.114039 0.622793 0.498012 0.765458
C8    C     C_R   0.115678 0.378289 0.500376 0.794434
H1    H     H_    0.289707 0.175001 0.287736 0.238604
H2    H     H_    0.334490 0.785609 0.293115 0.244156
H3    H     H_    0.834544 0.714435 0.293141 0.244123
H4    H     H_    0.789463 0.325230 0.287864 0.238681
C9    C     C_R   0.351341 0.239897 0.743444 0.042505
C10   C     C_R   0.287336 0.812171 0.763698 0.051683
C11   C     C_R   0.787329 0.687823 0.763698 0.051663
C12   C     C_R   0.851351 0.260076 0.743381 0.042427
C13   C     C_R   0.306167 0.243971 0.871076 0.401626
C14   C     C_R   0.220030 0.825416 0.862923 0.398040
C15   C     C_R   0.720018 0.674576 0.862909 0.397979
C16   C     C_R   0.806201 0.256007 0.871043 0.401303
C17   C     C_R   0.634668 0.702776 0.835239 0.068094
C18   C     C_R   0.714716 0.248217 0.868710 0.040115
C19   C     C_R   0.214686 0.251765 0.868708 0.040024
C20   C     C_R   0.134678 0.797219 0.835259 0.068035
C21   C     C_R   0.620089 0.746241 0.713140 -0.199890
C22   C     C_R   0.676576 0.216619 0.751497 -0.219663
C23   C     C_R   0.176565 0.283356 0.751479 -0.219604
C24   C     C_R   0.120093 0.753756 0.713159 -0.199902
H5    H     H_    0.555709 0.771005 0.695099 0.172424
H6    H     H_    0.608319 0.206022 0.755266 0.192349
H7    H     H_    0.108313 0.293963 0.755226 0.192359
H8    H     H_    0.055712 0.728993 0.695121 0.172422
C25   C     C_R   0.685910 0.753725 0.611413 -0.000340
C26   C     C_R   0.721416 0.216961 0.625741 -0.023259
C27   C     C_R   0.221427 0.283027 0.625746 -0.023273
C28   C     C_R   0.185906 0.746277 0.611422 -0.000354
C29   C     C_R   0.302381 0.240909 0.620943 0.034477
C30   C     C_R   0.264689 0.791023 0.627544 0.029259
C31   C     C_R   0.764692 0.708978 0.627543 0.029266
C32   C     C_R   0.802362 0.259086 0.620911 0.034522
C33   C     C_R   0.325001 0.195731 0.499699 -0.144218
C34   C     C_R   0.316885 0.810093 0.508167 -0.174676
C35   C     C_R   0.816897 0.689915 0.508174 -0.174687
C36   C     C_R   0.824930 0.304319 0.499697 -0.144266
C37   C     C_R   0.276037 0.210096 0.380836 -0.177042
C38   C     C_R   0.296004 0.771454 0.384279 -0.182613
C39   C     C_R   0.796041 0.728576 0.384296 -0.182523
C40   C     C_R   0.775875 0.290046 0.380895 -0.176853
C41   C     C_R   0.725238 0.783699 0.373684 0.335154
C42   C     C_R   0.705638 0.233533 0.382073 0.352886
C43   C     C_R   0.205780 0.266580 0.382031 0.352778
C44   C     C_R   0.225191 0.716340 0.373667 0.335121
C45   C     C_R   0.673566 0.802625 0.492386 -0.193910
C46   C     C_R   0.680845 0.191867 0.503098 -0.192662
C47   C     C_R   0.180889 0.308157 0.503093 -0.192552
C48   C     C_R   0.173549 0.697388 0.492387 -0.193868
C49   C     C_R   0.660231 0.996084 0.137997 -0.001028
C50   C     C_R   0.160228 0.503996 0.137994 -0.001076
H9    H     H_    0.666855 0.997982 0.246276 0.184754
H10   H     H_    0.166853 0.502052 0.246271 0.184756
C51   C     C_R   0.739070 0.999227 0.065080 -0.021126
C52   C     C_R   0.239070 0.500922 0.065075 -0.020662
H11   H     H_    0.799889 0.001273 0.120744 0.169840
H12   H     H_    0.299890 0.498919 0.120739 0.169906
C53   C     C_R   0.739869 0.999442 0.922942 0.154258
C54   C     C_R   0.239869 0.500683 0.922938 0.154300
C55   C     C_R   0.660706 0.997994 0.853962 -0.125377
C56   C     C_R   0.160705 0.502056 0.853960 -0.125454
H13   H     H_    0.667105 0.999557 0.745487 0.214857
H14   H     H_    0.167103 0.500452 0.745486 0.214850
C57   C     C_R   0.578773 0.997351 0.923842 0.135706
C58   C     C_R   0.078772 0.502677 0.923841 0.135739
C59   C     C_R   0.578632 0.996457 0.072279 0.157406
C60   C     C_R   0.078630 0.503576 0.072278 0.157278
N1    N     N_R   0.501200 0.000000 0.147910 -0.256738
N2    N     N_R   0.001200 0.500000 0.147910 -0.256729
C61   C     C_R   0.424687 0.008334 0.073306 0.502855
C62   C     C_R   0.924691 0.491650 0.073305 0.502814
H15   H     H_    0.365103 0.011614 0.871540 0.190953
H16   H     H_    0.865106 0.488352 0.871540 0.190936
C63   C     C_R   0.425849 0.006295 0.926583 -0.089567
C64   C     C_R   0.925852 0.493685 0.926582 -0.089548
N3    N     N_R   0.501270 1.000000 0.852040 -0.249678
N4    N     N_R   0.001270 0.500000 0.852040 -0.249652
C65   C     C_3   0.824861 0.002025 0.843098 -0.820640
H17   H     H_    0.882091 0.003642 0.912002 0.249393
H18   H     H_    0.830392 0.944850 0.776915 0.228349
H19   H     H_    0.826858 0.059543 0.777321 0.235160
C66   C     C_3   0.324862 0.498135 0.843094 -0.820329
H20   H     H_    0.382095 0.496588 0.911998 0.249446
H21   H     H_    0.326903 0.440593 0.777369 0.235209
H22   H     H_    0.330347 0.555291 0.776860 0.228241
C67   C     C_3   0.448831 0.245204 0.738424 -0.765597
H23   H     H_    0.471115 0.301462 0.796898 0.233686
H24   H     H_    0.474198 0.186698 0.785933 0.274707
H25   H     H_    0.474880 0.251282 0.631727 0.215950
C68   C     C_3   0.376876 0.788556 0.812787 -0.743468
H26   H     H_    0.370595 0.740357 0.895476 0.256442
H27   H     H_    0.415403 0.758012 0.729339 0.200078
H28   H     H_    0.412304 0.844221 0.852475 0.257424
C69   C     C_3   0.876867 0.711427 0.812810 -0.743426
H29   H     H_    0.870585 0.759633 0.895491 0.256456
H30   H     H_    0.912280 0.655759 0.852516 0.257392
H31   H     H_    0.915408 0.741959 0.729370 0.200086
C70   C     C_3   0.948836 0.254758 0.738275 -0.765734
H32   H     H_    0.971138 0.198512 0.796761 0.233634
H33   H     H_    0.974848 0.248656 0.631560 0.215973
H34   H     H_    0.974216 0.313277 0.785720 0.274817
N5    N     N_R   0.351794 0.247644 0.999176 0.134782
O17   O     O_R   0.332299 0.306821 0.087316 -0.333170
O18   O     O_R   0.420396 0.200982 0.020588 -0.369677
N6    N     N_R   0.237912 0.868559 0.988755 0.133562
O19   O     O_R   0.303604 0.846287 0.063622 -0.356552
O20   O     O_R   0.191866 0.934762 0.023499 -0.317148
N7    N     N_R   0.737896 0.631437 0.988743 0.133504
O21   O     O_R   0.803535 0.653764 0.063679 -0.356442
O22   O     O_R   0.691871 0.565216 0.023465 -0.317148
N8    N     N_R   0.851842 0.252435 0.999150 0.134883
O23   O     O_R   0.831822 0.193842 0.087987 -0.333470
O24   O     O_R   0.920615 0.298899 0.020343 -0.369779
C71   C     C_3   0.559606 0.695494 0.936909 -0.685611
H35   H     H_    0.532434 0.759538 0.957837 0.239282
H36   H     H_    0.507880 0.654544 0.893364 0.206555
H37   H     H_    0.578325 0.669015 0.037269 0.298084
C72   C     C_3   0.655278 0.292631 0.968655 -0.554262
H38   H     H_    0.689665 0.309985 0.062500 0.299107
H39   H     H_    0.631311 0.352099 0.921134 0.210766
H40   H     H_    0.597276 0.252758 0.993432 0.275108
C73   C     C_3   0.155222 0.207443 0.968715 -0.554539
H41   H     H_    0.189640 0.189986 0.062486 0.298919
H42   H     H_    0.097327 0.247436 0.993606 0.275378
H43   H     H_    0.131089 0.148038 0.921190 0.210700
C74   C     C_3   0.059616 0.804501 0.936932 -0.685487
H44   H     H_    0.078337 0.830974 0.037294 0.298119
H45   H     H_    0.007891 0.845454 0.893397 0.206554
H46   H     H_    0.032439 0.740458 0.957848 0.239281
N9    N     N_R   0.702268 0.811599 0.238756 0.126059
O25   O     O_R   0.623406 0.797744 0.195604 -0.364032
O26   O     O_R   0.764015 0.825725 0.147983 -0.390485
N10   N     N_R   0.651396 0.228320 0.265492 0.108536
O27   O     O_R   0.667215 0.169707 0.175151 -0.369613
O28   O     O_R   0.575031 0.264944 0.268871 -0.339293
N11   N     N_R   0.151655 0.271904 0.265342 0.108336
O29   O     O_R   0.075147 0.235551 0.268640 -0.339363
O30   O     O_R   0.167747 0.330443 0.174995 -0.369813
N12   N     N_R   0.202170 0.688493 0.238732 0.126041
O31   O     O_R   0.263879 0.674436 0.147866 -0.390500
O32   O     O_R   0.123276 0.702321 0.195697 -0.364100
N13   N     N_R   0.342331 0.029652 0.137785 0.162626
O33   O     O_R   0.289702 0.079468 0.072961 -0.390794
O34   O     O_R   0.308972 0.984476 0.236537 -0.276114
N14   N     N_R   0.842342 0.470329 0.137786 0.162544
O35   O     O_R   0.789726 0.420495 0.072970 -0.390830
O36   O     O_R   0.808969 0.515527 0.236505 -0.276156

loop_
_geom_bond_atom_site_label_1
_geom_bond_atom_site_label_2
_geom_bond_distance
_ccdc_geom_bond_type
C30   C34   1.430703 A    
C43   C47   1.396261 A    
N9    O25   1.300692 A    
C28   C48   1.407462 A    
C55   C57   1.414640 A    
C68   H26   1.110387 S    
N13   O33   1.295631 A    
C65   H17   1.110952 S    
C12   C70   1.491325 S    
O10   C6    1.328959 A    
C24   C28   1.404679 A    
C44   C48   1.420587 A    
C60   N2    1.384058 A    
C72   H38   1.096196 S    
C25   C31   1.406006 A    
N7    O21   1.298316 A    
C15   C17   1.407593 A    
C15   N7    1.431789 S    
O7    C3    1.313973 A    
C65   H18   1.110804 S    
C43   N11   1.418631 S    
Cu1   O10   1.988856 S    
C20   C74   1.506820 S    
C36   C40   1.406731 A    
N11   O30   1.296086 A    
C67   H23   1.110746 S    
C24   H8    1.075175 S    
C73   H42   1.109727 S    
Cu3   N1    2.058658 S    
C50   H10   1.061320 S    
C6    C45   1.487176 S    
C61   N13   1.436514 S    
C11   C31   1.415581 A    
C5    C46   1.488901 S    
C18   C22   1.382876 A    
O2    Cu1   1.993548 S    
C59   N1    1.384056 A    
C69   H31   1.105860 S    
C66   H21   1.110669 S    
C72   H39   1.110615 S    
O6    Cu3   1.988750 S    
C26   C46   1.411109 A    
C32   C36   1.416932 A    
Cu3   O14   1.993767 S    
C38   C44   1.392742 A    
C56   C58   1.414640 A    
C28   C30   1.406002 A    
N6    O19   1.298335 A    
C16   N8    1.440108 S    
C42   C46   1.396258 A    
C70   H34   1.105201 S    
C41   N9    1.434656 S    
C41   C45   1.420599 A    
O15   C7    1.305760 A    
Cu1   N3    2.058804 S    
O11   C7    1.328971 A    
O4    C4    1.305039 A    
C19   C73   1.494287 S    
H4    C40   1.079602 S    
C67   H25   1.110592 S    
C27   C47   1.411136 A    
C10   C68   1.503010 S    
C16   C18   1.403260 A    
C21   C25   1.404698 A    
Cu4   O16   1.993767 S    
N12   O32   1.300693 A    
N13   O34   1.294591 A    
C53   C65   1.502711 S    
C58   C60   1.445494 A    
C51   H11   1.083647 S    
N14   O36   1.294595 A    
C14   C20   1.407606 A    
C49   H9    1.061317 S    
C65   H19   1.110661 S    
C35   C39   1.393243 A    
Cu4   N2    2.058658 S    
O5    Cu3   1.988756 S    
C34   C38   1.393253 A    
C53   C55   1.392962 A    
C1    C34   1.487798 S    
Cu2   O12   1.988856 S    
C12   C16   1.413126 A    
C54   C66   1.502710 S    
O1    C1    1.305043 A    
C3    C36   1.481292 S    
C68   H28   1.104455 S    
C4    C35   1.487778 S    
C58   N4    1.385306 A    
C23   H7    1.055832 S    
O12   C8    1.308983 A    
C62   C64   1.428943 A    
C9    C13   1.413056 A    
C66   H22   1.110808 S    
N2    C62   1.392326 A    
C39   C41   1.392730 A    
C71   H36   1.110003 S    
N10   O28   1.301502 A    
C13   C19   1.403202 A    
C11   C15   1.414683 A    
O5    C1    1.331309 A    
C70   H33   1.110595 S    
C57   C59   1.445495 A    
C50   C52   1.388730 A    
Cu2   N4    2.058804 S    
C21   H5    1.075178 S    
O8    C4    1.331304 A    
C22   C26   1.393247 A    
H16   C64   1.082363 S    
C27   C29   1.403708 A    
C74   H46   1.109644 S    
C64   N4    1.355082 A    
C69   H29   1.110385 S    
H2    C38   1.079962 S    
O3    Cu2   1.993542 S    
N8    O24   1.300050 A    
H1    C37   1.079652 S    
C73   H43   1.110639 S    
N6    O20   1.300585 A    
O7    Cu4   1.988756 S    
H15   C63   1.082363 S    
C56   H14   1.059511 S    
Cu4   O15   1.993759 S    
C52   H12   1.083649 S    
Cu1   Cu3   2.739449 S    
C70   H32   1.110745 S    
Cu2   Cu4   2.739449 S    
C31   C35   1.430691 A    
C71   H37   1.104738 S    
C2    C33   1.481262 S    
C74   H45   1.109999 S    
C7    C48   1.487185 S    
O2    C2    1.319690 A    
C72   H40   1.109732 S    
N14   O35   1.295617 A    
C23   C27   1.393216 A    
N5    O17   1.299242 A    
C63   N3    1.355090 A    
N7    O22   1.300588 A    
O13   C5    1.326906 A    
C9    C29   1.418374 A    
O8    Cu4   1.988750 S    
C10   C14   1.414705 A    
C44   N12   1.434662 S    
Cu2   O11   1.988860 S    
C25   C45   1.407495 A    
O16   C8    1.326943 A    
C57   N3    1.385315 A    
C12   C32   1.418351 A    
O6    C2    1.313966 A    
N1    C61   1.392353 A    
C29   C33   1.416901 A    
C17   C71   1.506814 S    
C22   H6    1.055888 S    
C9    C67   1.491362 S    
Cu1   O9    1.988860 S    
C26   C32   1.403666 A    
O9    C5    1.308973 A    
N10   O27   1.296108 A    
C68   H27   1.105868 S    
C11   C69   1.503013 S    
C62   N14   1.436453 S    
C37   C43   1.394598 A    
C73   H41   1.096236 S    
C52   C54   1.383971 A    
C18   C72   1.494326 S    
N12   O31   1.301164 A    
C50   C60   1.410318 A    
C54   C56   1.392954 A    
C49   C59   1.410336 A    
C55   H13   1.059511 S    
C13   N5    1.440010 S    
C42   N10   1.418737 S    
O4    Cu2   1.993548 S    
C51   C53   1.383977 A    
C69   H30   1.104452 S    
N11   O29   1.301554 A    
O3    C3    1.319691 A    
N8    O23   1.298934 A    
H3    C39   1.079972 S    
C33   C37   1.406699 A    
Cu3   O13   1.993759 S    
O1    Cu1   1.993542 S    
N9    O26   1.301165 A    
C49   C51   1.388719 A    
O14   C6    1.305768 A    
C66   H20   1.110956 S    
C10   C30   1.415576 A    
C40   C42   1.394647 A    
C17   C21   1.393545 A    
N5    O18   1.300079 A    
C74   H44   1.104716 S    
C71   H35   1.109644 S    
C8    C47   1.489009 S    
C19   C23   1.382858 A    
C61   C63   1.428951 A    
C20   C24   1.393527 A    
C14   N6    1.431793 S    
C67   H24   1.105243 S    
