data_mof_unit_11269.cif
_audit_creation_date              2012-12-10T21:11:29-0500
_audit_creation_method            fapswitch 2.2
_symmetry_space_group_name_H-M    P1
_symmetry_Int_Tables_number       1
_space_group_crystal_system       triclinic
_cell_length_a                    17.541108
_cell_length_b                    16.7277
_cell_length_c                    10.622386
_cell_angle_alpha                 89.962928
_cell_angle_beta                  89.944711
_cell_angle_gamma                 89.915569
_cell_volume                      3116.84042713

loop_
_atom_site_label
_atom_site_type_symbol
_atom_type_description
_atom_site_fract_x
_atom_site_fract_y
_atom_site_fract_z
_atom_type_partial_charge
C1    C     C_R   0.353082 0.500092 0.497958 0.890186
C2    C     C_R   0.646905 0.499969 0.498400 0.889255
C3    C     C_R   0.885476 0.502265 0.440710 0.045034
C4    C     C_R   0.114447 0.500031 0.440503 0.043723
C5    C     C_1   0.966121 0.501759 0.430805 -0.025006
C6    C     C_1   0.033809 0.500989 0.430744 -0.024981
C7    C     C_R   0.433426 0.832035 0.469306 0.333166
C8    C     C_R   0.539946 0.168202 0.593361 0.284795
C9    C     C_R   0.566917 0.831712 0.529558 0.330750
C10   C     C_R   0.460492 0.168467 0.405998 0.326410
C11   C     C_R   0.435507 0.747866 0.468734 -0.103800
C12   C     C_R   0.538927 0.252396 0.590625 -0.130578
C13   C     C_R   0.564621 0.747564 0.530813 -0.103162
C14   C     C_R   0.461167 0.252635 0.409221 -0.106147
C15   C     C_R   0.500204 0.875564 0.499400 -0.193190
C16   C     C_R   0.500262 0.124699 0.499581 -0.161838
C17   C     C_1   0.500255 0.963588 0.499394 0.250510
C18   C     C_1   0.500276 0.036670 0.499456 0.247275
C19   C     C_R   0.512309 0.500015 0.260270 0.899411
C20   C     C_R   0.488040 0.499991 0.739927 0.898571
C21   C     C_R   0.542300 0.647239 0.110503 -0.128055
C22   C     C_R   0.458747 0.352761 0.890214 -0.171625
C23   C     C_R   0.457842 0.647117 0.889663 -0.127924
C24   C     C_R   0.543553 0.353104 0.110699 -0.175645
C25   C     C_R   0.522227 0.719496 0.054006 -0.103617
C26   C     C_R   0.478904 0.280584 0.946845 -0.046876
C27   C     C_R   0.477482 0.719430 0.946077 -0.105208
C28   C     C_R   0.524014 0.280760 0.054366 -0.023051
C29   C     C_R   0.483217 0.573428 0.940724 0.082544
C30   C     C_R   0.518003 0.426686 0.059587 0.088972
C31   C     C_R   0.517404 0.573491 0.059471 0.081519
C32   C     C_R   0.483734 0.426561 0.940916 0.087946
C33   C     C_R   0.476489 0.499968 0.875926 -0.248556
C34   C     C_R   0.524485 0.500092 0.124440 -0.247481
C35   C     C_R   0.847859 0.573088 0.476065 0.005884
C36   C     C_R   0.151977 0.428001 0.469584 0.010532
C37   C     C_R   0.155081 0.572179 0.432147 0.004860
C38   C     C_R   0.844918 0.430460 0.426163 0.012304
C39   C     C_R   0.769726 0.571636 0.496879 -0.213439
C40   C     C_R   0.230132 0.428574 0.490329 -0.217690
C41   C     C_R   0.233095 0.571988 0.453934 -0.209699
C42   C     C_R   0.766877 0.429726 0.448170 -0.230374
C43   C     C_R   0.729194 0.500099 0.483566 -0.083800
C44   C     C_R   0.270759 0.500409 0.483087 -0.083725
H1    H     H_    0.542380 0.224836 0.095861 0.193918
H2    H     H_    0.459231 0.775389 0.904573 0.172610
H3    H     H_    0.460892 0.224519 0.905699 0.185093
H4    H     H_    0.540103 0.775508 0.095480 0.173842
H5    H     H_    0.578008 0.649512 0.193461 0.160648
H6    H     H_    0.422858 0.350361 0.807500 0.161317
H7    H     H_    0.422039 0.649320 0.806809 0.160557
H8    H     H_    0.579261 0.351055 0.193684 0.158359
H9    H     H_    0.740638 0.626285 0.523778 0.186034
H10   H     H_    0.259165 0.372998 0.512289 0.173994
H11   H     H_    0.264433 0.627622 0.446679 0.185896
H12   H     H_    0.735467 0.374465 0.436005 0.170176
H13   H     H_    0.385225 0.714507 0.443134 0.196946
H14   H     H_    0.569457 0.286278 0.660953 0.180155
H15   H     H_    0.614893 0.713984 0.556405 0.198989
H16   H     H_    0.430441 0.286654 0.339063 0.205536
N1    N     N_R   0.500000 0.707230 0.500000 -0.149813
N2    N     N_R   0.500000 0.292770 0.500000 -0.139824
O1    O     O_R   0.389110 0.566570 0.499990 -0.630795
O2    O     O_R   0.610890 0.433430 0.500010 -0.619514
O3    O     O_R   0.610890 0.566570 0.500010 -0.629629
O4    O     O_R   0.389110 0.433430 0.499990 -0.616473
O5    O     O_R   0.499990 0.566540 0.316770 -0.608869
O6    O     O_R   0.500010 0.433460 0.683230 -0.618147
O7    O     O_R   0.500010 0.566540 0.683230 -0.607354
O8    O     O_R   0.499990 0.433460 0.316770 -0.618078
Zn1   Zn    Zn3+2 0.500000 0.588860 0.500000 0.952917
Zn2   Zn    Zn3+2 0.500000 0.411140 0.500000 0.948557
C45   C     C_1   0.888247 0.647572 0.493213 0.212168
N3    N     N_1   0.920397 0.707269 0.507114 -0.142487
C46   C     C_1   0.111433 0.353114 0.480341 0.197757
N4    N     N_1   0.079125 0.293103 0.489113 -0.136859
C47   C     C_1   0.118014 0.647053 0.402129 0.214215
N5    N     N_1   0.088527 0.707050 0.377955 -0.144121
C48   C     C_1   0.882119 0.356905 0.389374 0.190221
N6    N     N_1   0.911746 0.297986 0.359752 -0.139528
S1    S     S_3+6 0.346894 0.879997 0.429716 0.059268
O9    O     O_2   0.331115 0.946725 0.520828 -0.251818
O10   O     O_2   0.353781 0.913364 0.298870 -0.213029
O11   O     O_3   0.274353 0.814358 0.434110 -0.579866
H17   H     H_    0.229166 0.845053 0.405833 0.402979
S2    S     S_3+6 0.592747 0.119814 0.712950 0.060699
O12   O     O_2   0.545198 0.055353 0.772424 -0.226012
O13   O     O_2   0.662567 0.082588 0.655516 -0.209298
O14   O     O_3   0.619564 0.184929 0.825086 -0.556933
H18   H     H_    0.665722 0.211435 0.791300 0.360663
S3    S     S_3+6 0.653738 0.879196 0.567909 0.062028
O15   O     O_2   0.668991 0.946195 0.476995 -0.249492
O16   O     O_2   0.647779 0.912073 0.699127 -0.205479
O17   O     O_3   0.726166 0.813258 0.561668 -0.579593
H19   H     H_    0.771794 0.843981 0.587387 0.402868
S4    S     S_3+6 0.408101 0.120582 0.285784 0.048142
O18   O     O_2   0.455872 0.056014 0.226700 -0.262285
O19   O     O_2   0.337818 0.084239 0.342702 -0.197086
O20   O     O_3   0.381945 0.186786 0.174645 -0.589238
H20   H     H_    0.357517 0.154345 0.107997 0.396888

loop_
_geom_bond_atom_site_label_1
_geom_bond_atom_site_label_2
_ccdc_geom_bond_type
C24   H8    S    
C4    C36   A    
C45   N3    T    
C2    O3    A    
C9    S3    S    
C21   H5    S    
S1    O9    D    
C47   N5    T    
C7    C11   A    
C21   C31   A    
C22   C32   A    
C23   C29   A    
C38   C42   A    
C5    C6    T    
S2    O13   D    
C38   C48   S    
C14   N2    A    
S4    O20   S    
C29   C33   A    
O7    Zn1   S    
C9    C13   A    
C41   H11   S    
C42   H12   S    
O4    Zn2   S    
C3    C38   A    
S4    O19   D    
C19   O5    A    
C23   C27   A    
C8    S2    S    
O6    Zn2   S    
C22   H6    S    
C12   H14   S    
N1    Zn1   S    
C7    C15   A    
C8    C16   A    
C1    O1    A    
S1    O10   D    
C2    O2    A    
C1    O4    A    
C28   H1    S    
C30   C34   A    
C36   C40   A    
O11   H17   S    
C4    C6    S    
C10   C14   A    
S3    O15   D    
S2    O12   D    
C39   C43   A    
C11   N1    A    
C10   S4    S    
O3    Zn1   S    
C37   C47   S    
S2    O14   S    
C35   C39   A    
C46   N4    T    
C36   C46   S    
S3    O16   D    
C12   N2    A    
C1    C44   S    
C23   H7    S    
O20   H20   S    
C3    C35   A    
C2    C43   S    
C8    C12   A    
S4    O18   D    
C17   C18   T    
C31   C34   A    
N2    Zn2   S    
C25   H4    S    
C26   H3    S    
C20   C33   S    
C27   H2    S    
C7    S1    S    
O1    Zn1   S    
C40   H10   S    
C41   C44   A    
C20   O7    A    
C42   C43   A    
S1    O11   S    
C15   C17   S    
C21   C25   A    
C35   C45   S    
C20   O6    A    
C24   C28   A    
C3    C5    S    
C19   C34   S    
C13   H15   S    
C25   C27   A    
C14   H16   S    
C26   C28   A    
C32   C33   A    
C9    C15   A    
C29   C31   A    
C10   C16   A    
S3    O17   S    
C30   C32   A    
C39   H9    S    
O5    Zn1   S    
O2    Zn2   S    
C37   C41   A    
O17   H19   S    
C24   C30   A    
C48   N6    T    
C40   C44   A    
C13   N1    A    
C4    C37   A    
C16   C18   S    
C22   C26   A    
C19   O8    A    
O8    Zn2   S    
O14   H18   S    
C11   H13   S    
