data_mof_unit_51432.cif
_audit_creation_date              2012-12-11T18:13:30-0500
_audit_creation_method            fapswitch 2.2
_symmetry_space_group_name_H-M    P1
_symmetry_Int_Tables_number       1
_space_group_crystal_system       triclinic
_cell_length_a                    8.162075
_cell_length_b                    12.656918
_cell_length_c                    18.781404
_cell_angle_alpha                 99.73795
_cell_angle_beta                  91.280425
_cell_angle_gamma                 98.507522
_cell_volume                      1889.01297989

loop_
_atom_site_label
_atom_site_type_symbol
_atom_type_description
_atom_site_fract_x
_atom_site_fract_y
_atom_site_fract_z
_atom_type_partial_charge
Ba1   Ba    Ba6+2 0.852780 0.548340 0.465070 1.645233
Ba2   Ba    Ba6+2 0.337060 0.451750 0.534940 1.639877
C1    C     C_3   0.579878 0.899315 0.253107 -0.411564
C2    C     C_R   0.889787 0.388211 0.091439 -0.007698
C3    C     C_R   0.729663 0.336387 0.064734 -0.071058
C4    C     C_3   0.127199 0.761350 0.265660 0.362998
C5    C     C_R   0.668787 0.345545 0.996626 -0.092011
C6    C     C_R   0.768150 0.402120 0.951573 0.028969
C7    C     C_R   0.929866 0.452382 0.975776 0.030869
C8    C     C_R   0.708708 0.405554 0.881830 -0.107096
C9    C     C_R   0.811293 0.453175 0.832960 -0.032965
C10   C     C_R   0.973821 0.505388 0.856714 0.003723
C11   C     C_R   0.031731 0.506057 0.928814 0.015507
C12   C     C_3   0.631334 0.819201 0.297917 0.339455
C13   C     C_R   0.757643 0.446913 0.760303 0.000016
C14   C     C_R   0.867031 0.487102 0.711527 -0.302458
C15   C     C_R   0.024599 0.544173 0.733951 0.038694
C16   C     C_3   0.107206 0.786228 0.189777 -0.362379
C17   C     C_R   0.078668 0.555596 0.808396 -0.042700
C18   C     C_R   0.151553 0.497121 0.070869 0.003198
C19   C     C_R   0.211097 0.494463 0.142298 -0.061449
C20   C     C_R   0.107976 0.440303 0.189785 -0.049952
C21   C     C_R   0.952339 0.379920 0.161138 0.402124
C22   C     C_R   0.234429 0.613618 0.835951 -0.043641
C23   C     C_3   0.455964 0.272231 0.314153 0.314553
C24   C     C_R   0.294053 0.613894 0.907372 -0.035682
C25   C     C_R   0.192961 0.557083 0.953296 -0.031660
C26   C     C_R   0.253160 0.551468 0.023946 0.023773
C27   C     C_R   0.455616 0.666052 0.933591 0.385707
C28   C     C_3   0.235369 0.787112 0.619735 0.278570
C29   C     C_R   0.516296 0.654464 0.001593 -0.072501
C30   C     C_R   0.416117 0.599346 0.047348 -0.041003
C31   C     C_R   0.374799 0.545764 0.165783 -0.024813
C32   C     C_R   0.476567 0.594341 0.116871 -0.094713
C33   C     C_R   0.430948 0.549076 0.237994 -0.004518
C34   C     C_3   0.405740 0.228553 0.234915 -0.404966
C35   C     C_R   0.323289 0.506293 0.286241 -0.321700
C36   C     C_R   0.164532 0.451044 0.264260 0.073139
C37   C     C_R   0.765151 0.182636 0.529120 -0.276844
C38   C     C_R   0.427776 0.807203 0.469864 -0.286433
C39   C     C_R   0.401726 0.984228 0.444620 -0.105823
C40   C     C_3   0.253377 0.909932 0.636093 -0.354148
C41   C     C_R   0.336936 0.875770 0.440637 -0.011111
C42   C     C_R   0.577583 0.848100 0.509253 0.068704
C43   C     C_R   0.642514 0.960295 0.516958 -0.058667
C44   C     C_R   0.553877 0.028305 0.482741 -0.062079
C45   C     C_3   0.062709 0.239550 0.734991 0.368433
C46   C     C_R   0.617796 0.139362 0.489000 0.044901
C47   C     C_R   0.857128 0.116435 0.559865 -0.013196
C48   C     C_R   0.793914 0.006654 0.556292 -0.094536
C49   C     C_3   0.960449 0.213201 0.382045 0.290678
C50   C     C_3   0.945465 0.090451 0.365923 -0.344816
C51   C     C_3   0.737169 0.710461 0.682496 0.287457
C52   C     C_3   0.797318 0.757473 0.760230 -0.380411
C53   C     C_3   0.082737 0.216303 0.811303 -0.362424
C54   C     C_3   0.559424 0.178870 0.701814 0.344337
C55   C     C_3   0.615194 0.102505 0.748578 -0.416823
C56   C     C_R   0.989830 0.447211 0.046524 -0.035648
H1    H     H_    0.723194 0.862997 0.341404 0.078048
H2    H     H_    0.838228 0.674416 0.654055 0.019036
H3    H     H_    0.627942 0.646848 0.682441 0.066297
H4    H     H_    0.526019 0.963855 0.288234 0.104924
H5    H     H_    0.920273 0.808903 0.761236 0.124131
H6    H     H_    0.807917 0.691606 0.791363 0.101734
H7    H     H_    0.708500 0.808406 0.786460 0.156850
H8    H     H_    0.519555 0.785152 0.323948 -0.049155
H9    H     H_    0.485859 0.856494 0.210294 0.114279
H10   H     H_    0.348733 0.304025 0.340588 0.013484
H11   H     H_    0.562095 0.339062 0.317552 0.052977
H12   H     H_    0.345395 0.941635 0.681725 0.113140
H13   H     H_    0.289980 0.168907 0.230559 0.142018
H14   H     H_    0.384141 0.295834 0.206667 0.053795
H15   H     H_    0.505239 0.187888 0.208073 0.132642
H16   H     H_    0.688751 0.936767 0.226833 0.139190
H17   H     H_    0.146333 0.720955 0.149677 0.071786
H18   H     H_    0.142307 0.317451 0.731681 0.093140
H19   H     H_    0.931291 0.247510 0.724706 -0.078838
H20   H     H_    0.214956 0.213492 0.824773 0.150252
H21   H     H_    0.040047 0.280968 0.850712 0.068565
H22   H     H_    0.007910 0.137169 0.815769 0.114375
H23   H     H_    0.295893 0.944682 0.588268 0.083173
H24   H     H_    0.669698 0.213792 0.675175 -0.053501
H25   H     H_    0.469578 0.131778 0.658617 0.079207
H26   H     H_    0.707045 0.148662 0.791244 0.114916
H27   H     H_    0.672888 0.038486 0.714805 0.094445
H28   H     H_    0.045076 0.684275 0.268707 0.090398
H29   H     H_    0.507694 0.064013 0.775154 0.131102
H30   H     H_    0.648158 0.288245 0.095569 0.070933
H31   H     H_    0.544516 0.305631 0.978413 0.072307
H32   H     H_    0.825752 0.478153 0.655399 0.071695
H33   H     H_    0.583081 0.367375 0.865794 0.105975
H34   H     H_    0.132200 0.935091 0.650924 0.142911
H35   H     H_    0.312368 0.655249 0.800768 0.108568
H36   H     H_    0.641365 0.692770 0.019815 0.098976
H37   H     H_    0.603141 0.630794 0.132516 0.106308
H38   H     H_    0.257903 0.751036 0.275190 -0.074153
H39   H     H_    0.366192 0.513184 0.342010 0.069573
H40   H     H_    0.328420 0.033233 0.419435 0.102118
H41   H     H_    0.866454 0.959097 0.583091 0.104396
H42   H     H_    0.813916 0.267754 0.532624 0.063084
H43   H     H_    0.376457 0.722406 0.465713 0.070947
H44   H     H_    0.975589 0.791776 0.177120 0.152615
H45   H     H_    0.840631 0.236707 0.398416 -0.005457
H46   H     H_    0.184967 0.864466 0.185532 0.114577
H47   H     H_    0.355782 0.762862 0.604573 0.008171
H48   H     H_    0.142096 0.757483 0.574187 0.077420
H49   H     H_    0.753620 0.320411 0.202331 0.295438
H50   H     H_    0.490114 0.770573 0.869579 0.285037
H51   H     H_    0.055428 0.244146 0.426643 0.071086
H52   H     H_    0.850436 0.057361 0.321651 0.120709
H53   H     H_    0.908646 0.055604 0.414365 0.082621
H54   H     H_    0.066454 0.066686 0.349256 0.139368
O1    O     O_2   0.873090 0.425890 0.325140 -0.440872
O2    O     O_2   0.198310 0.121425 0.552341 -0.482488
O3    O     O_3   0.110266 0.154436 0.685595 -0.597158
O4    O     O_3   0.122420 0.434370 0.414380 -0.509725
O5    O     O_3   0.578370 0.633800 0.536380 -0.487731
O6    O     O_2   0.341510 0.231850 0.465510 -0.469190
O7    O     O_3   0.502026 0.187949 0.346149 -0.647055
O8    O     O_2   0.415749 0.453949 0.756233 -0.489663
O9    O     O_3   0.480297 0.256342 0.745207 -0.597561
O10   O     O_3   0.659500 0.627100 0.368810 -0.472047
O11   O     O_2   0.774111 0.545131 0.243439 -0.510450
O12   O     O_3   0.692757 0.794337 0.650066 -0.643506
O13   O     O_3   0.003213 0.252822 0.318958 -0.582997
O14   O     O_3   0.705444 0.740891 0.252830 -0.597467
O15   O     O_2   0.848200 0.768190 0.534530 -0.472757
O16   O     O_3   0.081160 0.685950 0.404810 -0.491646
O17   O     O_2   0.998599 0.879219 0.450062 -0.484914
O18   O     O_3   0.869049 0.305672 0.198356 -0.704075
O19   O     O_3   0.558784 0.728815 0.894838 -0.747137
O20   O     O_3   0.083582 0.846951 0.315894 -0.598345
O21   O     O_2   0.316610 0.574140 0.674900 -0.465145
O22   O     O_3   0.067290 0.565720 0.585630 -0.497764
O23   O     O_3   0.530210 0.372990 0.631200 -0.466697
O24   O     O_3   0.187106 0.747115 0.682190 -0.642911
O25   O     O_3   0.611340 0.366290 0.463630 -0.479353
O26   O     O_3   0.108550 0.314140 0.595200 -0.485299
P1    P     P_3+3 0.041040 0.394770 0.336330 1.037001
P2    P     P_3+3 0.672880 0.754030 0.556100 0.971441
P3    P     P_3+3 0.125583 0.823849 0.403302 0.948982
P4    P     P_3+3 0.148670 0.605320 0.663680 0.968634
P5    P     P_3+3 0.067599 0.175227 0.597692 0.952551
P6    P     P_3+3 0.641625 0.612734 0.274907 0.941741
P7    P     P_3+3 0.522348 0.229867 0.440013 0.935349
P8    P     P_3+3 0.546393 0.385066 0.724497 0.959196

loop_
_geom_bond_atom_site_label_1
_geom_bond_atom_site_label_2
_ccdc_geom_bond_type
C14   H32   S    
C16   H17   S    
Ba1   O16   S    
O10   P6    S    
C35   H39   S    
Ba2   O6    S    
C5    C6    A    
C52   H7    S    
C51   C52   S    
O13   P1    S    
C45   O3    S    
C12   H1    S    
C40   H23   S    
O21   P4    D    
Ba2   O22   S    
O25   P7    S    
C33   C35   A    
C22   C24   A    
C45   H18   S    
C7    C56   A    
O26   P5    S    
C19   C31   A    
C52   H5    S    
C50   H54   S    
C49   H45   S    
C13   C14   A    
C20   C36   A    
O8    P8    D    
C40   H12   S    
C54   C55   S    
Ba1   Ba2   S    
C16   H44   S    
C1    H16   S    
C7    C11   A    
Ba1   O10   S    
H50   O19   S    
O24   P4    S    
C31   C33   A    
C38   H43   S    
C3    H30   S    
C9    C13   A    
Ba2   O5    S    
C38   C41   A    
C6    C7    A    
O11   P6    D    
C36   P1    S    
O1    P1    D    
Ba1   O4    S    
O16   P3    S    
C40   H34   S    
Ba1   P1    S    
C34   H13   S    
C33   P6    S    
O4    P1    S    
C49   H51   S    
C19   C20   A    
C28   H48   S    
C39   C41   A    
C23   H10   S    
Ba1   O1    S    
H49   O18   S    
C23   O7    S    
C51   H2    S    
C44   C46   A    
C12   H8    S    
C4    C16   S    
O3    P5    S    
Ba2   O21   S    
C49   C50   S    
C49   O13   S    
C26   C30   A    
C32   H37   S    
C4    O20   S    
C8    C9    A    
C3    C5    A    
C2    C21   A    
C14   C15   A    
Ba1   O5    S    
C18   C26   A    
C50   H53   S    
C43   C44   A    
C39   H40   S    
C55   H29   S    
C21   O18   S    
C15   P4    S    
C30   C32   A    
Ba2   O26   S    
C35   C36   A    
O22   P4    S    
C53   H21   S    
C29   C30   A    
C50   H52   S    
C39   C44   A    
O23   P8    S    
C46   P7    S    
C31   C32   A    
C48   H41   S    
C55   H26   S    
C16   H46   S    
C10   C11   A    
Ba1   P2    S    
C1    C12   S    
C37   C47   A    
C8    H33   S    
C4    H38   S    
C28   H47   S    
C24   C25   A    
Ba2   P4    S    
C41   P3    S    
O5    P2    S    
C23   H11   S    
O15   P2    D    
C45   H19   S    
C51   H3    S    
Ba1   O22   S    
Ba1   O25   S    
C42   C43   A    
C54   H25   S    
C45   C53   S    
C1    H4    S    
O20   P3    S    
C53   H20   S    
O9    P8    S    
Ba2   O25   S    
C28   C40   S    
O12   P2    S    
O6    P7    D    
C1    H9    S    
Ba1   O15   S    
C2    C3    A    
C51   O12   S    
C4    H28   S    
C13   P8    S    
C9    C10   A    
C54   H24   S    
O7    P7    S    
C29   H36   S    
C28   O24   S    
Ba2   O23   S    
C12   O14   S    
O2    P5    D    
C17   C22   A    
C27   C29   A    
C22   H35   S    
C54   O9    S    
C53   H22   S    
C37   H42   S    
C27   O19   S    
C52   H6    S    
C43   C48   A    
C47   P5    S    
C10   C17   A    
O14   P6    S    
C15   C17   A    
C55   H27   S    
C42   P2    S    
Ba2   O4    S    
C34   H15   S    
C23   C34   S    
C38   C42   A    
O17   P3    D    
C18   C19   A    
C24   C27   A    
C6    C8    A    
C47   C48   A    
C2    C56   A    
C25   C26   A    
C20   C21   A    
C11   C25   A    
C18   C56   A    
C34   H14   S    
C37   C46   A    
C5    H31   S    
