data_mof_unit_20419.cif
_audit_creation_date              2012-12-11T17:11:09-0500
_audit_creation_method            fapswitch 2.2
_symmetry_space_group_name_H-M    P1
_symmetry_Int_Tables_number       1
_space_group_crystal_system       triclinic
_cell_length_a                    8.377155
_cell_length_b                    16.588954
_cell_length_c                    16.362091
_cell_angle_alpha                 107.502981
_cell_angle_beta                  91.989056
_cell_angle_gamma                 82.724365
_cell_volume                      2151.06254412

loop_
_atom_site_label
_atom_site_type_symbol
_atom_type_description
_atom_site_fract_x
_atom_site_fract_y
_atom_site_fract_z
_atom_type_partial_charge
Ba1   Ba    Ba6+2 0.642070 0.542310 0.469620 1.729385
Ba2   Ba    Ba6+2 0.168110 0.457680 0.530320 1.716907
C1    C     C_3   0.881306 0.838457 0.244810 -0.281425
C2    C     C_3   0.896973 0.784681 0.307266 0.282695
C3    C     C_3   0.932004 0.722168 0.707301 0.237130
C4    C     C_3   0.908763 0.818074 0.751383 -0.231737
C5    C     C_3   0.466877 0.221302 0.669265 0.249854
C6    C     C_3   0.417353 0.135965 0.671463 -0.280320
C7    C     C_3   0.014118 0.283786 0.719181 0.285159
C8    C     C_3   0.995958 0.266748 0.805256 -0.225646
C9    C     C_2   0.724168 0.245674 0.466538 -0.263362
C10   C     C_R   0.098824 0.752862 0.529652 -0.310509
C11   C     C_2   0.523375 0.145968 0.427909 -0.048919
C12   C     C_3   0.365640 0.763119 0.326056 0.204445
C13   C     C_2   0.563590 0.223294 0.433392 0.032061
C14   C     C_2   0.835701 0.189605 0.489262 0.007485
C15   C     C_3   0.806756 0.096676 0.466602 0.024781
C16   C     C_3   0.626757 0.086996 0.468224 0.015660
C17   C     C_2   0.915683 0.040840 0.509870 -0.014664
C18   C     C_2   0.883150 0.963083 0.509275 -0.084157
C19   C     C_R   0.143906 0.923972 0.577919 0.119420
C20   C     C_R   0.001850 0.899322 0.534188 -0.024795
C21   C     C_R   0.260921 0.864402 0.597618 -0.113908
C22   C     C_R   0.240101 0.777992 0.572341 0.010601
C23   C     C_3   0.326054 0.851891 0.313645 -0.254443
C24   C     C_R   0.978116 0.812260 0.511263 -0.046506
C25   C     C_R   0.141821 0.500639 0.259680 -0.220976
C26   C     C_R   0.996631 0.470421 0.230373 0.021474
C27   C     C_R   0.944241 0.466485 0.147356 -0.076973
C28   C     C_R   0.037194 0.495096 0.093371 0.258233
C29   C     C_R   0.182320 0.528106 0.125799 -0.166104
C30   C     C_R   0.231905 0.533154 0.210411 -0.027899
C31   C     C_R   0.879431 0.509465 0.853908 -0.148902
C32   C     C_R   0.825566 0.509737 0.772473 0.002970
C33   C     C_R   0.797004 0.470831 0.903202 0.271836
C34   C     C_3   0.426623 0.339010 0.248186 0.266647
C35   C     C_R   0.689464 0.471697 0.738627 -0.257333
C36   C     C_R   0.602191 0.434204 0.785073 -0.077799
C37   C     C_R   0.654815 0.433347 0.868669 -0.137972
C38   C     C_3   0.536536 0.309124 0.169212 -0.211879
C39   C     C_3   0.465780 0.648410 0.737252 0.288806
C40   C     C_3   0.477000 0.671229 0.834442 -0.339748
C41   C     C_3   0.025640 0.273690 0.251061 0.233048
C42   C     C_3   0.050715 0.248050 0.154017 -0.383461
H1    H     H_    0.569855 0.365322 0.153224 0.056709
H2    H     H_    0.647949 0.271884 0.183035 0.162549
H3    H     H_    0.394210 0.594018 0.713835 0.063407
H4    H     H_    0.529955 0.615358 0.854167 0.048863
H5    H     H_    0.122351 0.309385 0.285146 0.012569
H6    H     H_    0.784792 0.818871 0.197585 0.116289
H7    H     H_    0.947268 0.216860 0.120042 0.167292
H8    H     H_    0.162438 0.202999 0.135244 0.117620
H9    H     H_    0.004552 0.799879 0.347495 -0.113781
H10   H     H_    0.994163 0.826442 0.206991 0.070869
H11   H     H_    0.060868 0.703218 0.689121 -0.001428
H12   H     H_    0.980438 0.832888 0.811421 0.154076
H13   H     H_    0.194112 0.865955 0.309415 0.099192
H14   H     H_    0.286000 0.136165 0.665646 0.147334
H15   H     H_    0.471899 0.082982 0.616868 0.102750
H16   H     H_    0.908421 0.328492 0.712420 -0.001278
H17   H     H_    0.121632 0.315669 0.720223 0.103638
H18   H     H_    0.875223 0.247384 0.809528 0.159294
H19   H     H_    0.490402 0.755320 0.349407 0.119486
H20   H     H_    0.409078 0.127532 0.400385 0.137654
H21   H     H_    0.367426 0.885839 0.632451 0.094528
H22   H     H_    0.034066 0.058297 0.530197 0.149845
H23   H     H_    0.768132 0.944026 0.484249 0.095000
H24   H     H_    0.250819 0.554433 0.087238 0.102453
H25   H     H_    0.832075 0.441235 0.125698 0.132564
H26   H     H_    0.281715 0.758907 0.375423 0.026553
H27   H     H_    0.188112 0.496321 0.320674 0.108898
H28   H     H_    0.645048 0.475774 0.677285 0.121936
H29   H     H_    0.466826 0.396010 0.294241 0.075248
N1    N     N_2   0.985970 0.495422 0.008871 -0.239062
N2    N     N_2   0.851163 0.470531 0.987442 -0.177451
O1    O     O_2   0.554430 0.712240 0.583340 -0.472785
O2    O     O_3   0.874376 0.321404 0.273592 -0.633582
O3    O     O_3   0.348535 0.698855 0.248387 -0.610535
O4    O     O_2   0.255890 0.287710 0.416620 -0.503765
O5    O     O_3   0.472550 0.396030 0.437270 -0.469444
O6    O     O_3   0.997190 0.341000 0.573500 -0.483029
O7    O     O_3   0.418643 0.271262 0.282178 -0.628465
O8    O     O_3   0.856110 0.544300 0.605450 -0.457025
O9    O     O_3   0.397490 0.384750 0.623120 -0.462652
O10   O     O_2   0.268633 0.443640 0.779492 -0.504665
O11   O     O_3   0.405276 0.286674 0.742411 -0.654432
O12   O     O_3   0.337760 0.603960 0.562660 -0.488137
O13   O     O_3   0.954190 0.455690 0.394480 -0.465813
O14   O     O_2   0.106750 0.542200 0.705290 -0.461545
O15   O     O_3   0.890506 0.679458 0.763996 -0.632871
O16   O     O_2   0.174299 0.191678 0.506096 -0.494254
O17   O     O_3   0.024869 0.207574 0.650858 -0.592063
O18   O     O_3   0.813110 0.658990 0.426440 -0.422938
O19   O     O_2   0.644228 0.808140 0.506863 -0.514468
O20   O     O_3   0.391070 0.719697 0.716166 -0.629241
O21   O     O_3   0.756263 0.800513 0.357532 -0.624174
O22   O     O_2   0.703570 0.457750 0.294670 -0.467319
O23   O     O_3   0.412810 0.615240 0.376810 -0.448471
O24   O     O_2   0.556093 0.563164 0.221735 -0.420531
P1    P     P_3+3 0.385820 0.698700 0.604730 0.989412
P2    P     P_3+3 0.884390 0.431600 0.301750 1.015963
P3    P     P_3+3 0.390169 0.598530 0.265178 1.026387
P4    P     P_3+3 0.424480 0.301290 0.395200 1.000494
P5    P     P_3+3 0.419642 0.388355 0.731796 0.905800
P6    P     P_3+3 0.797592 0.770834 0.451685 0.962143
P7    P     P_3+3 0.918923 0.569388 0.713112 0.963955
P8    P     P_3+3 0.012493 0.230865 0.552664 0.968133
C43   C     C_2   0.922992 0.693765 0.253779 0.529938
H30   H     H_    0.030065 0.672026 0.214872 -0.061573
O25   O     O_2   0.822229 0.645961 0.250256 -0.538009
C44   C     C_2   0.454809 0.255624 0.092706 0.595736
H31   H     H_    0.349726 0.283593 0.065711 -0.039607
O26   O     O_2   0.506572 0.180992 0.059841 -0.509451
H32   H     H_    0.588462 0.630562 0.709607 0.007881
H33   H     H_    0.553700 0.723246 0.859169 0.168445
H34   H     H_    0.354987 0.692565 0.863273 0.138602
C45   C     C_2   0.033895 0.193742 0.277252 0.546285
H35   H     H_    0.149875 0.157420 0.280650 0.004343
O27   O     O_2   0.911878 0.167871 0.292942 -0.578373
H36   H     H_    0.062749 0.304260 0.132826 0.063411
H37   H     H_    0.854379 0.708312 0.649471 -0.002068
H38   H     H_    0.953493 0.851241 0.708676 0.000696
C46   C     C_2   0.734263 0.850030 0.770389 0.591364
H39   H     H_    0.648729 0.844801 0.718260 -0.006500
O28   O     O_2   0.687586 0.882382 0.844207 -0.519393
C47   C     C_2   0.851396 0.931807 0.289939 0.572991
H40   H     H_    0.943461 0.963148 0.331044 0.018030
O29   O     O_2   0.726090 0.973347 0.278772 -0.555922
H41   H     H_    0.416362 0.232581 0.609541 0.046611
C48   C     C_2   0.646575 0.216043 0.666604 0.489377
H42   H     H_    0.698339 0.266076 0.651317 -0.105943
O30   O     O_2   0.733909 0.156440 0.679763 -0.565947
H43   H     H_    0.456510 0.122797 0.732253 0.153014
H44   H     H_    0.004534 0.326401 0.857857 0.020231
C49   C     C_2   0.123792 0.200742 0.819502 0.578668
H45   H     H_    0.245599 0.215999 0.834101 0.018321
O31   O     O_2   0.091211 0.130274 0.816610 -0.521950
C50   C     C_2   0.760995 0.330840 0.472582 0.565324
H46   H     H_    0.843831 0.338853 0.427756 0.041955
O32   O     O_2   0.710101 0.391152 0.532863 -0.564275
C51   C     C_2   0.080641 0.662667 0.501426 0.568717
H47   H     H_    0.030695 0.632519 0.542933 0.004135
O33   O     O_2   0.121865 0.620514 0.429466 -0.604325
H48   H     H_    0.983935 0.541034 0.879078 0.118249
C52   C     C_2   0.560703 0.394185 0.919003 0.509361
H49   H     H_    0.438246 0.382114 0.901357 0.031051
O34   O     O_2   0.618431 0.374069 0.980628 -0.589137
C53   C     C_2   0.384058 0.919189 0.388461 0.406141
H50   H     H_    0.510284 0.916157 0.405476 0.061357
O35   O     O_2   0.290111 0.978443 0.430116 -0.596576
C54   C     C_2   0.399123 0.855889 0.232830 0.615810
H51   H     H_    0.526872 0.839663 0.222257 0.025209
O36   O     O_2   0.314905 0.876558 0.178298 -0.542012
H52   H     H_    0.305807 0.357917 0.226826 -0.123054

loop_
_geom_bond_atom_site_label_1
_geom_bond_atom_site_label_2
_ccdc_geom_bond_type
Ba1   O12   S    
O21   P6    S    
O6    P8    S    
O19   P6    D    
C47   H40   S    
C2    H9    S    
O3    P3    S    
C32   C35   A    
C39   C40   S    
C18   H23   S    
Ba2   O9    S    
C17   C18   D    
C39   H32   S    
O11   P5    S    
C45   O27   D    
C52   H49   S    
C1    C47   S    
C34   H52   S    
C49   H45   S    
C10   C51   S    
C38   H2    S    
C2    C43   S    
C33   N2    S    
C35   C36   A    
C11   C16   S    
C7    H17   S    
C26   C27   A    
C9    C50   S    
C53   O35   D    
C51   O33   D    
C6    H15   S    
C3    C4    S    
C28   N1    S    
C1    H10   S    
C46   O28   D    
C5    O11   S    
C42   H36   S    
C3    H37   S    
C43   H30   S    
C7    O17   S    
C17   H22   S    
Ba1   Ba2   S    
C5    C48   S    
C36   P5    S    
Ba2   O4    S    
C14   P8    S    
C6    H14   S    
C2    O21   S    
C9    C13   S    
C26   P2    S    
C44   H31   S    
C34   O7    S    
C14   C15   S    
O14   P7    D    
O7    P4    S    
Ba2   O13   S    
C7    C8    S    
C3    O15   S    
O18   P6    S    
C42   H8    S    
Ba1   O13   S    
C54   O36   D    
C6    H43   S    
C54   H51   S    
C19   C20   A    
C12   H26   S    
O4    P4    D    
Ba2   O8    S    
C8    H18   S    
C23   H13   S    
C4    C46   S    
Ba1   P1    S    
C24   P6    S    
C52   O34   D    
C1    H6    S    
C31   C32   A    
C38   C44   S    
C27   H25   S    
C31   H48   S    
C29   H24   S    
N1    N2    D    
O5    P4    S    
C32   P7    S    
O16   P8    D    
O1    P1    D    
C46   H39   S    
C36   C37   A    
C8    C49   S    
O15   P7    S    
C50   H46   S    
Ba1   O22   S    
O20   P1    S    
C41   H5    S    
O23   P3    S    
C10   C24   A    
Ba2   O14   S    
C48   O30   D    
C41   C42   S    
C27   C28   A    
C9    C14   D    
O17   P8    S    
C29   C30   A    
C34   C38   S    
C28   C29   A    
C21   C22   A    
C37   C52   S    
C15   C16   S    
C39   H3    S    
Ba2   O12   S    
C44   O26   D    
C40   H4    S    
C53   H50   S    
O10   P5    D    
C50   O32   D    
C41   C45   S    
C42   H7    S    
C40   H34   S    
C18   C20   S    
C19   C21   A    
O9    P5    S    
C30   P3    S    
C41   O2    S    
C4    H38   S    
C15   C17   S    
C1    C2    S    
Ba1   P2    S    
C25   H27   S    
O12   P1    S    
C49   O31   D    
C47   O29   D    
C25   C30   A    
C22   P1    S    
Ba1   O1    S    
C3    H11   S    
O13   P2    S    
C8    H44   S    
C4    H12   S    
Ba1   O23   S    
Ba1   O8    S    
C10   C22   A    
O8    P7    S    
C23   C54   S    
C7    H16   S    
C21   H21   S    
Ba2   O5    S    
C11   C13   D    
C48   H42   S    
C45   H35   S    
C39   O20   S    
C11   H20   S    
Ba2   P4    S    
C33   C37   A    
C31   C33   A    
C43   O25   D    
O2    P2    S    
C23   C53   S    
C12   H19   S    
C12   O3    S    
C12   C23   S    
C5    H41   S    
C5    C6    S    
C34   H29   S    
C40   H33   S    
O24   P3    D    
C38   H1    S    
Ba1   O18   S    
C20   C24   A    
C35   H28   S    
C25   C26   A    
Ba1   O5    S    
Ba2   O6    S    
C13   P4    S    
C51   H47   S    
O22   P2    D    
