data_mof_unit_29601.cif
_audit_creation_date              2012-12-10T19:47:23-0500
_audit_creation_method            fapswitch 2.2
_symmetry_space_group_name_H-M    P1
_symmetry_Int_Tables_number       1
_space_group_crystal_system       triclinic
_cell_length_a                    10.954639
_cell_length_b                    10.936588
_cell_length_c                    12.706576
_cell_angle_alpha                 91.658558
_cell_angle_beta                  91.627145
_cell_angle_gamma                 90.165636
_cell_volume                      1521.06693351

loop_
_atom_site_label
_atom_site_type_symbol
_atom_type_description
_atom_site_fract_x
_atom_site_fract_y
_atom_site_fract_z
_atom_type_partial_charge
C1    C     C_R   0.262091 0.494725 0.501829 0.879544
C2    C     C_R   0.738315 0.497902 0.498878 0.871902
C3    C     C_R   0.497921 0.871694 0.496809 -0.281312
C4    C     C_R   0.495565 0.128239 0.502841 -0.279744
C5    C     C_R   0.473018 0.935423 0.403584 -0.021308
C6    C     C_R   0.517593 0.064216 0.596128 -0.022401
C7    C     C_R   0.199613 0.440353 0.866236 -0.326092
C8    C     C_R   0.827238 0.505171 0.125471 -0.324868
C9    C     C_R   0.163435 0.425056 0.760509 0.664906
C10   C     C_R   0.876843 0.529530 0.226377 0.767208
C11   C     C_R   0.127839 0.526927 0.702377 -0.056830
C12   C     C_R   0.873608 0.439362 0.302850 -0.055933
C13   C     C_R   0.133658 0.644328 0.749825 -0.210006
C14   C     C_R   0.819756 0.325341 0.277548 -0.299292
C15   C     C_R   0.171763 0.659341 0.855288 0.707019
C16   C     C_R   0.770670 0.301279 0.176419 0.748705
C17   C     C_R   0.203178 0.557157 0.913786 -0.303746
C18   C     C_R   0.775015 0.391056 0.100353 -0.309318
C19   C     C_R   0.938412 0.508692 0.596048 0.437454
C20   C     C_R   0.062592 0.451395 0.410873 0.484874
C21   C     C_R   0.872275 0.490504 0.499254 -0.233743
C22   C     C_R   0.128788 0.484115 0.504646 -0.212700
C23   C     C_R   0.498183 0.261871 0.501513 0.871757
C24   C     C_R   0.499443 0.738110 0.498445 0.918794
C25   C     C_R   0.935581 0.461007 0.406621 -0.060416
C26   C     C_R   0.065772 0.508014 0.598306 -0.050943
C27   C     C_2   0.470202 0.464354 0.031839 -0.300191
C28   C     C_2   0.534825 0.535821 0.968384 -0.291830
C29   C     C_1   0.525475 0.525679 0.852664 0.253157
C30   C     C_1   0.476866 0.474607 0.147393 0.273773
C31   C     C_R   0.668292 0.181643 0.849602 0.577920
C32   C     C_R   0.303362 0.776082 0.174972 0.647154
C33   C     C_R   0.652233 0.145322 0.743733 0.517274
C34   C     C_R   0.330415 0.824784 0.275963 0.517960
C35   C     C_R   0.534168 0.123533 0.701284 -0.139323
C36   C     C_R   0.446767 0.874394 0.299977 -0.162755
C37   C     C_R   0.432610 0.139464 0.765229 0.682268
C38   C     C_R   0.535347 0.874670 0.222065 0.693485
C39   C     C_R   0.449217 0.176144 0.870747 -0.311250
C40   C     C_R   0.507451 0.826544 0.121250 -0.308140
C41   C     C_R   0.566784 0.196481 0.913003 -0.374425
C42   C     C_R   0.391630 0.777818 0.097639 -0.390141
C43   C     C_R   0.520542 0.937499 0.592161 0.632550
C44   C     C_R   0.471908 0.062490 0.407388 0.620864
Cu1   Cu    Cu3+1 0.492140 0.492110 0.395880 1.051863
Cu2   Cu    Cu3+1 0.507860 0.507890 0.604120 1.049232
H1    H     H_    0.578606 0.222133 0.995313 0.258377
H2    H     H_    0.370793 0.741623 0.019189 0.248495
H3    H     H_    0.104353 0.723193 0.706210 0.218542
H4    H     H_    0.817742 0.254873 0.335664 0.196877
H5    H     H_    0.596450 0.604400 0.003342 0.183033
H6    H     H_    0.409853 0.395132 0.997018 0.171645
H7    H     H_    0.371135 0.185723 0.920564 0.215791
H8    H     H_    0.575331 0.827942 0.061037 0.231772
H9    H     H_    0.228833 0.567882 0.996289 0.231907
H10   H     H_    0.738001 0.373002 0.021825 0.215246
H11   H     H_    0.221182 0.361119 0.912061 0.200707
H12   H     H_    0.830260 0.574290 0.066319 0.213476
N1    N     N_1   0.480320 0.480250 0.239400 -0.156239
N2    N     N_1   0.519680 0.519750 0.760600 -0.162847
O1    O     O_R   0.313000 0.493330 0.412070 -0.524555
O2    O     O_R   0.687000 0.506670 0.587930 -0.541335
O3    O     O_R   0.326280 0.506660 0.587930 -0.596186
O4    O     O_R   0.673720 0.493340 0.412070 -0.601237
O5    O     O_R   0.493370 0.312980 0.412070 -0.519865
O6    O     O_R   0.506630 0.687020 0.587930 -0.501668
O7    O     O_R   0.506650 0.326310 0.587930 -0.614855
O8    O     O_R   0.493350 0.673690 0.412070 -0.611788
F1    F     F_    0.173531 0.772506 0.901745 -0.583528
F2    F     F_    0.720730 0.190174 0.152016 -0.577502
O9    O     O_3   0.879075 0.537223 0.688795 -0.563760
C45   C     C_3   0.862215 0.430258 0.747113 -0.103864
H13   H     H_    0.924334 0.432841 0.817545 0.179761
H14   H     H_    0.875453 0.342652 0.701689 0.205364
H15   H     H_    0.767793 0.429804 0.776229 0.168050
O10   O     O_3   0.121679 0.415136 0.320107 -0.549180
C46   C     C_3   0.145125 0.288432 0.323971 -0.150310
H16   H     H_    0.059019 0.234679 0.326581 0.163607
H17   H     H_    0.206160 0.266278 0.392246 0.162624
H18   H     H_    0.192368 0.259495 0.251366 0.218040
F3    F     F_    0.782524 0.198000 0.891591 -0.602417
F4    F     F_    0.190930 0.728860 0.151646 -0.546454
F5    F     F_    0.751358 0.125915 0.683804 -0.605839
F6    F     F_    0.243278 0.825260 0.349848 -0.589026
F7    F     F_    0.318406 0.113564 0.726578 -0.564334
F8    F     F_    0.647828 0.923205 0.243446 -0.561715
F9    F     F_    0.546079 0.879289 0.683509 -0.612832
F10   F     F_    0.444568 0.121075 0.316614 -0.629604
F11   F     F_    0.154513 0.310616 0.716781 -0.598912
F12   F     F_    0.929466 0.639987 0.249255 -0.556418

loop_
_geom_bond_atom_site_label_1
_geom_bond_atom_site_label_2
_ccdc_geom_bond_type
C19   O9    S    
C39   C41   A    
C14   H4    S    
Cu1   Cu2   S    
C3    C43   A    
C38   F8    S    
C37   F7    S    
C28   C29   S    
C19   C21   A    
Cu2   O6    S    
C28   H5    S    
C20   C25   A    
C5    C36   S    
C6    C35   S    
C20   O10   S    
C7    C9    A    
C23   O7    A    
C19   C26   A    
C8    H12   S    
C7    C17   A    
C31   C33   A    
C17   H9    S    
C18   H10   S    
C40   C42   A    
C1    C22   S    
C27   C30   S    
C3    C24   S    
C34   F6    S    
C2    C21   S    
C45   H15   S    
C1    O3    A    
C2    O4    A    
C46   H17   S    
C15   F1    S    
C16   F2    S    
O10   C46   S    
C4    C6    A    
C9    F11   S    
C4    C23   S    
C4    C44   A    
C11   C26   S    
C46   H16   S    
C8    C18   A    
C32   C34   A    
C33   F5    S    
C29   N2    T    
C30   N1    T    
Cu1   O8    S    
C41   H1    S    
C16   C18   A    
C42   H2    S    
C9    C11   A    
C10   C12   A    
C13   H3    S    
C45   H14   S    
C5    C44   A    
Cu2   O2    S    
C40   H8    S    
C6    C43   A    
C13   C15   A    
Cu1   O5    S    
C14   C16   A    
C27   H6    S    
C35   C37   A    
C46   H18   S    
C15   C17   A    
C21   C25   A    
Cu1   N1    S    
C31   C41   A    
Cu2   N2    S    
C20   C22   A    
C45   H13   S    
C3    C5    A    
C1    O1    A    
C24   O6    A    
C32   F4    S    
Cu2   O3    S    
Cu1   O4    S    
C31   F3    S    
C12   C25   S    
C43   F9    S    
C23   O5    A    
C36   C38   A    
C12   C14   A    
Cu2   O7    S    
C37   C39   A    
C38   C40   A    
C11   C13   A    
C39   H7    S    
Cu1   O1    S    
C33   C35   A    
C34   C36   A    
C24   O8    A    
O9    C45   S    
C10   F12   S    
C8    C10   A    
C22   C26   A    
C27   C28   D    
C32   C42   A    
C44   F10   S    
C7    H11   S    
C2    O2    A    
