data_mof_unit_67671.cif
_audit_creation_date              2013-03-05T16:48:40-0500
_audit_creation_method            fapswitch 2.2
_symmetry_space_group_name_H-M    P1
_symmetry_Int_Tables_number       1
_space_group_crystal_system       triclinic
_cell_length_a                    11.178419
_cell_length_b                    11.02165
_cell_length_c                    10.632681
_cell_angle_alpha                 89.290528
_cell_angle_beta                  91.221432
_cell_angle_gamma                 89.020874
_cell_volume                      1309.40008608

loop_
_atom_site_label
_atom_site_type_symbol
_atom_site_description
_atom_site_fract_x
_atom_site_fract_y
_atom_site_fract_z
_atom_type_partial_charge
O1    O     O_R   0.499990 0.319650 0.605810 -0.596954
O2    O     O_R   0.500010 0.680350 0.394190 -0.603678
O3    O     O_R   0.499990 0.319640 0.394190 -0.574251
O4    O     O_R   0.500010 0.680360 0.605810 -0.570119
C1    C     C_R   0.499328 0.261560 0.499725 0.825180
C2    C     C_R   0.497996 0.737886 0.500528 0.823040
O5    O     O_R   0.319640 0.500010 0.605810 -0.555643
O6    O     O_R   0.680360 0.499990 0.394190 -0.521692
O7    O     O_R   0.319650 0.500010 0.394190 -0.571493
O8    O     O_R   0.680350 0.499990 0.605810 -0.577475
C3    C     C_R   0.261768 0.495955 0.499616 0.868665
C4    C     C_R   0.738178 0.506073 0.499994 0.870931
Cu1   Cu    Cu3+1 0.500000 0.500000 0.625300 1.013062
Cu2   Cu    Cu3+1 0.500000 0.500000 0.374700 1.026319
H1    H     H_    0.287892 0.216705 0.042266 0.164712
H2    H     H_    0.724547 0.822972 0.936155 0.174009
C5    C     C_R   0.223002 0.392999 0.094162 -0.205639
C6    C     C_R   0.778881 0.640685 0.894598 -0.221256
H3    H     H_    0.256250 0.438005 0.011717 0.182369
H4    H     H_    0.740170 0.601846 0.977779 0.171936
C7    C     C_R   0.157645 0.459874 0.180253 -0.122089
C8    C     C_R   0.838555 0.565878 0.811008 -0.138372
H5    H     H_    0.143155 0.556283 0.164390 0.145017
H6    H     H_    0.843540 0.469359 0.828262 0.143221
C9    C     C_R   0.116606 0.403080 0.289182 0.056643
C10   C     C_R   0.885684 0.615044 0.701312 0.062753
C11   C     C_R   0.140837 0.278302 0.310693 0.211835
C12   C     C_R   0.870317 0.740244 0.674016 0.213565
C13   C     C_R   0.201718 0.210609 0.221355 0.289352
C14   C     C_R   0.813550 0.815363 0.760297 0.271022
C15   C     C_R   0.244090 0.268620 0.113733 -0.258196
C16   C     C_R   0.768494 0.765167 0.870232 -0.231375
C17   C     C_R   0.935851 0.494185 0.385326 0.504707
C18   C     C_R   0.063611 0.511386 0.612751 0.502359
C19   C     C_R   0.872517 0.511427 0.497681 -0.221068
C20   C     C_R   0.127339 0.493806 0.500318 -0.220619
C21   C     C_R   0.939391 0.535304 0.607319 -0.107774
C22   C     C_R   0.060916 0.474540 0.389055 -0.121084
H7    H     H_    0.608018 0.278751 0.947115 0.157044
H8    H     H_    0.370801 0.724560 0.055926 0.161921
C23   C     C_R   0.514992 0.139272 0.041622 -0.230726
C24   C     C_R   0.484051 0.844099 0.955469 -0.244127
H9    H     H_    0.462374 0.116887 0.958925 0.168029
H10   H     H_    0.542434 0.858129 0.036105 0.163470
C25   C     C_R   0.496411 0.080027 0.155457 -0.200020
C26   C     C_R   0.505360 0.902187 0.841392 -0.209144
H11   H     H_    0.432895 0.007922 0.157318 0.207732
H12   H     H_    0.578760 0.963876 0.836467 0.203580
C27   C     C_R   0.559297 0.112893 0.265279 -0.025539
C28   C     C_R   0.433214 0.881239 0.734782 -0.005298
C29   C     C_R   0.653867 0.194147 0.255131 0.249230
C30   C     C_R   0.331627 0.807918 0.746787 0.212732
C31   C     C_R   0.668681 0.258186 0.141824 0.523895
C32   C     C_R   0.308998 0.751491 0.864199 0.529022
C33   C     C_R   0.597838 0.230823 0.035383 -0.270571
C34   C     C_R   0.387415 0.768122 0.966324 -0.225620
C35   C     C_R   0.521664 0.932763 0.393311 -0.179473
C36   C     C_R   0.470172 0.065132 0.608118 -0.178128
H13   H     H_    0.541920 0.881497 0.310045 0.141403
H14   H     H_    0.447951 0.115823 0.691490 0.139564
C37   C     C_R   0.493711 0.871332 0.503354 -0.025752
C38   C     C_R   0.500191 0.127032 0.497761 -0.027761
C39   C     C_R   0.465710 0.938484 0.612872 0.111652
C40   C     C_R   0.526768 0.058671 0.388121 0.121763
N1    N     N_1   0.500010 0.499990 0.186410 -0.144284
N2    N     N_1   0.499990 0.500010 0.813590 -0.152843
C41   C     C_1   0.500032 0.500620 0.072528 0.087481
C42   C     C_1   0.499934 0.500476 0.927440 0.060873
Br1   Br    Br    0.766315 0.212325 0.393118 -0.431804
Br2   Br    Br    0.225280 0.789332 0.604630 -0.443259
O9    O     O_3   0.750248 0.349946 0.138304 -0.550617
C43   C     C_3   0.841188 0.321612 0.053378 0.061766
H15   H     H_    0.894488 0.404886 0.043833 0.152763
H16   H     H_    0.805943 0.301763 0.957971 0.118532
C44   C     C_3   0.925465 0.220686 0.104424 -0.327188
H17   H     H_    0.014476 0.234790 0.065939 0.186362
H18   H     H_    0.933792 0.227321 0.207548 0.294627
C45   C     C_3   0.888782 0.092703 0.069955 -0.834421
H19   H     H_    0.796512 0.071922 0.096315 0.261078
H20   H     H_    0.949276 0.028477 0.122114 0.285779
H21   H     H_    0.897688 0.077680 0.968027 0.274769
O10   O     O_3   0.213226 0.676768 0.882825 -0.588151
C46   C     C_3   0.104861 0.744312 0.891324 0.095023
H22   H     H_    0.037045 0.679561 0.924139 0.148612
H23   H     H_    0.072931 0.776364 0.797715 0.213766
C47   C     C_3   0.106629 0.849719 0.985183 -0.421631
H24   H     H_    0.015902 0.858929 0.023051 0.200078
H25   H     H_    0.168230 0.828872 0.066048 0.258485
C48   C     C_3   0.136889 0.971194 0.922597 -0.788688
H26   H     H_    0.232627 0.976061 0.898977 0.246469
H27   H     H_    0.119075 0.046143 0.987870 0.266070
H28   H     H_    0.080827 0.986988 0.836286 0.278678
Br3   Br    Br    0.083961 0.196230 0.457292 -0.469759
Br4   Br    Br    0.927575 0.810499 0.520746 -0.447684
Br5   Br    Br    0.212582 0.037343 0.240029 -0.537278
Br6   Br    Br    0.797077 0.986515 0.729573 -0.555520
O11   O     O_3   0.877565 0.506907 0.270149 -0.550048
C49   C     C_3   0.893368 0.626767 0.223370 0.041264
H29   H     H_    0.911219 0.620907 0.121464 0.134848
H30   H     H_    0.972257 0.673986 0.265165 0.163067
C50   C     C_3   0.779840 0.704309 0.241131 -0.267654
H31   H     H_    0.704394 0.665986 0.185874 0.220268
H32   H     H_    0.755273 0.705065 0.341391 0.237610
C51   C     C_3   0.798283 0.835191 0.200421 -0.926682
H33   H     H_    0.859132 0.881248 0.267416 0.330340
H34   H     H_    0.711706 0.885368 0.195730 0.246174
H35   H     H_    0.838042 0.838220 0.106761 0.240707
O12   O     O_3   0.120101 0.502610 0.729483 -0.552895
C52   C     C_3   0.160480 0.381016 0.752979 0.155548
H36   H     H_    0.245403 0.385302 0.808322 0.144607
H37   H     H_    0.184076 0.328413 0.668129 0.146113
C53   C     C_3   0.071122 0.310867 0.829802 -0.506362
H38   H     H_    0.120994 0.241116 0.886477 0.195462
H39   H     H_    0.026759 0.374578 0.893829 0.228434
C54   C     C_3   0.979217 0.245381 0.748559 -0.682821
H40   H     H_    0.940296 0.304289 0.672946 0.277367
H41   H     H_    0.905107 0.214375 0.806567 0.248499
H42   H     H_    0.021351 0.163853 0.707295 0.307267

loop_
_geom_bond_atom_site_label_1
_geom_bond_atom_site_label_2
_geom_bond_distance
_ccdc_geom_bond_type
C36   C38   1.399892 A    
N2    C42   1.210614 T    
C50   H31   1.109982 S    
C11   C13   1.396379 A    
C18   C21   1.408799 A    
C44   H17   1.096688 S    
C27   C29   1.402149 A    
C51   H34   1.106314 S    
O11   C49   1.420999 S    
O5    C3    1.290938 A    
O1    C1    1.303833 A    
C2    C37   1.471454 S    
C3    C20   1.503471 S    
C19   C21   1.401496 A    
C52   H37   1.112438 S    
C17   C19   1.414778 A    
C45   H20   1.106286 S    
C35   H13   1.082086 S    
N1    C41   1.210806 T    
C36   H14   1.084704 S    
C54   H40   1.104402 S    
O12   C52   1.424227 S    
C12   Br4   1.922304 S    
C24   C26   1.391461 A    
O4    Cu1   1.996085 S    
C37   C39   1.425028 A    
H2    C16   1.074054 S    
C51   H33   1.108091 S    
C38   C40   1.429617 A    
C24   C34   1.383937 A    
H7    C33   1.080355 S    
C54   H41   1.099886 S    
C28   C30   1.412053 A    
C48   H27   1.103712 S    
C17   O11   1.379314 S    
C25   H11   1.074978 S    
C50   H32   1.106587 S    
C27   C40   1.484497 S    
Cu1   Cu2   2.664550 S    
C28   C39   1.489263 S    
C23   H9    1.080869 S    
O2    C2    1.303601 A    
C24   H10   1.080661 S    
C43   C44   1.531957 S    
C53   H39   1.103086 S    
C53   H38   1.106575 S    
C30   C32   1.417353 A    
C26   H12   1.076214 S    
Cu1   N2    2.002032 S    
C31   C33   1.406186 A    
C32   C34   1.396757 A    
C47   H25   1.109362 S    
C41   C42   1.542679 S    
C53   C54   1.524972 S    
O4    C2    1.279256 A    
C52   C53   1.519300 S    
C13   Br5   1.919036 S    
C45   H19   1.101677 S    
H8    C34   1.082562 S    
C47   C48   1.533878 S    
C5    C7    1.393471 A    
C29   C31   1.403022 A    
O7    Cu2   2.031039 S    
C9    C22   1.472306 S    
C44   H18   1.101889 S    
C46   H22   1.108753 S    
C25   C27   1.404664 A    
O6    C4    1.288463 A    
C54   H42   1.107193 S    
C48   H28   1.110416 S    
H1    C15   1.077778 S    
O7    C3    1.306847 A    
O3    Cu2   1.996086 S    
O8    C4    1.311049 A    
C43   H16   1.106152 S    
C46   H23   1.102127 S    
O10   C46   1.416063 S    
C50   C51   1.519629 S    
C49   H30   1.118347 S    
C7    H5    1.082726 S    
C5    C15   1.399262 A    
C8    H6    1.077562 S    
C11   Br3   1.918103 S    
C6    C16   1.395508 A    
C31   O9    1.373909 S    
C32   O10   1.377954 S    
C47   H24   1.102679 S    
C35   C40   1.390327 A    
C36   C39   1.397943 A    
C7    C9    1.399366 A    
O6    Cu2   2.022361 S    
C6    C8    1.392600 A    
C43   H15   1.107532 S    
O3    C1    1.285189 A    
O8    Cu1   2.031037 S    
C10   C21   1.470006 S    
C35   C37   1.388628 A    
C9    C11   1.412044 A    
C49   C50   1.534196 S    
C26   C28   1.400899 A    
C10   C12   1.413416 A    
C17   C22   1.410679 A    
C18   O12   1.382082 S    
C12   C14   1.398373 A    
O9    C43   1.407691 S    
C13   C15   1.399260 A    
C52   H36   1.108190 S    
C14   C16   1.394522 A    
C45   H21   1.104694 S    
C23   C33   1.383142 A    
C20   C22   1.403607 A    
C5    H3    1.077990 S    
Cu2   N1    2.002031 S    
C1    C38   1.482995 S    
C6    H4    1.079813 S    
C51   H35   1.099522 S    
O2    Cu2   2.001080 S    
C44   C45   1.522622 S    
C30   Br2   1.918137 S    
C14   Br6   1.915559 S    
O5    Cu1   2.022362 S    
C46   C47   1.541004 S    
O1    Cu1   2.001080 S    
C18   C20   1.418267 A    
C49   H29   1.108390 S    
C8    C10   1.397098 A    
C23   C25   1.389354 A    
C29   Br1   1.926141 S    
C48   H26   1.106510 S    
C4    C19   1.504577 S    
