data_mof_unit_23878.cif
_audit_creation_date              2012-12-10T19:46:23-0500
_audit_creation_method            fapswitch 2.2
_symmetry_space_group_name_H-M    P1
_symmetry_Int_Tables_number       1
_space_group_crystal_system       triclinic
_cell_length_a                    10.930019
_cell_length_b                    11.028719
_cell_length_c                    10.65838
_cell_angle_alpha                 90.797723
_cell_angle_beta                  91.595864
_cell_angle_gamma                 89.711488
_cell_volume                      1284.16821125

loop_
_atom_site_label
_atom_site_type_symbol
_atom_type_description
_atom_site_fract_x
_atom_site_fract_y
_atom_site_fract_z
_atom_type_partial_charge
C1    C     C_R   0.503757 0.262082 0.498385 0.798915
C2    C     C_R   0.505455 0.738317 0.501336 0.851808
C3    C     C_R   0.872390 0.491513 0.504172 -0.055573
C4    C     C_R   0.128586 0.482616 0.494464 -0.069943
C5    C     C_R   0.943507 0.467076 0.613173 0.052455
C6    C     C_R   0.057222 0.508027 0.386420 0.086580
C7    C     C_R   0.333100 0.130462 0.089672 0.428757
C8    C     C_R   0.554249 0.882718 0.956471 0.321111
C9    C     C_R   0.365506 0.095663 0.211547 -0.203122
C10   C     C_R   0.582870 0.899838 0.831593 -0.297373
C11   C     C_R   0.486144 0.108626 0.257934 -0.027720
C12   C     C_R   0.490511 0.897697 0.738081 0.007398
C13   C     C_R   0.575394 0.158581 0.181599 0.543048
C14   C     C_R   0.367383 0.887737 0.770290 0.466395
C15   C     C_R   0.540991 0.198247 0.060741 -0.317672
C16   C     C_R   0.340060 0.869870 0.896321 -0.319006
C17   C     C_R   0.420029 0.185585 0.015502 0.260813
C18   C     C_R   0.432848 0.858674 0.987233 0.316405
C19   C     C_R   0.529628 0.932551 0.389727 -0.132055
C20   C     C_R   0.525421 0.069451 0.608787 -0.205077
C21   C     C_R   0.517983 0.872526 0.503431 -0.088910
C22   C     C_R   0.516051 0.128818 0.494772 -0.113381
C23   C     C_R   0.262267 0.493230 0.498056 0.822525
C24   C     C_R   0.738179 0.498318 0.501827 0.784801
C25   C     C_R   0.517630 0.943823 0.614502 0.098668
C26   C     C_R   0.517583 0.058575 0.382500 0.095358
C27   C     C_1   0.498937 0.499923 0.072545 0.153312
C28   C     C_1   0.499428 0.500332 0.927403 0.145513
C29   C     C_R   0.123621 0.643172 0.077436 -0.185516
C30   C     C_R   0.844781 0.403061 0.941101 -0.176196
C31   C     C_R   0.108420 0.633678 0.206005 -0.189700
C32   C     C_R   0.884904 0.385011 0.819128 -0.240842
C33   C     C_R   0.106409 0.519675 0.261119 0.031247
C34   C     C_R   0.894953 0.483709 0.739141 0.098112
C35   C     C_R   0.124395 0.414829 0.188393 0.339463
C36   C     C_R   0.864999 0.601130 0.781868 0.396509
C37   C     C_R   0.140998 0.424505 0.059760 -0.194438
C38   C     C_R   0.824719 0.618536 0.903103 -0.288901
C39   C     C_R   0.138881 0.537578 0.002117 0.477980
C40   C     C_R   0.814881 0.519360 0.985514 0.465845
C41   C     C_R   0.931114 0.506959 0.391892 -0.221911
C42   C     C_R   0.069542 0.450866 0.603809 -0.190032
Cu1   Cu    Cu3+1 0.500000 0.500000 0.625300 1.037051
Cu2   Cu    Cu3+1 0.500000 0.500000 0.374700 1.014872
H1    H     H_    0.609573 0.234194 0.000206 0.188925
H2    H     H_    0.246744 0.860202 0.924105 0.197246
H3    H     H_    0.541753 0.880850 0.304953 0.245932
H4    H     H_    0.528569 0.121288 0.695684 0.215334
H5    H     H_    0.116244 0.732690 0.038594 0.175025
H6    H     H_    0.838476 0.326037 0.002354 0.182889
H7    H     H_    0.090140 0.714628 0.261285 0.195661
H8    H     H_    0.909241 0.294539 0.787460 0.180060
H9    H     H_    0.148696 0.343545 0.002283 0.240923
H10   H     H_    0.803324 0.710552 0.930897 0.194613
H11   H     H_    0.879038 0.519547 0.306878 0.212046
H12   H     H_    0.122913 0.421400 0.684482 0.229045
H13   H     H_    0.297914 0.052617 0.268386 0.234940
H14   H     H_    0.676070 0.921046 0.807824 0.226759
N1    N     N_1   0.500010 0.499990 0.186410 -0.135347
N2    N     N_1   0.499990 0.500010 0.813590 -0.124350
O1    O     O_R   0.499990 0.319650 0.605810 -0.536978
O2    O     O_R   0.500010 0.680350 0.394190 -0.551220
O3    O     O_R   0.499990 0.319640 0.394190 -0.605403
O4    O     O_R   0.500010 0.680360 0.605810 -0.575818
O5    O     O_R   0.319640 0.500010 0.605810 -0.573542
O6    O     O_R   0.680360 0.499990 0.394190 -0.615985
O7    O     O_R   0.319650 0.500010 0.394190 -0.552643
O8    O     O_R   0.680350 0.499990 0.605810 -0.574303
O9    O     O_3   0.135812 0.536240 0.872001 -0.611338
C43   C     C_3   0.182510 0.642484 0.821454 -0.210314
H15   H     H_    0.278625 0.654411 0.854510 0.174960
H16   H     H_    0.121031 0.720813 0.837987 0.175206
H17   H     H_    0.183286 0.634322 0.718481 0.223085
O10   O     O_3   0.778960 0.528532 0.109556 -0.648725
C44   C     C_3   0.747242 0.647364 0.146109 -0.251877
H18   H     H_    0.666596 0.677355 0.089599 0.214052
H19   H     H_    0.827114 0.709109 0.141611 0.202710
H20   H     H_    0.718875 0.649852 0.244410 0.225973
O11   O     O_3   0.698102 0.147394 0.214895 -0.528044
C45   C     C_3   0.744139 0.259956 0.257240 -0.182709
H21   H     H_    0.733875 0.268027 0.360196 0.155619
H22   H     H_    0.700913 0.338720 0.209159 0.182050
H23   H     H_    0.843315 0.262790 0.238867 0.230685
O12   O     O_3   0.277370 0.886698 0.675622 -0.605208
C46   C     C_3   0.186603 0.974734 0.699548 -0.186867
H24   H     H_    0.226858 0.063997 0.726846 0.220755
H25   H     H_    0.123033 0.943347 0.771624 0.194917
H26   H     H_    0.131503 0.988371 0.611869 0.204904
Cl1   Cl    Cl    0.111966 0.270935 0.256079 -0.616148
Cl2   Cl    Cl    0.880256 0.729942 0.687153 -0.675335
Cl3   Cl    Cl    0.379447 0.234150 0.863976 -0.653451
Cl4   Cl    Cl    0.391762 0.805817 0.133967 -0.668858
Cl5   Cl    Cl    0.186300 0.094120 0.028176 -0.578250
Cl6   Cl    Cl    0.669171 0.909552 0.070867 -0.639173

loop_
_geom_bond_atom_site_label_1
_geom_bond_atom_site_label_2
_ccdc_geom_bond_type
C38   C40   A    
C5    C42   A    
C13   O11   S    
Cu2   O6    S    
C17   Cl3   S    
C14   O12   S    
Cu1   Cu2   S    
C29   H5    S    
C46   H24   S    
C10   H14   S    
C19   H3    S    
C20   C25   A    
Cu2   N1    S    
C7    C9    A    
C23   O7    A    
C19   C26   A    
C32   H8    S    
C42   H12   S    
C41   H11   S    
Cu1   O8    S    
C7    C17   A    
C6    C41   A    
C31   C33   A    
C43   H15   S    
C9    H13   S    
C24   O6    A    
C37   H9    S    
C46   H25   S    
C30   H6    S    
C1    C22   S    
C3    C24   S    
C2    C21   S    
C45   H23   S    
C1    O3    A    
C2    O4    A    
Cu1   O4    S    
C28   N2    T    
Cu2   O3    S    
C7    Cl5   S    
O10   C44   S    
C8    Cl6   S    
O12   C46   S    
C4    C6    A    
C16   H2    S    
C4    C23   S    
C11   C26   S    
Cu2   O2    S    
C8    C18   A    
C32   C34   A    
C44   H18   S    
C31   H7    S    
C44   H19   S    
C38   H10   S    
Cu1   O5    S    
C5    C34   S    
C29   C39   A    
C43   H17   S    
C39   O9    S    
C30   C40   A    
C16   C18   A    
C9    C11   A    
C20   H4    S    
C10   C12   A    
Cu1   N2    S    
C35   Cl1   S    
C45   H22   S    
C20   C22   A    
C13   C15   A    
C14   C16   A    
C15   H1    S    
Cu1   O1    S    
C46   H26   S    
C36   Cl2   S    
C15   C17   A    
C21   C25   A    
C3    C41   A    
C35   C37   A    
C12   C14   A    
C45   H21   S    
C3    C5    A    
C1    O1    A    
C6    C33   S    
C12   C25   S    
C18   Cl4   S    
C23   O5    A    
C36   C38   A    
C29   C31   A    
C27   N1    T    
C30   C32   A    
C11   C13   A    
C4    C42   A    
C33   C35   A    
C40   O10   S    
C34   C36   A    
O9    C43   S    
C44   H20   S    
C24   O8    A    
O11   C45   S    
C37   C39   A    
C8    C10   A    
C22   C26   A    
C27   C28   S    
Cu2   O7    S    
C43   H16   S    
C2    O2    A    
C19   C21   A    
