data_mof_unit_54957.cif
_audit_creation_date              2012-10-26T21:33:22-0400
_audit_creation_method            fapswitch 2.2
_symmetry_space_group_name_H-M    P1
_symmetry_Int_Tables_number       1
_space_group_crystal_system       triclinic
_cell_length_a                    28.208166
_cell_length_b                    18.469599
_cell_length_c                    17.096729
_cell_angle_alpha                 89.279564
_cell_angle_beta                  59.967639
_cell_angle_gamma                 89.258736
_cell_volume                      7710.5816382

loop_
_atom_site_label
_atom_site_type_symbol
_atom_type_description
_atom_site_fract_x
_atom_site_fract_y
_atom_site_fract_z
_atom_type_partial_charge
C1    C     C_R   0.699843 0.264514 0.676751 0.915180
C2    C     C_R   0.097929 0.499344 0.498772 0.060435
C3    C     C_R   0.190466 0.217414 0.900470 0.098417
C4    C     C_R   0.077501 0.094517 0.929721 0.918097
C5    C     C_R   0.931183 0.894996 0.061672 0.915177
C6    C     C_R   0.924023 0.097589 0.068017 0.934400
C7    C     C_R   0.076269 0.903103 0.931742 0.890001
C8    C     C_R   0.577503 0.594509 0.929718 0.918028
C9    C     C_R   0.431146 0.395018 0.061697 0.915302
C10   C     C_R   0.424049 0.597630 0.067986 0.934329
C11   C     C_R   0.576277 0.403116 0.931729 0.890120
C12   C     C_R   0.567717 0.127128 0.441664 0.093836
C13   C     C_R   0.422097 0.998431 0.429500 0.070556
C14   C     C_R   0.469282 0.866844 0.442999 0.104830
C15   C     C_R   0.476344 0.128379 0.416719 0.106342
C16   C     C_R   0.546189 0.868886 0.501926 0.106405
C17   C     C_R   0.067714 0.627125 0.441670 0.093862
C18   C     C_R   0.969287 0.366841 0.442979 0.104857
C19   C     C_R   0.976342 0.628376 0.416725 0.106402
C20   C     C_R   0.046208 0.368878 0.501876 0.106361
C21   C     C_R   0.550097 0.191668 0.419366 -0.203787
C22   C     C_R   0.489807 0.801661 0.458035 -0.209613
C23   C     C_R   0.504519 0.192492 0.407869 -0.193050
C24   C     C_R   0.597926 0.999349 0.498782 0.060457
C25   C     C_R   0.525694 0.802812 0.492136 -0.197101
C26   C     C_R   0.050092 0.691666 0.419379 -0.203682
C27   C     C_R   0.989825 0.301656 0.457982 -0.209605
C28   C     C_R   0.004514 0.692490 0.407883 -0.193097
C29   C     C_R   0.025721 0.302804 0.492062 -0.197242
C30   C     C_R   0.494808 0.063253 0.436017 0.026703
C31   C     C_R   0.530868 0.933455 0.476525 0.025747
C32   C     C_R   0.539369 0.063083 0.451705 0.033782
C33   C     C_R   0.489855 0.932781 0.452452 0.030633
C34   C     C_R   0.994806 0.563250 0.436018 0.026750
C35   C     C_R   0.082389 0.371217 0.535145 -0.243786
C36   C     C_R   0.030877 0.433449 0.476499 0.025722
C37   C     C_R   0.039369 0.563080 0.451705 0.033775
C38   C     C_R   0.989860 0.432777 0.452437 0.030594
C39   C     C_R   0.969398 0.498101 0.437929 -0.058290
C40   C     C_R   0.055754 0.498744 0.476539 -0.054247
C41   C     C_R   0.469399 0.998104 0.437931 -0.058270
C42   C     C_R   0.555750 0.998748 0.476551 -0.054228
C43   C     C_R   0.897549 0.432368 0.429509 0.049157
C44   C     C_R   0.126513 0.563949 0.489941 0.061631
C45   C     C_R   0.112741 0.434678 0.526523 0.058064
C46   C     C_R   0.929136 0.628724 0.409395 -0.281552
C47   C     C_R   0.898241 0.564947 0.425244 0.052939
C48   C     C_R   0.397552 0.932370 0.429506 0.049176
C49   C     C_R   0.626513 0.063952 0.489941 0.061636
C50   C     C_R   0.612736 0.934684 0.526541 0.058075
C51   C     C_R   0.398242 0.064949 0.425242 0.052957
C52   C     C_R   0.844066 0.434269 0.439499 -0.120035
C53   C     C_R   0.167430 0.563424 0.516856 -0.103282
C54   C     C_R   0.159130 0.435498 0.539873 -0.109237
C55   C     C_R   0.844253 0.564861 0.438321 -0.123635
C56   C     C_R   0.344068 0.934269 0.439498 -0.120045
C57   C     C_R   0.926977 0.367437 0.422667 -0.288307
C58   C     C_R   0.667431 0.063425 0.516855 -0.103260
C59   C     C_R   0.659129 0.935501 0.539879 -0.109287
C60   C     C_R   0.344254 0.064862 0.438320 -0.123631
C61   C     C_R   0.819595 0.499941 0.440564 -0.305019
C62   C     C_R   0.182066 0.499942 0.542276 -0.321455
C63   C     C_R   0.319595 0.999941 0.440566 -0.304970
C64   C     C_R   0.682068 0.999944 0.542274 -0.321448
C65   C     C_R   0.636951 0.245959 0.098311 0.131774
C66   C     C_R   0.598304 0.298561 0.153093 -0.142951
C67   C     C_R   0.542359 0.283173 0.198016 -0.134189
C68   C     C_R   0.113212 0.625746 0.453681 -0.260716
C69   C     C_R   0.524437 0.215151 0.189495 -0.106813
C70   C     C_R   0.562443 0.162254 0.136321 -0.124951
C71   C     C_R   0.618417 0.177604 0.090621 -0.138580
C72   C     C_R   0.372825 0.768160 0.897015 0.138147
C73   C     C_R   0.394190 0.834368 0.904370 -0.141365
C74   C     C_R   0.450638 0.846534 0.855586 -0.135704
C75   C     C_R   0.486211 0.792678 0.799354 -0.108843
C76   C     C_R   0.465394 0.726466 0.792083 -0.119629
C77   C     C_R   0.408991 0.714183 0.840593 -0.142794
C78   C     C_R   0.332616 0.364147 0.918653 0.105950
C79   C     C_R   0.582377 0.871227 0.535184 -0.243808
C80   C     C_R   0.313098 0.431766 0.959684 -0.149457
C81   C     C_R   0.345830 0.493237 0.925406 -0.128208
C82   C     C_R   0.398470 0.487672 0.850424 -0.061717
C83   C     C_R   0.418376 0.420659 0.809208 -0.133022
C84   C     C_R   0.385663 0.359100 0.842785 -0.176804
C85   C     C_R   0.639665 0.703806 0.102302 0.109366
C86   C     C_R   0.600135 0.757235 0.117333 -0.141738
C87   C     C_R   0.544370 0.742295 0.171766 -0.139569
C88   C     C_R   0.527570 0.673900 0.211417 -0.096267
C89   C     C_R   0.566499 0.620273 0.196794 -0.102098
C90   C     C_R   0.429137 0.128727 0.409393 -0.281226
C91   C     C_R   0.622302 0.634956 0.142586 -0.170439
C92   C     C_R   0.137071 0.745710 0.098187 0.131836
C93   C     C_R   0.098286 0.798111 0.153138 -0.143030
C94   C     C_R   0.042382 0.782465 0.197978 -0.134312
C95   C     C_R   0.024644 0.714386 0.189203 -0.106432
C96   C     C_R   0.062792 0.661691 0.135850 -0.125165
C97   C     C_R   0.118722 0.677297 0.090236 -0.138617
C98   C     C_R   0.872769 0.267547 0.896992 0.138124
C99   C     C_R   0.894283 0.333735 0.904021 -0.141309
C100  C     C_R   0.950757 0.345683 0.855150 -0.135721
C101  C     C_R   0.426980 0.867441 0.422667 -0.288413
C102  C     C_R   0.986208 0.291624 0.799161 -0.109023
C103  C     C_R   0.965242 0.225428 0.792217 -0.119194
C104  C     C_R   0.908811 0.213364 0.840805 -0.142776
C105  C     C_R   0.833109 0.863573 0.917967 0.105843
C106  C     C_R   0.813815 0.931451 0.958349 -0.149670
C107  C     C_R   0.846763 0.992688 0.923486 -0.127371
C108  C     C_R   0.899394 0.986630 0.848585 -0.062172
C109  C     C_R   0.919083 0.919348 0.808043 -0.133526
C110  C     C_R   0.886152 0.858027 0.842185 -0.176432
C111  C     C_R   0.139408 0.204226 0.102374 0.109410
C112  C     C_R   0.300938 0.737071 0.323342 0.881972
C113  C     C_R   0.613215 0.125749 0.453678 -0.260681
C114  C     C_R   0.099933 0.257661 0.117115 -0.141778
C115  C     C_R   0.044146 0.242787 0.171416 -0.139622
C116  C     C_R   0.027270 0.174458 0.211230 -0.096306
C117  C     C_R   0.066144 0.120828 0.196898 -0.101932
C118  C     C_R   0.121968 0.135442 0.142816 -0.170152
C119  C     C_R   0.812899 0.256865 0.802115 0.139501
C120  C     C_R   0.830625 0.189589 0.759061 -0.198764
C121  C     C_R   0.856287 0.185436 0.665260 -0.169494
C122  C     C_R   0.864294 0.248235 0.614177 -0.016307
C123  C     C_R   0.847887 0.315659 0.656395 -0.084194
C124  C     C_R   0.724055 0.262726 0.949588 -0.036308
C125  C     C_R   0.822246 0.320107 0.750399 -0.159541
C126  C     C_R   0.200788 0.808715 0.175971 0.112563
C127  C     C_R   0.178805 0.776070 0.261558 -0.146213
C128  C     C_R   0.158787 0.819758 0.338453 -0.112888
C129  C     C_R   0.156768 0.894965 0.331009 -0.129036
C130  C     C_R   0.176280 0.927245 0.246349 -0.164545
C131  C     C_R   0.199472 0.884605 0.169015 -0.198710
C132  C     C_R   0.217684 0.183677 0.167551 0.100732
C133  C     C_R   0.254114 0.128997 0.162913 -0.160402
C134  C     C_R   0.243614 0.089756 0.240362 -0.147317
C135  C     C_R   0.284687 0.755807 0.044399 -0.028380
C136  C     C_R   0.196244 0.103828 0.322749 -0.077124
C137  C     C_R   0.159390 0.157458 0.328012 -0.118961
C138  C     C_R   0.170028 0.197533 0.251073 -0.168765
C139  C     C_R   0.806757 0.771489 0.804137 0.110230
C140  C     C_R   0.826804 0.705417 0.758840 -0.163536
C141  C     C_R   0.858199 0.703892 0.664510 -0.107181
C142  C     C_R   0.869855 0.768241 0.614628 -0.039975
C143  C     C_R   0.849945 0.834205 0.658876 -0.139864
C144  C     C_R   0.818455 0.836021 0.753140 -0.174277
C145  C     C_R   0.312975 0.757126 0.802082 0.139517
C146  C     C_R   0.279404 0.272929 0.044666 -0.025254
C147  C     C_R   0.330714 0.689836 0.759072 -0.199068
C148  C     C_R   0.356344 0.685635 0.665280 -0.169669
C149  C     C_R   0.364298 0.748401 0.614166 -0.016252
C150  C     C_R   0.347878 0.815842 0.656340 -0.084204
C151  C     C_R   0.322273 0.820338 0.750335 -0.159522
C152  C     C_R   0.700787 0.308692 0.175971 0.112619
C153  C     C_R   0.678770 0.276079 0.261580 -0.146183
C154  C     C_R   0.658789 0.319794 0.338447 -0.112821
C155  C     C_R   0.656844 0.395005 0.330947 -0.129014
C156  C     C_R   0.676397 0.427257 0.246261 -0.164426
C157  C     C_R   0.721238 0.737193 0.950133 -0.030302
C158  C     C_R   0.699559 0.384585 0.168959 -0.198848
C159  C     C_R   0.718161 0.683157 0.167071 0.100867
C160  C     C_R   0.754792 0.628648 0.162111 -0.160151
C161  C     C_R   0.744507 0.589290 0.239373 -0.147528
C162  C     C_R   0.697164 0.603076 0.321897 -0.077398
C163  C     C_R   0.660100 0.656509 0.327476 -0.118807
C164  C     C_R   0.670521 0.696699 0.250725 -0.168972
C165  C     C_R   0.306650 0.271831 0.804373 0.110174
C166  C     C_R   0.326813 0.205790 0.759059 -0.163330
C167  C     C_R   0.358242 0.204296 0.664731 -0.107260
C168  C     C_R   0.224133 0.762852 0.949540 -0.036333
C169  C     C_R   0.369813 0.268646 0.614868 -0.040199
C170  C     C_R   0.349791 0.334581 0.659136 -0.139926
C171  C     C_R   0.318272 0.336366 0.753400 -0.174819
C172  C     C_R   0.784612 0.255590 0.044443 -0.028288
C173  C     C_R   0.779631 0.772695 0.044400 -0.025222
C174  C     C_R   0.221090 0.237446 0.950272 -0.030305
C175  C     C_R   0.782366 0.259508 0.901702 -0.039463
C176  C     C_R   0.295786 0.275225 0.326069 0.897171
C177  C     C_R   0.226862 0.766629 0.091441 -0.022742
C178  C     C_R   0.231605 0.228272 0.085546 -0.038275
C179  C     C_R   0.773333 0.771575 0.904747 -0.039739
C180  C     C_R   0.282447 0.759794 0.901660 -0.039376
C181  C     C_R   0.726804 0.266569 0.091472 -0.022748
C182  C     C_R   0.731890 0.727938 0.085270 -0.038305
C183  C     C_R   0.273168 0.271875 0.904969 -0.039643
C184  C     C_R   0.812302 0.256515 0.948457 -0.066174
C185  C     C_R   0.196885 0.761339 0.045428 -0.057472
C186  C     C_R   0.198692 0.221511 0.044300 -0.045040
C187  C     C_R   0.699112 0.736666 0.676405 0.892445
C188  C     C_R   0.796712 0.799502 0.955192 -0.040669
C189  C     C_R   0.312384 0.756886 0.948419 -0.066176
C190  C     C_R   0.696808 0.261326 0.045483 -0.057441
C191  C     C_R   0.698922 0.721174 0.044127 -0.044957
C192  C     C_R   0.296479 0.299812 0.955505 -0.040687
C193  C     C_R   0.650811 0.333770 0.936422 -0.186130
C194  C     C_R   0.354098 0.676375 0.059298 -0.182599
C195  C     C_R   0.366419 0.312493 0.048416 -0.178774
C196  C     C_R   0.655027 0.657644 0.927792 -0.186722
C197  C     C_R   0.150802 0.833769 0.936470 -0.186088
C198  C     C_R   0.199855 0.764540 0.676750 0.915185
C199  C     C_R   0.853954 0.176140 0.059477 -0.182342
C200  C     C_R   0.866561 0.812360 0.048331 -0.179124
C201  C     C_R   0.154978 0.157756 0.927853 -0.186658
C202  C     C_R   0.619514 0.350160 0.894833 -0.063381
C203  C     C_R   0.382438 0.653361 0.103945 -0.079221
C204  C     C_R   0.391141 0.337883 0.096954 -0.088965
C205  C     C_R   0.621151 0.645759 0.890517 -0.071424
C206  C     C_R   0.119513 0.850157 0.894858 -0.063331
C207  C     C_R   0.882383 0.153270 0.104018 -0.079211
C208  C     C_R   0.891209 0.837833 0.096930 -0.088974
C209  C     C_R   0.800942 0.237080 0.323340 0.881954
C210  C     C_R   0.121137 0.145792 0.890531 -0.071450
C211  C     C_R   0.631724 0.319555 0.814340 -0.268637
C212  C     C_R   0.368973 0.680683 0.186656 -0.260651
C213  C     C_R   0.370344 0.318940 0.185536 -0.265661
C214  C     C_R   0.630464 0.680767 0.813212 -0.262176
C215  C     C_R   0.131744 0.819573 0.814346 -0.268736
C216  C     C_R   0.868986 0.180696 0.186653 -0.260665
C217  C     C_R   0.870363 0.818954 0.185545 -0.265514
C218  C     C_R   0.130464 0.180760 0.813196 -0.262182
C219  C     C_R   0.675637 0.273767 0.773304 -0.076583
C220  C     C_R   0.795788 0.775226 0.326059 0.897164
C221  C     C_R   0.327265 0.730047 0.226245 -0.068394
C222  C     C_R   0.318091 0.293103 0.231984 -0.061889
C223  C     C_R   0.673008 0.728028 0.773506 -0.081737
C224  C     C_R   0.175676 0.773820 0.773293 -0.076533
C225  C     C_R   0.827264 0.230042 0.226242 -0.068464
C226  C     C_R   0.818121 0.793071 0.231941 -0.061980
C227  C     C_R   0.172990 0.228052 0.773500 -0.081729
C228  C     C_R   0.701691 0.247031 0.820803 -0.182340
C229  C     C_R   0.305235 0.763178 0.176135 -0.202220
C230  C     C_R   0.286325 0.288522 0.189378 -0.175060
C231  C     C_R   0.199108 0.236676 0.676401 0.892454
C232  C     C_R   0.696920 0.754783 0.823020 -0.174257
C233  C     C_R   0.201763 0.747129 0.820761 -0.182327
C234  C     C_R   0.805205 0.263108 0.176138 -0.202207
C235  C     C_R   0.786412 0.788407 0.189232 -0.174790
C236  C     C_R   0.196868 0.254870 0.823032 -0.174334
C237  C     C_R   0.695845 0.127905 0.518886 0.914666
C238  C     C_R   0.308920 0.870529 0.464146 0.898232
C239  C     C_R   0.309076 0.129586 0.463816 0.912889
C240  C     C_R   0.691570 0.870894 0.531852 0.877695
C241  C     C_R   0.195844 0.627904 0.518888 0.914672
C242  C     C_R   0.922095 0.498428 0.429502 0.070565
C243  C     C_R   0.808920 0.370529 0.464147 0.898228
C244  C     C_R   0.809076 0.629586 0.463817 0.912935
C245  C     C_R   0.191570 0.370894 0.531850 0.877676
C246  C     C_R   0.691276 0.279240 0.902392 0.099632
C247  C     C_R   0.315713 0.733842 0.093105 0.105614
C248  C     C_R   0.310981 0.290848 0.094156 0.093520
C249  C     C_R   0.690541 0.717269 0.900414 0.098372
C250  C     C_R   0.191327 0.779316 0.902372 0.099604
C251  C     C_R   0.815624 0.233666 0.093186 0.105542
C252  C     C_R   0.811135 0.790704 0.093982 0.093604
H1    H     H_    0.038604 0.252058 0.508350 0.127679
H2    H     H_    0.214681 0.499967 0.558457 0.190814
H3    H     H_    0.818095 0.655146 0.796714 0.128482
H4    H     H_    0.873468 0.652814 0.630038 0.138260
H5    H     H_    0.894016 0.766973 0.541658 0.109398
H6    H     H_    0.858668 0.883937 0.620086 0.108067
H7    H     H_    0.802568 0.887417 0.786388 0.136501
H8    H     H_    0.323009 0.640548 0.798517 0.123342
H9    H     H_    0.369025 0.633610 0.632351 0.112303
H10   H     H_    0.382352 0.744108 0.542002 0.119334
H11   H     H_    0.354086 0.864455 0.616535 0.142772
H12   H     H_    0.308662 0.872446 0.782844 0.125657
H13   H     H_    0.278487 0.000468 0.450587 0.194779
H14   H     H_    0.679792 0.217779 0.268044 0.136894
H15   H     H_    0.644944 0.295885 0.404273 0.125422
H16   H     H_    0.640316 0.428266 0.390756 0.108952
H17   H     H_    0.673977 0.485296 0.240231 0.150482
H18   H     H_    0.715904 0.410548 0.103379 0.129959
H19   H     H_    0.791760 0.617601 0.098689 0.130586
H20   H     H_    0.773147 0.547855 0.235230 0.133889
H21   H     H_    0.689267 0.572409 0.381539 0.110988
H22   H     H_    0.623665 0.667511 0.391572 0.107437
H23   H     H_    0.642357 0.739635 0.256935 0.147155
H24   H     H_    0.714685 0.999968 0.558450 0.190818
H25   H     H_    0.318166 0.155518 0.796919 0.128479
H26   H     H_    0.373602 0.153240 0.630247 0.138245
H27   H     H_    0.393996 0.267398 0.541898 0.109235
H28   H     H_    0.358447 0.384314 0.620363 0.108162
H29   H     H_    0.302294 0.387735 0.786665 0.136594
H30   H     H_    0.644331 0.364750 0.994185 0.144670
H31   H     H_    0.361385 0.648445 0.999251 0.138278
H32   H     H_    0.390649 0.313110 0.976293 0.153465
H33   H     H_    0.653462 0.619704 0.977188 0.151479
H34   H     H_    0.144270 0.864692 0.994306 0.144712
H35   H     H_    0.861133 0.148057 0.999586 0.138329
H36   H     H_    0.890856 0.812910 0.976226 0.153536
H37   H     H_    0.990832 0.743435 0.393565 0.130757
H38   H     H_    0.153398 0.119873 0.977317 0.151427
H39   H     H_    0.609877 0.336171 0.779802 0.176503
H40   H     H_    0.388063 0.659115 0.223633 0.173116
H41   H     H_    0.392724 0.330767 0.220160 0.172168
H42   H     H_    0.608046 0.666133 0.779521 0.173595
H43   H     H_    0.109889 0.836172 0.779814 0.176483
H44   H     H_    0.888128 0.159212 0.223586 0.173033
H45   H     H_    0.892699 0.830856 0.220222 0.172242
H46   H     H_    0.108071 0.166075 0.779478 0.173601
H47   H     H_    0.731591 0.204201 0.791406 0.162296
H48   H     H_    0.976083 0.249945 0.447990 0.125639
H49   H     H_    0.279179 0.809865 0.204319 0.171082
H50   H     H_    0.242815 0.284497 0.231870 0.162263
H51   H     H_    0.721766 0.802276 0.797829 0.153633
H52   H     H_    0.231698 0.704341 0.791335 0.162394
H53   H     H_    0.779172 0.309819 0.204281 0.171099
H54   H     H_    0.742896 0.784317 0.231646 0.162088
H55   H     H_    0.221693 0.302379 0.797832 0.153700
H56   H     H_    0.085224 0.322833 0.568607 0.172531
H57   H     H_    0.917615 0.679041 0.390378 0.167977
H58   H     H_    0.916957 0.316510 0.404572 0.172738
H59   H     H_    0.069798 0.742247 0.414583 0.140926
H60   H     H_    0.138130 0.673145 0.430681 0.178361
H61   H     H_    0.585215 0.822846 0.568649 0.172507
H62   H     H_    0.417613 0.179045 0.390383 0.167957
H63   H     H_    0.416960 0.816515 0.404569 0.172725
H64   H     H_    0.638131 0.173150 0.430678 0.178377
H65   H     H_    0.610984 0.352289 0.158549 0.130095
H66   H     H_    0.512837 0.324229 0.238916 0.115736
H67   H     H_    0.481099 0.203516 0.223857 0.120560
H68   H     H_    0.548504 0.109504 0.129932 0.128277
H69   H     H_    0.647395 0.136335 0.048743 0.121847
H70   H     H_    0.538565 0.752067 0.508452 0.127772
H71   H     H_    0.367044 0.876660 0.947456 0.121156
H72   H     H_    0.466800 0.897778 0.861309 0.128250
H73   H     H_    0.529893 0.802155 0.761660 0.118989
H74   H     H_    0.492975 0.684540 0.749079 0.114022
H75   H     H_    0.393666 0.662189 0.835531 0.104911
H76   H     H_    0.272365 0.436872 0.017812 0.128792
H77   H     H_    0.330238 0.545171 0.956918 0.114923
H78   H     H_    0.423941 0.535168 0.824367 0.096410
H79   H     H_    0.459213 0.416374 0.751313 0.111304
H80   H     H_    0.401806 0.307370 0.810727 0.139651
H81   H     H_    0.490839 0.243437 0.393545 0.130906
H82   H     H_    0.612593 0.810486 0.087030 0.127829
H83   H     H_    0.514148 0.783767 0.183217 0.130504
H84   H     H_    0.484376 0.662435 0.253332 0.110781
H85   H     H_    0.553441 0.567208 0.227202 0.104449
H86   H     H_    0.651974 0.592578 0.130961 0.125321
H87   H     H_    0.110826 0.851873 0.158812 0.130187
H88   H     H_    0.012748 0.823362 0.239019 0.115704
H89   H     H_    0.981340 0.702548 0.223502 0.120694
H90   H     H_    0.048998 0.608900 0.129253 0.128217
H91   H     H_    0.147810 0.636184 0.048217 0.121839
H92   H     H_    0.476060 0.749949 0.448055 0.125588
H93   H     H_    0.867232 0.376180 0.946916 0.121129
H94   H     H_    0.967034 0.396914 0.860619 0.128256
H95   H     H_    0.029911 0.300936 0.761401 0.118970
H96   H     H_    0.992728 0.183348 0.749402 0.113885
H97   H     H_    0.893368 0.161378 0.835998 0.104810
H98   H     H_    0.773082 0.936953 0.016378 0.128737
H99   H     H_    0.831347 0.044838 0.954443 0.114371
H100  H     H_    0.925014 0.033965 0.822046 0.095899
H101  H     H_    0.959906 0.914678 0.750200 0.111689
H102  H     H_    0.902105 0.806100 0.810597 0.139557
H103  H     H_    0.569805 0.242249 0.414563 0.140936
H104  H     H_    0.112448 0.310861 0.086680 0.127793
H105  H     H_    0.013966 0.284259 0.182636 0.130504
H106  H     H_    0.984061 0.163043 0.253041 0.110886
H107  H     H_    0.053028 0.067813 0.227428 0.104431
H108  H     H_    0.151596 0.093056 0.131405 0.125326
H109  H     H_    0.822886 0.140277 0.798476 0.123161
H110  H     H_    0.868957 0.133422 0.632298 0.112267
H111  H     H_    0.882377 0.243986 0.542002 0.119211
H112  H     H_    0.854137 0.364298 0.616613 0.142749
H113  H     H_    0.808654 0.372207 0.782937 0.125616
H114  H     H_    0.778487 0.500467 0.450581 0.194732
H115  H     H_    0.179888 0.717772 0.267982 0.136920
H116  H     H_    0.144971 0.795831 0.404261 0.125486
H117  H     H_    0.140215 0.928202 0.390841 0.108981
H118  H     H_    0.173806 0.985282 0.240365 0.150281
H119  H     H_    0.215787 0.910593 0.103454 0.129965
H120  H     H_    0.291088 0.117713 0.099595 0.130646
H121  H     H_    0.272095 0.048177 0.236472 0.133879
H122  H     H_    0.188177 0.073247 0.382536 0.110515
H123  H     H_    0.122946 0.168691 0.392005 0.107540
H124  H     H_    0.142017 0.240601 0.257024 0.147188
O1    O     O_R   0.746490 0.236330 0.638080 -0.620696
O2    O     O_R   0.325830 0.813840 0.483730 -0.656734
O3    O     O_R   0.325830 0.186160 0.483730 -0.637042
O4    O     O_R   0.674170 0.813840 0.516270 -0.649346
O5    O     O_R   0.174170 0.686160 0.516270 -0.653198
O6    O     O_R   0.825830 0.313840 0.483730 -0.656688
O7    O     O_R   0.825830 0.686160 0.483730 -0.637100
O8    O     O_R   0.174170 0.313840 0.516270 -0.649354
O9    O     O_R   0.739960 0.127620 0.525000 -0.629677
O10   O     O_R   0.260040 0.872380 0.475000 -0.626733
O11   O     O_R   0.260040 0.127620 0.475000 -0.625418
O12   O     O_R   0.253510 0.763670 0.361920 -0.638177
O13   O     O_R   0.739960 0.872380 0.525000 -0.628676
O14   O     O_R   0.239960 0.627620 0.525000 -0.629659
O15   O     O_R   0.760040 0.372380 0.475000 -0.626761
O16   O     O_R   0.760040 0.627620 0.475000 -0.625447
O17   O     O_R   0.239960 0.372380 0.525000 -0.628692
O18   O     O_R   0.680700 0.294870 0.629350 -0.624348
O19   O     O_R   0.319300 0.705130 0.370650 -0.641096
O20   O     O_R   0.319300 0.294870 0.370650 -0.642667
O21   O     O_R   0.680700 0.705130 0.629350 -0.633610
O22   O     O_R   0.180700 0.794870 0.629350 -0.624354
O23   O     O_R   0.253510 0.236330 0.361920 -0.615568
O24   O     O_R   0.819300 0.205130 0.370650 -0.641094
O25   O     O_R   0.819300 0.794870 0.370650 -0.642637
O26   O     O_R   0.180700 0.205130 0.629350 -0.633666
O27   O     O_R   0.062020 0.072840 0.007170 -0.615417
O28   O     O_R   0.937980 0.927160 0.992830 -0.602418
O29   O     O_R   0.937980 0.072840 0.992830 -0.621290
O30   O     O_R   0.062020 0.927160 0.007170 -0.635058
O31   O     O_R   0.562020 0.572840 0.007170 -0.615382
O32   O     O_R   0.437980 0.427160 0.992830 -0.602492
O33   O     O_R   0.437980 0.572840 0.992830 -0.621468
O34   O     O_R   0.746490 0.763670 0.638080 -0.609969
O35   O     O_R   0.562020 0.427160 0.007170 -0.634982
O36   O     O_R   0.947860 0.073950 0.109290 -0.619996
O37   O     O_R   0.052140 0.926050 0.890710 -0.633547
O38   O     O_R   0.052140 0.073950 0.890710 -0.628560
O39   O     O_R   0.947860 0.926050 0.109290 -0.622838
O40   O     O_R   0.447860 0.573950 0.109290 -0.619944
O41   O     O_R   0.552140 0.426050 0.890710 -0.633568
O42   O     O_R   0.552140 0.573950 0.890710 -0.628610
O43   O     O_R   0.447860 0.426050 0.109290 -0.622744
O44   O     O_R   0.246490 0.736330 0.638080 -0.620766
O45   O     O_R   0.753510 0.263670 0.361920 -0.638131
O46   O     O_R   0.753510 0.736330 0.361920 -0.615587
O47   O     O_R   0.246490 0.263670 0.638080 -0.609929
O48   O     O_R   0.674170 0.186160 0.516270 -0.653194
Zn1   Zn    Zn3+2 0.792340 0.208750 0.507670 0.910791
Zn2   Zn    Zn3+2 0.494040 0.500000 0.919480 0.925299
Zn3   Zn    Zn3+2 0.005960 0.000000 0.080520 0.920525
Zn4   Zn    Zn3+2 0.994040 0.000000 0.919480 0.925574
Zn5   Zn    Zn3+2 0.207660 0.791250 0.492330 0.916393
Zn6   Zn    Zn3+2 0.207660 0.208750 0.492330 0.920606
Zn7   Zn    Zn3+2 0.792340 0.791250 0.507670 0.922067
Zn8   Zn    Zn3+2 0.292340 0.708750 0.507670 0.910759
Zn9   Zn    Zn3+2 0.707660 0.291250 0.492330 0.916408
Zn10  Zn    Zn3+2 0.707660 0.708750 0.492330 0.920554
Zn11  Zn    Zn3+2 0.292340 0.291250 0.507670 0.922116
Zn12  Zn    Zn3+2 0.505960 0.500000 0.080520 0.920586

loop_
_geom_bond_atom_site_label_1
_geom_bond_atom_site_label_2
_ccdc_geom_bond_type
C49   C113  A    
C105  C110  A    
C173  C188  A    
C126  C127  A    
C31   C42   A    
C7    O30   A    
C218  C227  A    
O1    Zn1   S    
C50   C79   A    
C14   C33   A    
C114  C115  A    
C19   C46   A    
C124  C175  A    
C16   C31   A    
C130  H118  S    
O34   Zn7   S    
C111  C118  A    
C50   C59   A    
C56   C238  S    
C187  O34   A    
C52   C61   A    
C162  H21   S    
C106  C107  A    
C176  O20   A    
C143  C144  A    
C34   C37   A    
O16   Zn10  S    
C208  C217  A    
C108  C109  A    
C83   H79   S    
C121  H110  S    
C157  C179  A    
C147  H8    S    
C101  H63   S    
C44   C53   A    
C215  H43   S    
C216  H44   S    
C233  H52   S    
C169  H27   S    
C29   H1    S    
C170  H28   S    
C234  H53   S    
O4    Zn10  S    
C212  H40   S    
C150  H11   S    
C241  O14   A    
C39   C242  A    
C67   H66   S    
C161  H20   S    
C183  C192  A    
C228  H47   S    
C58   C64   A    
C77   H75   S    
C197  C206  A    
C143  H6    S    
C102  H95   S    
C7    C206  S    
C13   C41   A    
C233  C250  A    
C197  H34   S    
C73   H71   S    
C173  C252  S    
O7    Zn7   S    
C95   H89   S    
C55   C244  S    
C165  C183  S    
C140  C141  A    
C135  C177  A    
C35   H56   S    
C179  C188  A    
C168  C180  A    
C6    O36   A    
C224  C233  A    
C157  C191  A    
C9    O32   A    
C181  C190  A    
C214  H42   S    
C26   H59   S    
C76   C77   A    
C127  H115  S    
C63   H13   S    
C154  C155  A    
C243  O15   A    
C151  H12   S    
O41   Zn2   S    
C173  C182  A    
C238  O10   A    
C75   H73   S    
C35   C45   A    
C223  C232  A    
C15   C30   A    
C105  C106  A    
O9    Zn1   S    
C16   C25   A    
C209  O45   A    
C89   H85   S    
C117  H107  S    
C72   C73   A    
C157  C249  S    
C139  C140  A    
C22   H92   S    
C85   C191  S    
C69   H67   S    
C156  C158  A    
C130  C131  A    
C18   C38   A    
C217  H45   S    
C48   C101  A    
C12   C21   A    
C207  C216  A    
C153  H14   S    
C124  C246  S    
C8    C205  S    
C139  C179  S    
C2    C45   A    
C49   C58   A    
C70   H68   S    
C178  C186  A    
C2    C40   A    
C8    O31   A    
C125  H113  S    
C88   C89   A    
C98   C99   A    
C155  C156  A    
C152  C181  S    
C109  C110  A    
C4    O27   A    
C99   H93   S    
C236  H55   S    
C132  C178  S    
C238  O2    A    
C163  H22   S    
C165  C171  A    
C227  C231  S    
C146  C248  S    
C27   C29   A    
C164  H23   S    
C147  C148  A    
C202  C211  A    
O5    Zn5   S    
C128  C129  A    
C167  C169  A    
C76   H74   S    
C85   C86   A    
C112  O12   A    
C176  C222  S    
C225  C234  A    
C53   C241  S    
C37   C40   A    
C107  H99   S    
C180  C189  A    
C51   C90   A    
C38   C39   A    
C245  O8    A    
C78   C80   A    
C43   C52   A    
C198  O22   A    
C228  C246  A    
C170  C171  A    
C114  H104  S    
C115  C116  A    
O20   Zn11  S    
C146  C178  A    
C139  C144  A    
C54   C245  S    
C20   C35   A    
C172  C181  A    
O25   Zn7   S    
C176  O23   A    
C2    C44   A    
C22   C25   A    
C193  C246  A    
C30   C41   A    
O44   Zn8   S    
C219  C228  A    
C89   C91   A    
C66   C67   A    
C133  H120  S    
C13   C51   A    
C69   C70   A    
C235  C252  A    
C199  C207  A    
O27   Zn3   S    
C92   C97   A    
C43   C242  A    
C24   C50   A    
C71   H69   S    
C34   C39   A    
C135  C247  S    
O15   Zn9   S    
C154  H15   S    
C52   C243  S    
C220  O25   A    
O24   Zn1   S    
C245  O17   A    
C1    O18   A    
C118  H108  S    
C195  H32   S    
C11   C202  S    
C198  O44   A    
C244  O16   A    
C9    C204  S    
O32   Zn2   S    
C3    C174  S    
C83   C84   A    
O17   Zn11  S    
C122  H111  S    
C220  C226  S    
C140  H3    S    
C19   C28   A    
O46   Zn10  S    
C115  H105  S    
C239  O3    A    
C220  O46   A    
C120  C121  A    
C129  C130  A    
C109  H101  S    
C111  C186  S    
C81   H77   S    
C141  H4    S    
C4    O38   A    
C231  O26   A    
C136  C137  A    
C5    O39   A    
C234  C251  A    
C47   C242  A    
C94   H88   S    
C168  C250  S    
C217  C226  A    
O36   Zn3   S    
C14   C22   A    
C59   C240  S    
O6    Zn1   S    
C117  C118  A    
C112  O19   A    
C166  C167  A    
C187  C223  S    
O2    Zn8   S    
O26   Zn6   S    
O28   Zn4   S    
O12   Zn5   S    
C98   C184  S    
C102  C103  A    
C108  H100  S    
C214  C223  A    
C43   C57   A    
C229  C247  A    
C66   H65   S    
C152  C153  A    
C222  C230  A    
C200  C208  A    
O43   Zn12  S    
C150  C151  A    
C51   C60   A    
C206  C215  A    
C87   C88   A    
C112  C221  S    
C201  H38   S    
O29   Zn4   S    
C24   C42   A    
C73   C74   A    
C201  C210  A    
C229  H49   S    
C103  H96   S    
C215  C224  A    
C124  C190  A    
C161  C162  A    
C131  H119  S    
C227  C236  A    
C193  H30   S    
C91   H86   S    
C105  C188  S    
C28   H37   S    
C123  C125  A    
C138  H124  S    
C132  C138  A    
C10   O40   A    
C177  C185  A    
C62   H2    S    
C97   H91   S    
C82   H78   S    
C144  H7    S    
C211  H39   S    
O40   Zn12  S    
C90   H62   S    
C119  C175  S    
C95   C96   A    
O33   Zn2   S    
C70   C71   A    
C120  H109  S    
C230  H50   S    
C58   C237  S    
C10   C203  S    
C166  H25   S    
C155  H16   S    
O10   Zn5   S    
C8    O42   A    
C6    O29   A    
C243  O6    A    
C209  C225  S    
C145  C147  A    
O22   Zn5   S    
C152  C158  A    
C241  O5    A    
O21   Zn10  S    
C80   H76   S    
C78   C192  S    
O3    Zn11  S    
C86   C87   A    
C14   C101  A    
C195  C204  A    
C54   C62   A    
C116  H106  S    
C23   H81   S    
C193  C202  A    
C244  O7    A    
C93   H87   S    
C198  C224  S    
C3    C236  A    
C134  H121  S    
C159  C160  A    
C84   H80   S    
C60   C239  S    
C121  C122  A    
O14   Zn8   S    
C119  C125  A    
C194  C247  A    
C21   C23   A    
C133  C134  A    
C3    C201  A    
C182  C191  A    
C123  H112  S    
C149  H10   S    
C211  C219  A    
O35   Zn12  S    
C162  C163  A    
C46   C47   A    
C17   C68   A    
C172  C251  S    
O8    Zn6   S    
C27   H48   S    
C200  H36   S    
C174  C183  A    
C119  C120  A    
C231  O47   A    
C156  H17   S    
C195  C248  A    
C216  C225  A    
C158  H18   S    
C11   O35   A    
C16   C79   A    
C33   C41   A    
C36   C38   A    
O37   Zn4   S    
C5    O28   A    
C149  C150  A    
C200  C252  A    
C5    C208  S    
C87   H83   S    
C197  C250  A    
C61   H114  S    
C145  C180  S    
C92   C93   A    
C111  C114  A    
C74   H72   S    
C159  C182  S    
C94   C95   A    
C20   C36   A    
C104  H97   S    
C65   C190  S    
C160  H19   S    
C82   C83   A    
C221  C229  A    
C103  C104  A    
C32   C42   A    
C142  C143  A    
C68   H60   S    
C79   H61   S    
C142  H5    S    
C209  O24   A    
C175  C184  A    
O47   Zn11  S    
C165  C166  A    
O45   Zn9   S    
C169  C170  A    
C163  C164  A    
C75   C76   A    
C218  H46   S    
C81   C82   A    
C85   C91   A    
C64   H24   S    
C59   C64   A    
C106  H98   S    
O39   Zn3   S    
C20   C29   A    
O38   Zn4   S    
C60   C63   A    
C17   C26   A    
C57   H58   S    
C235  H54   S    
O48   Zn9   S    
C55   C61   A    
C4    C210  S    
C116  C117  A    
C126  C177  S    
C213  C222  A    
C196  C205  A    
C135  C189  A    
C18   C57   A    
C25   H70   S    
C132  C133  A    
C196  C249  A    
C31   C33   A    
C7    O37   A    
C237  O48   A    
C148  H9    S    
O30   Zn3   S    
C213  H41   S    
C15   C23   A    
C136  H122  S    
C12   C32   A    
C146  C192  A    
O19   Zn8   S    
C46   H57   S    
C239  O11   A    
C240  O4    A    
C232  H51   S    
C212  C221  A    
C237  O9    A    
C1    O1    A    
C74   C75   A    
C9    O43   A    
C36   C40   A    
C96   H90   S    
C148  C149  A    
C92   C185  S    
C134  C136  A    
C65   C71   A    
C204  C213  A    
C226  C235  A    
C67   C69   A    
C72   C77   A    
C128  H116  S    
C53   C62   A    
C172  C184  A    
C99   C100  A    
O42   Zn2   S    
C107  C108  A    
C96   C97   A    
C100  C102  A    
C56   C63   A    
C100  H94   S    
C1    C219  S    
C93   C94   A    
C17   C37   A    
O13   Zn7   S    
C167  H26   S    
C6    C207  S    
C145  C151  A    
C129  H117  S    
C88   H84   S    
C199  C251  A    
C45   C54   A    
C194  H31   S    
C21   H103  S    
C203  C212  A    
C44   C68   A    
C196  H33   S    
C72   C189  S    
C11   O41   A    
C230  C248  A    
C187  O21   A    
C47   C55   A    
C12   C113  A    
C110  H102  S    
C24   C49   A    
C48   C56   A    
C168  C185  A    
C159  C164  A    
C113  H64   S    
C18   C27   A    
C80   C81   A    
C19   C34   A    
C205  C214  A    
C13   C48   A    
C232  C249  A    
C199  H35   S    
C137  C138  A    
O11   Zn6   S    
C26   C28   A    
C210  C218  A    
C240  O13   A    
C160  C161  A    
C86   H82   S    
C122  C123  A    
C141  C142  A    
C174  C186  A    
C15   C90   A    
C30   C32   A    
O31   Zn12  S    
C126  C131  A    
C98   C104  A    
C194  C203  A    
C10   O33   A    
C137  H123  S    
C78   C84   A    
C65   C66   A    
O23   Zn6   S    
C153  C154  A    
C171  H29   S    
O18   Zn9   S    
C127  C128  A    
