data_mof_unit_33091.cif
_audit_creation_date              2013-03-05T16:12:37-0500
_audit_creation_method            fapswitch 2.2
_symmetry_space_group_name_H-M    P1
_symmetry_Int_Tables_number       1
_space_group_crystal_system       triclinic
_cell_length_a                    23.894797
_cell_length_b                    21.388333
_cell_length_c                    14.724979
_cell_angle_alpha                 89.430472
_cell_angle_beta                  89.705061
_cell_angle_gamma                 90.210699
_cell_volume                      7524.96938468

loop_
_atom_site_label
_atom_site_type_symbol
_atom_site_description
_atom_site_fract_x
_atom_site_fract_y
_atom_site_fract_z
_atom_type_partial_charge
O1    O     O_R   0.060270 0.439640 0.575970 -0.549868
O2    O     O_R   0.060270 0.439640 0.424030 -0.568504
O3    O     O_R   0.060270 0.560360 0.424030 -0.564894
O4    O     O_R   0.060270 0.560360 0.575970 -0.559210
O5    O     O_R   0.560270 0.939640 0.575970 -0.564368
O6    O     O_R   0.560270 0.939640 0.424030 -0.556872
O7    O     O_R   0.560270 0.060360 0.424030 -0.569964
O8    O     O_R   0.560270 0.060360 0.575970 -0.556454
C1    C     C_R   0.077103 0.416644 0.500066 0.826098
C2    C     C_R   0.078620 0.581761 0.499773 0.820929
C3    C     C_R   0.576625 0.916405 0.500386 0.822371
C4    C     C_R   0.579223 0.080987 0.499844 0.814767
O9    O     O_R   0.939710 0.439640 0.575970 -0.547346
O10   O     O_R   0.939710 0.439640 0.424030 -0.554980
O11   O     O_R   0.939710 0.560360 0.424030 -0.567610
O12   O     O_R   0.939710 0.560360 0.575970 -0.554417
O13   O     O_R   0.439710 0.939640 0.575970 -0.551907
O14   O     O_R   0.439710 0.939640 0.424030 -0.563044
O15   O     O_R   0.439710 0.060360 0.424030 -0.542175
O16   O     O_R   0.439710 0.060360 0.575970 -0.558925
C5    C     C_R   0.918738 0.421545 0.500673 0.818885
C6    C     C_R   0.919950 0.580351 0.499713 0.813879
C7    C     C_R   0.419778 0.920346 0.500465 0.820021
C8    C     C_R   0.421225 0.081688 0.499865 0.829134
Cu1   Cu    Cu3+1 0.999990 0.500000 0.589920 1.064087
Cu2   Cu    Cu3+1 0.999990 0.500000 0.410080 1.039975
Cu3   Cu    Cu3+1 0.499990 1.000000 0.589920 1.055790
Cu4   Cu    Cu3+1 0.499990 0.000000 0.410080 1.051852
C9    C     C_3   0.785119 0.260972 0.601282 -0.025232
C10   C     C_3   0.788830 0.259993 0.408248 -0.012363
C11   C     C_3   0.775129 0.729916 0.393550 -0.004181
C12   C     C_3   0.797685 0.758853 0.575040 -0.039060
C13   C     C_3   0.297766 0.746895 0.584590 -0.010403
C14   C     C_3   0.287571 0.763571 0.394721 -0.022794
C15   C     C_3   0.298737 0.260758 0.418377 -0.010369
C16   C     C_3   0.281917 0.235427 0.606976 -0.033160
C17   C     C_3   0.239351 0.706744 0.403163 0.438992
C18   C     C_3   0.240909 0.702292 0.591865 0.454020
C19   C     C_3   0.225171 0.281187 0.607241 0.461011
C20   C     C_3   0.245345 0.309590 0.426019 0.460911
C21   C     C_3   0.742327 0.204265 0.418900 0.443189
C22   C     C_3   0.730091 0.212496 0.604021 0.487025
C23   C     C_3   0.744461 0.808689 0.570558 0.419629
C24   C     C_3   0.719311 0.776956 0.396081 0.486026
C25   C     C_1   0.120564 0.629691 0.499918 -0.043913
C26   C     C_1   0.116687 0.366174 0.499832 -0.032572
C27   C     C_1   0.620503 0.129441 0.500412 -0.034779
C28   C     C_1   0.614969 0.865128 0.501886 -0.022421
C29   C     C_3   0.782323 0.302926 0.503296 -0.163189
C30   C     C_3   0.784594 0.701657 0.499823 -0.142368
C31   C     C_3   0.287278 0.797611 0.497496 -0.173813
C32   C     C_3   0.289200 0.206126 0.501015 -0.142243
C33   C     C_3   0.202770 0.716187 0.499537 -0.247782
C34   C     C_3   0.199966 0.281105 0.501768 -0.233605
C35   C     C_3   0.698558 0.220272 0.503870 -0.247343
C36   C     C_3   0.696621 0.778825 0.502704 -0.238324
C37   C     C_3   0.174363 0.787569 0.503521 -0.033123
C38   C     C_3   0.178266 0.208712 0.474539 -0.073771
C39   C     C_3   0.669689 0.291894 0.495182 -0.076782
C40   C     C_3   0.675172 0.707509 0.538414 -0.080061
C41   C     C_3   0.722723 0.344544 0.500012 0.443040
C42   C     C_3   0.730368 0.659034 0.536090 0.423613
C43   C     C_3   0.228062 0.838032 0.512777 0.445523
C44   C     C_3   0.233664 0.160443 0.479641 0.427904
C45   C     C_1   0.156495 0.669600 0.500129 0.192447
C46   C     C_1   0.151880 0.325512 0.499603 0.190896
C47   C     C_1   0.654523 0.171321 0.501441 0.213747
C48   C     C_1   0.649151 0.823666 0.503193 0.189680
C49   C     C_1   0.830740 0.346769 0.503086 0.087138
C50   C     C_1   0.834295 0.659007 0.498782 0.081953
C51   C     C_1   0.334825 0.842084 0.499493 0.092230
C52   C     C_1   0.339146 0.164498 0.500634 0.062150
C53   C     C_1   0.870626 0.381593 0.502764 -0.102273
C54   C     C_1   0.873697 0.623390 0.498725 -0.105688
C55   C     C_1   0.373652 0.878014 0.501219 -0.098692
C56   C     C_1   0.377408 0.127503 0.499796 -0.100673
C57   C     C_3   0.948791 0.549192 0.057005 0.273934
C58   C     C_3   0.953514 0.553740 0.943225 0.304393
C59   C     C_3   0.978962 0.428904 0.944707 0.293845
C60   C     C_3   0.984227 0.428144 0.057414 0.305938
C61   C     C_3   0.465056 0.065071 0.056234 0.264631
C62   C     C_3   0.469467 0.066657 0.942465 0.316850
C63   C     C_3   0.462722 0.939117 0.943869 0.291176
C64   C     C_3   0.465946 0.937591 0.056868 0.298891
N1    N     N_1   0.000150 0.500000 0.724970 -0.129905
N2    N     N_1   0.000150 0.500000 0.275030 -0.132622
N3    N     N_1   0.500150 0.000000 0.724970 -0.127579
N4    N     N_1   0.500150 0.000000 0.275030 -0.132576
C65   C     C_3   0.995629 0.499696 0.092071 -0.065885
C66   C     C_3   0.995124 0.497927 0.907723 -0.099382
C67   C     C_3   0.496024 0.002110 0.091997 -0.065453
C68   C     C_3   0.495707 0.000208 0.907698 -0.102184
C69   C     C_3   0.054568 0.512761 0.945592 -0.502613
C70   C     C_3   0.051915 0.524537 0.049223 -0.482844
C71   C     C_3   0.556354 0.995864 0.946553 -0.506017
C72   C     C_3   0.556473 0.006966 0.050260 -0.482484
C73   C     C_1   0.998918 0.498745 0.804397 0.269976
C74   C     C_1   0.999824 0.499908 0.195397 0.272983
C75   C     C_1   0.499342 0.999575 0.804392 0.278470
C76   C     C_1   0.499697 0.000686 0.195385 0.270759
H1    H     H_    0.057110 0.575073 0.060484 0.188465
H2    H     H_    0.074333 0.553580 0.910938 0.212262
H3    H     H_    0.084427 0.475488 0.928777 0.202930
H4    H     H_    0.090078 0.509000 0.083306 0.210231
H5    H     H_    0.575339 0.053224 0.062453 0.193529
H6    H     H_    0.585251 0.029596 0.912689 0.215161
H7    H     H_    0.576118 0.950665 0.930781 0.204009
H8    H     H_    0.588050 0.978304 0.084431 0.210115
N5    N     N_R   0.256054 0.634605 0.603630 0.161200
O17   O     O_R   0.217212 0.591858 0.599250 -0.227132
O18   O     O_R   0.295498 0.619920 0.659880 -0.372913
N6    N     N_R   0.267264 0.644114 0.400089 0.096753
O19   O     O_R   0.293929 0.629360 0.326064 -0.341286
O20   O     O_R   0.243537 0.596222 0.438801 -0.236350
N7    N     N_R   0.265793 0.373326 0.453460 0.136101
O21   O     O_R   0.257254 0.422479 0.402421 -0.227788
O22   O     O_R   0.300011 0.382023 0.519822 -0.395198
N8    N     N_R   0.238047 0.345161 0.641728 0.186483
O23   O     O_R   0.258401 0.350555 0.723118 -0.328016
O24   O     O_R   0.209912 0.393511 0.613430 -0.249639
N9    N     N_R   0.747681 0.147591 0.628242 0.175295
O25   O     O_R   0.725578 0.099088 0.589445 -0.242091
O26   O     O_R   0.762500 0.137791 0.712147 -0.338354
N10   N     N_R   0.767174 0.141121 0.436511 0.151396
O27   O     O_R   0.809580 0.130968 0.488972 -0.403706
O28   O     O_R   0.742275 0.091643 0.404602 -0.198401
N11   N     N_R   0.734847 0.839042 0.356616 0.140435
O29   O     O_R   0.712484 0.890221 0.386587 -0.252070
O30   O     O_R   0.744190 0.840093 0.269387 -0.372821
N12   N     N_R   0.758569 0.873951 0.539219 0.170905
O31   O     O_R   0.802071 0.890155 0.491859 -0.384738
O32   O     O_R   0.726050 0.919751 0.563725 -0.202429
C77   C     C_3   0.847009 0.231294 0.604957 -0.315813
C78   C     C_3   0.867140 0.175708 0.664897 -0.237404
C79   C     C_3   0.930900 0.171989 0.664326 -0.946962
H9    H     H_    0.946545 0.168570 0.593367 0.270527
H10   H     H_    0.949377 0.214003 0.696545 0.260481
H11   H     H_    0.944440 0.129929 0.703109 0.269824
H12   H     H_    0.854579 0.178433 0.736606 0.235637
H13   H     H_    0.852372 0.130576 0.637669 0.306679
H14   H     H_    0.860473 0.218943 0.539090 0.219207
H15   H     H_    0.876816 0.270078 0.619017 0.177241
C80   C     C_3   0.848940 0.231709 0.378319 -0.288682
C81   C     C_3   0.899950 0.276153 0.374994 -0.429750
C82   C     C_3   0.947028 0.250857 0.316840 -0.843821
H16   H     H_    0.962096 0.205638 0.345056 0.259363
H17   H     H_    0.933471 0.244515 0.245514 0.276637
H18   H     H_    0.981385 0.285773 0.318049 0.259088
H19   H     H_    0.889560 0.322947 0.347450 0.267784
H20   H     H_    0.917327 0.280871 0.444295 0.203993
H21   H     H_    0.865248 0.189809 0.410859 0.229634
H22   H     H_    0.843868 0.210385 0.310620 0.239320
C83   C     C_3   0.836304 0.756444 0.358781 -0.339926
C84   C     C_3   0.851082 0.820711 0.315044 -0.253467
C85   C     C_3   0.913905 0.834415 0.318092 -0.923469
H23   H     H_    0.927361 0.845573 0.388118 0.266847
H24   H     H_    0.937702 0.793502 0.294940 0.252630
H25   H     H_    0.924087 0.875009 0.273311 0.276268
H26   H     H_    0.839270 0.820305 0.242262 0.246457
H27   H     H_    0.831633 0.860520 0.348794 0.313630
H28   H     H_    0.868117 0.745984 0.407818 0.180636
H29   H     H_    0.856780 0.723510 0.311706 0.169067
C86   C     C_3   0.856924 0.792743 0.562096 -0.252418
C87   C     C_3   0.911806 0.754508 0.575239 -0.426027
C88   C     C_3   0.958251 0.795149 0.612261 -0.891527
H30   H     H_    0.964577 0.836398 0.567023 0.270896
H31   H     H_    0.947897 0.811487 0.681576 0.262060
H32   H     H_    0.997150 0.767103 0.614901 0.252266
H33   H     H_    0.907274 0.712977 0.619676 0.232040
H34   H     H_    0.927917 0.736634 0.509919 0.201494
H35   H     H_    0.862831 0.815941 0.497357 0.231635
H36   H     H_    0.857869 0.833399 0.608053 0.238086
C89   C     C_3   0.352419 0.707041 0.560026 -0.316476
C90   C     C_3   0.397831 0.680617 0.626065 -0.261298
C91   C     C_3   0.447246 0.725058 0.643800 -0.946230
H37   H     H_    0.466304 0.741164 0.579107 0.250258
H38   H     H_    0.435535 0.766992 0.682283 0.263566
H39   H     H_    0.479245 0.699819 0.683929 0.256554
H40   H     H_    0.382169 0.660378 0.690202 0.254054
H41   H     H_    0.416772 0.639660 0.591590 0.216916
H42   H     H_    0.339132 0.666453 0.519996 0.204325
H43   H     H_    0.378583 0.737115 0.518188 0.198184
C92   C     C_3   0.347808 0.737087 0.359841 -0.314395
C93   C     C_3   0.399925 0.781058 0.349541 -0.416132
C94   C     C_3   0.441304 0.756992 0.278472 -0.852785
H44   H     H_    0.448547 0.706078 0.287129 0.270162
H45   H     H_    0.425447 0.765593 0.208787 0.258362
H46   H     H_    0.481662 0.782021 0.286236 0.255106
H47   H     H_    0.389545 0.829475 0.329591 0.254572
H48   H     H_    0.423300 0.784060 0.413906 0.198472
H49   H     H_    0.362843 0.694128 0.392158 0.197926
H50   H     H_    0.341844 0.718284 0.291228 0.252453
C95   C     C_3   0.359515 0.293725 0.424872 -0.327591
C96   C     C_3   0.373280 0.356102 0.372561 -0.239235
C97   C     C_3   0.433266 0.358810 0.337007 -0.933507
H51   H     H_    0.462974 0.350805 0.393724 0.262949
H52   H     H_    0.440267 0.323584 0.284241 0.249785
H53   H     H_    0.441896 0.405616 0.306611 0.272828
H54   H     H_    0.343458 0.367816 0.318490 0.244830
H55   H     H_    0.371646 0.396410 0.419046 0.280440
H56   H     H_    0.370913 0.304703 0.492838 0.208951
H57   H     H_    0.392144 0.258795 0.407210 0.173526
C98   C     C_3   0.336598 0.271530 0.642839 -0.268879
C99   C     C_3   0.394853 0.239446 0.639781 -0.429573
C100  C     C_3   0.438347 0.278341 0.689479 -0.894351
H58   H     H_    0.441773 0.325545 0.657793 0.274783
H59   H     H_    0.426631 0.283231 0.762115 0.268313
H60   H     H_    0.479643 0.254998 0.684491 0.258047
H61   H     H_    0.393594 0.191995 0.670432 0.243687
H62   H     H_    0.411438 0.234609 0.570279 0.211961
H63   H     H_    0.340899 0.319325 0.618688 0.246767
H64   H     H_    0.331298 0.282592 0.714945 0.234420
C101  C     C_3   0.778139 0.305851 0.321480 -0.323030
C102  C     C_3   0.798815 0.296781 0.221355 -0.400684
C103  C     C_3   0.782874 0.353274 0.162207 -0.634067
H65   H     H_    0.736673 0.358736 0.160408 0.235332
H66   H     H_    0.801961 0.396778 0.188884 0.310048
H67   H     H_    0.798144 0.346456 0.091654 0.272279
H68   H     H_    0.844864 0.292805 0.216716 0.263610
H69   H     H_    0.780573 0.256174 0.187433 0.280756
H70   H     H_    0.734292 0.316452 0.313913 0.201315
H71   H     H_    0.800753 0.349002 0.336521 0.252566
C104  C     C_3   0.787197 0.306715 0.687033 -0.266637
C105  C     C_3   0.808904 0.282730 0.780195 -0.359836
C106  C     C_3   0.792924 0.327324 0.856529 -0.627688
H72   H     H_    0.805276 0.375940 0.838366 0.312486
H73   H     H_    0.747069 0.326056 0.868947 0.260400
H74   H     H_    0.814428 0.313134 0.920118 0.251694
H75   H     H_    0.792005 0.236126 0.798456 0.286954
H76   H     H_    0.855359 0.280223 0.778840 0.215856
H77   H     H_    0.816810 0.345361 0.672190 0.231643
H78   H     H_    0.746715 0.328870 0.699768 0.252943
C107  C     C_3   0.803645 0.729832 0.676173 -0.265587
C108  C     C_3   0.838240 0.761800 0.753211 -0.335512
C109  C     C_3   0.814406 0.746453 0.847578 -0.757579
H79   H     H_    0.771862 0.766414 0.855488 0.287436
H80   H     H_    0.811997 0.695050 0.857939 0.286857
H81   H     H_    0.841809 0.766622 0.900562 0.232909
H82   H     H_    0.881325 0.744049 0.752398 0.204151
H83   H     H_    0.843193 0.812912 0.747354 0.264948
H84   H     H_    0.762133 0.722281 0.705026 0.233159
H85   H     H_    0.823787 0.683609 0.671992 0.222012
C110  C     C_3   0.766767 0.675428 0.321537 -0.273626
C111  C     C_3   0.768134 0.693754 0.218296 -0.337926
C112  C     C_3   0.749630 0.639119 0.159297 -0.707700
H86   H     H_    0.777133 0.598115 0.171166 0.288657
H87   H     H_    0.705660 0.625747 0.174887 0.282417
H88   H     H_    0.752575 0.652805 0.086457 0.244329
H89   H     H_    0.742392 0.735002 0.201829 0.299902
H90   H     H_    0.810259 0.706959 0.194771 0.187927
H91   H     H_    0.801210 0.641079 0.329154 0.218299
H92   H     H_    0.728666 0.648311 0.334291 0.259852
C113  C     C_3   0.277578 0.815500 0.315897 -0.257729
C114  C     C_3   0.292231 0.803572 0.213527 -0.343434
C115  C     C_3   0.260798 0.848294 0.150156 -0.608414
H93   H     H_    0.214864 0.841879 0.157471 0.249960
H94   H     H_    0.271775 0.897515 0.165912 0.293597
H95   H     H_    0.272459 0.838817 0.078510 0.257210
H96   H     H_    0.337347 0.811918 0.201088 0.243013
H97   H     H_    0.283923 0.755059 0.191558 0.267124
H98   H     H_    0.236216 0.834965 0.316317 0.217684
H99   H     H_    0.304250 0.855986 0.330497 0.231810
C116  C     C_3   0.315796 0.782691 0.676604 -0.183516
C117  C     C_3   0.324780 0.746803 0.768627 -0.325926
C118  C     C_3   0.309708 0.785957 0.852438 -0.728764
H100  H     H_    0.327153 0.833922 0.846069 0.282522
H101  H     H_    0.263951 0.789823 0.862635 0.306739
H102  H     H_    0.327166 0.763535 0.914441 0.228032
H103  H     H_    0.301243 0.702278 0.772172 0.295277
H104  H     H_    0.369353 0.736103 0.778473 0.200838
H105  H     H_    0.354604 0.809563 0.663344 0.168546
H106  H     H_    0.287940 0.820095 0.694079 0.277709
C119  C     C_3   0.276389 0.179308 0.680577 -0.290901
C120  C     C_3   0.293013 0.186545 0.782651 -0.361496
C121  C     C_3   0.266775 0.134637 0.841429 -0.576819
H107  H     H_    0.220430 0.135509 0.836431 0.246486
H108  H     H_    0.282184 0.088215 0.819445 0.296232
H109  H     H_    0.277959 0.141541 0.913712 0.265822
H110  H     H_    0.338959 0.183193 0.790523 0.242644
H111  H     H_    0.280947 0.231929 0.812193 0.270144
H112  H     H_    0.233036 0.162187 0.681910 0.251007
H113  H     H_    0.303448 0.140337 0.659470 0.237112
C122  C     C_3   0.305841 0.225494 0.322918 -0.248956
C123  C     C_3   0.331716 0.256315 0.235901 -0.338807
C124  C     C_3   0.316705 0.219156 0.151001 -0.747918
H114  H     H_    0.330777 0.169995 0.158016 0.297606
H115  H     H_    0.270775 0.219414 0.139883 0.280476
H116  H     H_    0.337079 0.240837 0.090462 0.236012
H117  H     H_    0.318227 0.304580 0.222383 0.276555
H118  H     H_    0.377749 0.256626 0.241216 0.194194
H119  H     H_    0.336070 0.187295 0.333589 0.221497
H120  H     H_    0.267057 0.203669 0.301890 0.236015
N13   N     N_R   0.198968 0.701953 0.325680 0.133207
O33   O     O_R   0.171447 0.649726 0.315670 -0.306392
O34   O     O_R   0.197508 0.739649 0.256541 -0.417409
N14   N     N_R   0.205050 0.712637 0.673439 0.103546
O35   O     O_R   0.163120 0.674975 0.690005 -0.345002
O36   O     O_R   0.213834 0.755136 0.733525 -0.381158
N15   N     N_R   0.180286 0.261577 0.673187 0.082755
O37   O     O_R   0.131072 0.286935 0.665914 -0.410939
O38   O     O_R   0.192761 0.247192 0.756346 -0.361831
N16   N     N_R   0.214244 0.322032 0.338236 0.104081
O39   O     O_R   0.178651 0.368003 0.333517 -0.347200
O40   O     O_R   0.225922 0.297260 0.260781 -0.442041
N17   N     N_R   0.715538 0.195695 0.328513 0.111392
O41   O     O_R   0.747395 0.174212 0.264205 -0.346461
O42   O     O_R   0.663362 0.180308 0.320997 -0.385104
N18   N     N_R   0.686971 0.223000 0.677022 0.084366
O43   O     O_R   0.643797 0.185618 0.679730 -0.379370
O44   O     O_R   0.698232 0.247825 0.754719 -0.386528
N19   N     N_R   0.722155 0.821046 0.664221 0.093969
O45   O     O_R   0.755720 0.847991 0.720822 -0.329966
O46   O     O_R   0.670016 0.835824 0.677168 -0.390477
N20   N     N_R   0.669220 0.761405 0.337784 0.102162
O47   O     O_R   0.634180 0.806526 0.320184 -0.367392
O48   O     O_R   0.663378 0.713053 0.286312 -0.440775
N21   N     N_R   0.720061 0.387766 0.579314 0.109420
O49   O     O_R   0.764429 0.420346 0.598935 -0.280014
O50   O     O_R   0.674420 0.418023 0.595951 -0.303998
N22   N     N_R   0.721845 0.391777 0.424131 0.107376
O51   O     O_R   0.675084 0.418712 0.402717 -0.337521
O52   O     O_R   0.765028 0.428606 0.413929 -0.273523
N23   N     N_R   0.719715 0.603197 0.477641 0.098418
O53   O     O_R   0.679083 0.565583 0.501065 -0.284776
O54   O     O_R   0.761644 0.574383 0.440202 -0.296509
N24   N     N_R   0.745364 0.626513 0.623849 0.123254
O55   O     O_R   0.715354 0.626825 0.697220 -0.385666
O56   O     O_R   0.783907 0.583542 0.622426 -0.238888
N25   N     N_R   0.232083 0.872126 0.600570 0.126801
O57   O     O_R   0.197534 0.866253 0.668016 -0.357393
O58   O     O_R   0.268677 0.917165 0.607653 -0.254093
N26   N     N_R   0.222630 0.891898 0.447086 0.092848
O59   O     O_R   0.266461 0.925476 0.426320 -0.275356
O60   O     O_R   0.176665 0.924078 0.446427 -0.343421
N27   N     N_R   0.239147 0.122391 0.394804 0.094833
O61   O     O_R   0.287629 0.100288 0.371092 -0.303382
O62   O     O_R   0.198118 0.084883 0.374811 -0.310119
N28   N     N_R   0.231173 0.108131 0.548567 0.121739
O63   O     O_R   0.272073 0.067977 0.550246 -0.246320
O64   O     O_R   0.185518 0.087736 0.586230 -0.366655
C125  C     C_3   0.126432 0.793517 0.580764 -0.241292
C126  C     C_3   0.092425 0.855547 0.585929 -0.338768
C127  C     C_3   0.068361 0.867760 0.681070 -0.769952
H121  H     H_    0.051923 0.824258 0.713079 0.246316
H122  H     H_    0.100986 0.886945 0.726372 0.304056
H123  H     H_    0.034132 0.902610 0.676418 0.240555
H124  H     H_    0.118344 0.896555 0.568085 0.305484
H125  H     H_    0.057340 0.854155 0.537116 0.195684
H126  H     H_    0.095648 0.755137 0.573768 0.146490
H127  H     H_    0.139486 0.785103 0.649262 0.300060
C128  C     C_3   0.136759 0.801981 0.415111 -0.308995
C129  C     C_3   0.085667 0.760619 0.389895 -0.386941
C130  C     C_3   0.058419 0.784282 0.302566 -0.802928
H128  H     H_    0.039668 0.831103 0.313094 0.254737
H129  H     H_    0.089515 0.787219 0.246360 0.293693
H130  H     H_    0.025348 0.750831 0.282464 0.228105
H131  H     H_    0.096993 0.712126 0.376380 0.269269
H132  H     H_    0.053079 0.760623 0.443723 0.197865
H133  H     H_    0.116847 0.847864 0.420455 0.236951
H134  H     H_    0.161072 0.808779 0.354999 0.231262
C131  C     C_3   0.151340 0.206580 0.375361 -0.277502
C132  C     C_3   0.098956 0.244716 0.348491 -0.391606
C133  C     C_3   0.075757 0.219686 0.258414 -0.867503
H135  H     H_    0.110164 0.209672 0.209693 0.275673
H136  H     H_    0.051968 0.175696 0.270782 0.263331
H137  H     H_    0.048107 0.254332 0.225170 0.251626
H138  H     H_    0.065525 0.242288 0.400595 0.200716
H139  H     H_    0.108318 0.294377 0.338637 0.272310
H140  H     H_    0.182344 0.211731 0.322049 0.226174
H141  H     H_    0.136175 0.159156 0.363323 0.244094
C134  C     C_3   0.126677 0.187453 0.537782 -0.254316
C135  C     C_3   0.088683 0.131362 0.509454 -0.319648
C136  C     C_3   0.056842 0.103773 0.590980 -0.786873
H142  H     H_    0.084707 0.074332 0.633426 0.299214
H143  H     H_    0.040184 0.141752 0.633890 0.251468
H144  H     H_    0.021663 0.074169 0.567211 0.245167
H145  H     H_    0.056918 0.146938 0.459576 0.192841
H146  H     H_    0.112580 0.093281 0.477069 0.299544
H147  H     H_    0.140292 0.177578 0.607270 0.259219
H148  H     H_    0.097000 0.226767 0.543806 0.197222
C137  C     C_3   0.624233 0.304055 0.574095 -0.265639
C138  C     C_3   0.578164 0.355925 0.564364 -0.323536
C139  C     C_3   0.558333 0.379390 0.657197 -0.768938
H149  H     H_    0.545564 0.339428 0.701210 0.241688
H150  H     H_    0.591709 0.405556 0.692589 0.299961
H151  H     H_    0.521989 0.411044 0.648224 0.238781
H152  H     H_    0.591660 0.396358 0.522103 0.287777
H153  H     H_    0.539934 0.338095 0.531970 0.182344
H154  H     H_    0.599741 0.260711 0.585697 0.203486
H155  H     H_    0.645992 0.314922 0.637678 0.252141
C140  C     C_3   0.631979 0.296581 0.404991 -0.250941
C141  C     C_3   0.577376 0.256984 0.392872 -0.366294
C142  C     C_3   0.551340 0.271353 0.300989 -0.859720
H156  H     H_    0.542408 0.321991 0.293586 0.263242
H157  H     H_    0.580936 0.257705 0.246450 0.289292
H158  H     H_    0.511982 0.244102 0.293932 0.249841
H159  H     H_    0.582863 0.206614 0.392962 0.258054
H160  H     H_    0.545491 0.264410 0.445479 0.185030
H161  H     H_    0.614407 0.343461 0.398635 0.236667
H162  H     H_    0.656381 0.290801 0.343412 0.215346
C143  C     C_3   0.625852 0.679814 0.477262 -0.246805
C144  C     C_3   0.569798 0.715496 0.465416 -0.386784
C145  C     C_3   0.522507 0.670752 0.439166 -0.852633
H163  H     H_    0.531698 0.649145 0.372476 0.283807
H164  H     H_    0.516806 0.633393 0.491357 0.256689
H165  H     H_    0.482630 0.696546 0.434730 0.250410
H166  H     H_    0.556948 0.739615 0.527881 0.193074
H167  H     H_    0.572243 0.751322 0.411795 0.277832
H168  H     H_    0.640580 0.662159 0.412350 0.243327
H169  H     H_    0.611858 0.635700 0.508161 0.231598
C146  C     C_3   0.645166 0.712433 0.635681 -0.248193
C147  C     C_3   0.606661 0.658156 0.671263 -0.325660
C148  C     C_3   0.598123 0.661103 0.774154 -0.778970
H170  H     H_    0.636564 0.646383 0.810329 0.298783
H171  H     H_    0.587985 0.709417 0.794766 0.243640
H172  H     H_    0.563320 0.629474 0.795083 0.241019
H173  H     H_    0.564828 0.661770 0.639722 0.195303
H174  H     H_    0.622655 0.611169 0.653825 0.291455
H175  H     H_    0.674994 0.723404 0.689199 0.243735
H176  H     H_    0.616422 0.752615 0.634865 0.203764
N29   N     N_R   0.897365 0.551123 0.899599 0.190710
O65   O     O_R   0.858787 0.590428 0.924100 -0.366768
O66   O     O_R   0.890541 0.525486 0.820736 -0.267623
N30   N     N_R   0.893798 0.527848 0.095925 0.160013
O67   O     O_R   0.850467 0.512958 0.048143 -0.241011
O68   O     O_R   0.885911 0.530360 0.183497 -0.350137
N31   N     N_R   0.932128 0.401080 0.098186 0.156648
O69   O     O_R   0.917667 0.414575 0.180933 -0.338632
O70   O     O_R   0.915362 0.346572 0.070179 -0.401335
N32   N     N_R   0.922097 0.414951 0.908280 0.158903
O71   O     O_R   0.876413 0.422929 0.954351 -0.264587
O72   O     O_R   0.916329 0.403217 0.822096 -0.374650
N33   N     N_R   0.414139 0.079921 0.900647 0.175979
O73   O     O_R   0.385206 0.127208 0.929521 -0.415741
O74   O     O_R   0.402717 0.061115 0.819077 -0.322753
N34   N     N_R   0.407281 0.063806 0.095985 0.158867
O75   O     O_R   0.362498 0.050482 0.050790 -0.224876
O76   O     O_R   0.400640 0.073178 0.182754 -0.341489
N35   N     N_R   0.408517 0.929806 0.095146 0.163550
O77   O     O_R   0.396692 0.949695 0.176180 -0.302920
O78   O     O_R   0.379182 0.881996 0.068478 -0.405919
N36   N     N_R   0.405328 0.942365 0.903284 0.158602
O79   O     O_R   0.361333 0.961579 0.946379 -0.221002
O80   O     O_R   0.399207 0.933136 0.816500 -0.354199
C149  C     C_3   0.030293 0.381024 0.098846 -0.411923
C150  C     C_3   0.094101 0.394400 0.099512 -0.434252
C151  C     C_3   0.128845 0.335568 0.113677 -0.706531
H177  H     H_    0.115983 0.297863 0.066902 0.231936
H178  H     H_    0.173746 0.346378 0.101136 0.283193
H179  H     H_    0.124604 0.319677 0.184727 0.297687
H180  H     H_    0.109693 0.415355 0.036017 0.236169
H181  H     H_    0.104062 0.425449 0.157345 0.255522
H182  H     H_    0.019853 0.373379 0.171937 0.216560
H183  H     H_    0.023718 0.334027 0.070674 0.221294
C152  C     C_3   0.018729 0.377493 0.899779 -0.407950
C153  C     C_3   0.995424 0.309641 0.896673 -0.330552
C154  C     C_3   0.041281 0.262875 0.873221 -0.793643
H184  H     H_    0.060491 0.275070 0.806583 0.310022
H185  H     H_    0.074135 0.262643 0.926190 0.261174
H186  H     H_    0.023010 0.215176 0.869029 0.241015
H187  H     H_    0.975733 0.294909 0.961334 0.252834
H188  H     H_    0.962909 0.305461 0.843609 0.254071
H189  H     H_    0.027893 0.389589 0.827910 0.216739
H190  H     H_    0.060381 0.376264 0.930506 0.205857
C155  C     C_3   0.982188 0.617173 0.904696 -0.418396
C156  C     C_3   0.945494 0.674040 0.882773 -0.299227
C157  C     C_3   0.981303 0.731656 0.860081 -0.894660
H191  H     H_    0.010379 0.741999 0.916632 0.271485
H192  H     H_    0.005916 0.723823 0.797029 0.270174
H193  H     H_    0.954159 0.773071 0.849894 0.244624
H194  H     H_    0.919421 0.662822 0.822951 0.252896
H195  H     H_    0.917434 0.685665 0.939000 0.255740
H196  H     H_    0.018883 0.632054 0.943922 0.189883
H197  H     H_    0.001863 0.608643 0.837803 0.197031
C158  C     C_3   0.959360 0.615797 0.103486 -0.403853
C159  C     C_3   0.907790 0.658291 0.115312 -0.291109
C160  C     C_3   0.924806 0.727204 0.119737 -0.917393
H198  H     H_    0.954771 0.733607 0.175779 0.257902
H199  H     H_    0.945577 0.743173 0.056221 0.273781
H200  H     H_    0.887601 0.756907 0.131043 0.252053
H201  H     H_    0.876399 0.651604 0.061514 0.260989
H202  H     H_    0.886866 0.646005 0.180555 0.240946
H203  H     H_    0.975068 0.609435 0.173544 0.189747
H204  H     H_    0.993363 0.643668 0.073510 0.190547
C161  C     C_3   0.495862 0.877026 0.100703 -0.420517
C162  C     C_3   0.559979 0.867950 0.107613 -0.433120
C163  C     C_3   0.575413 0.799694 0.125822 -0.675267
H205  H     H_    0.556440 0.782749 0.190253 0.272984
H206  H     H_    0.561149 0.769603 0.069614 0.221604
H207  H     H_    0.621598 0.795417 0.131081 0.290465
H208  H     H_    0.582733 0.881849 0.045386 0.229181
H209  H     H_    0.576060 0.895116 0.165967 0.257653
H210  H     H_    0.481637 0.873317 0.172698 0.221068
H211  H     H_    0.477819 0.834365 0.070933 0.226540
C164  C     C_3   0.489917 0.877577 0.901545 -0.419236
C165  C     C_3   0.451004 0.819800 0.895022 -0.306787
C166  C     C_3   0.484037 0.760076 0.879293 -0.910196
H212  H     H_    0.508611 0.765059 0.815597 0.265837
H213  H     H_    0.512633 0.750543 0.936703 0.265103
H214  H     H_    0.454912 0.719835 0.872721 0.257021
H215  H     H_    0.424219 0.813544 0.955792 0.252558
H216  H     H_    0.423247 0.825381 0.835707 0.255034
H217  H     H_    0.504367 0.886265 0.830923 0.203114
H218  H     H_    0.528416 0.863500 0.935918 0.204743
C167  C     C_3   0.511225 0.119244 0.901327 -0.395975
C168  C     C_3   0.487615 0.184035 0.877034 -0.312206
C169  C     C_3   0.534550 0.231619 0.860119 -0.832185
H219  H     H_    0.562117 0.234745 0.920424 0.274484
H220  H     H_    0.559944 0.217974 0.800213 0.301937
H221  H     H_    0.516445 0.278543 0.847227 0.236748
H222  H     H_    0.462118 0.180222 0.814482 0.246140
H223  H     H_    0.459958 0.201774 0.930029 0.257164
H224  H     H_    0.550493 0.123672 0.939432 0.190301
H225  H     H_    0.528231 0.104617 0.834906 0.198185
C170  C     C_3   0.493584 0.125855 0.100575 -0.397958
C171  C     C_3   0.455813 0.184188 0.110952 -0.278588
C172  C     C_3   0.487514 0.246594 0.101982 -0.883060
H226  H     H_    0.468550 0.281549 0.147667 0.241988
H227  H     H_    0.532327 0.241405 0.118788 0.269400
H228  H     H_    0.484843 0.266658 0.032766 0.261038
H229  H     H_    0.420739 0.183779 0.062602 0.255932
H230  H     H_    0.436883 0.182518 0.179924 0.231957
H231  H     H_    0.507024 0.114788 0.170803 0.191510
H232  H     H_    0.533522 0.140440 0.070468 0.188139

loop_
_geom_bond_atom_site_label_1
_geom_bond_atom_site_label_2
_geom_bond_distance
_ccdc_geom_bond_type
C137  H155  1.099718 S    
C41   N22   1.499144 S    
C9    C77   1.612432 S    
N31   O69   1.300269 A    
C115  H94   1.111009 S    
C153  H187  1.102523 S    
C35   C39   1.686299 S    
C9    C22   1.671559 S    
C133  H136  1.110478 S    
C154  H184  1.109479 S    
C164  C165  1.547805 S    
C82   H16   1.110753 S    
C91   H38   1.101868 S    
C132  H139  1.092774 S    
N34   O75   1.295391 A    
C64   C161  1.612625 S    
C57   C65   1.625936 S    
C138  C139  1.534192 S    
C14   C113  1.617716 S    
O10   C5    1.287886 A    
C123  C124  1.531491 S    
C145  H164  1.110649 S    
C126  H124  1.100741 S    
C169  H220  1.110123 S    
C40   C143  1.602175 S    
C80   C81   1.543251 S    
C12   C86   1.597586 S    
C106  H74   1.110554 S    
C95   H56   1.066733 S    
C111  C112  1.528408 S    
C40   C42   1.681033 S    
C120  C121  1.531325 S    
C65   C70   1.571156 S    
C59   C66   1.613314 S    
C67   C72   1.569491 S    
C104  C105  1.552199 S    
C128  H133  1.095551 S    
C110  C111  1.566312 S    
C50   C54   1.213276 T    
N24   O55   1.293716 A    
C64   C67   1.642876 S    
C67   C76   1.525388 S    
C97   H53   1.110725 S    
C143  H168  1.088447 S    
C80   H21   1.086518 S    
C72   H8    1.095225 S    
C123  H118  1.103149 S    
C1    C26   1.437862 S    
C148  H171  1.107224 S    
C29   C49   1.486509 S    
C112  H86   1.110836 S    
C92   H50   1.100875 S    
C85   H25   1.110527 S    
C165  H216  1.105198 S    
C3    C28   1.431739 S    
C31   C51   1.479661 S    
C4    C27   1.428220 S    
C39   C140  1.611233 S    
C130  H129  1.110540 S    
N23   O53   1.301585 A    
C131  H141  1.092295 S    
C116  C117  1.566818 S    
C110  H91   1.110588 S    
C135  H145  1.108709 S    
C136  H144  1.110657 S    
O6    C3    1.287897 A    
N27   O62   1.301252 A    
C126  C127  1.536751 S    
C8    C56   1.436667 S    
C168  C169  1.529482 S    
C101  C102  1.566603 S    
O7    Cu4   1.943761 S    
C83   H28   1.073774 S    
C69   H2    1.109635 S    
C103  H65   1.110993 S    
C151  H178  1.110847 S    
C32   C52   1.491614 S    
C22   C35   1.666632 S    
C101  H71   1.092913 S    
C91   H37   1.105152 S    
C129  C130  1.527017 S    
O9    C5    1.281817 A    
C162  H208  1.100836 S    
O2    Cu2   1.948081 S    
O10   Cu2   1.939477 S    
C18   N5    1.502117 S    
C86   H36   1.107388 S    
C84   C85   1.529410 S    
C144  H167  1.095968 S    
C140  H162  1.083861 S    
C157  H192  1.110923 S    
C10   C29   1.688366 S    
C89   H43   1.081354 S    
C137  C138  1.571806 S    
C154  H186  1.110614 S    
C11   C30   1.688536 S    
C139  H149  1.108475 S    
C82   H18   1.108117 S    
C104  H78   1.094850 S    
C66   C69   1.561244 S    
C113  H98   1.073880 S    
O12   Cu1   1.948078 S    
C79   H10   1.111412 S    
C100  H58   1.110548 S    
C17   N13   1.502083 S    
O3    Cu2   1.943761 S    
C171  C172  1.536507 S    
O11   Cu2   1.949220 S    
C63   N36   1.500350 S    
O5    C3    1.283099 A    
C122  H120  1.084111 S    
C19   N8    1.495701 S    
C142  H156  1.109089 S    
C13   C18   1.659585 S    
C81   C82   1.514995 S    
C15   C20   1.655840 S    
C30   C50   1.500254 S    
C119  H112  1.097493 S    
C160  H199  1.106959 S    
C102  H69   1.096314 S    
C105  H75   1.104330 S    
C10   C101  1.624798 S    
C59   N32   1.493562 S    
C19   N15   1.499006 S    
C18   C33   1.665488 S    
C114  H96   1.106098 S    
C159  H201  1.103726 S    
N12   O31   1.293074 A    
C162  C163  1.528513 S    
N8    O24   1.301706 A    
N9    O26   1.302190 A    
N1    C73   1.169824 T    
C97   H51   1.111237 S    
C124  H115  1.110496 S    
C156  C157  1.530846 S    
C112  H88   1.110802 S    
C85   H23   1.109637 S    
C43   N25   1.493875 S    
N23   O54   1.301198 A    
O8    C4    1.280524 A    
C83   C84   1.550920 S    
C149  H183  1.102256 S    
N29   O65   1.301887 A    
C129  H132  1.108266 S    
C71   C72   1.547776 S    
C87   H34   1.106361 S    
C128  C129  1.553755 S    
C69   H3    1.100984 S    
N6    O20   1.294768 A    
C143  C144  1.553741 S    
C9    C29   1.693259 S    
C135  C136  1.530166 S    
C41   N21   1.497768 S    
N31   O70   1.302913 A    
C58   C155  1.614263 S    
C14   C31   1.685882 S    
C141  H159  1.085750 S    
C119  H113  1.102930 S    
C164  H217  1.107764 S    
C147  C148  1.529644 S    
N35   O78   1.302576 A    
C113  C114  1.569319 S    
C94   H45   1.109526 S    
C19   C34   1.668680 S    
C132  C133  1.540348 S    
N7    O21   1.303509 A    
C5    C53   1.429920 S    
C93   C94   1.530200 S    
C90   C91   1.538094 S    
C81   H20   1.109051 S    
O5    Cu3   1.949224 S    
C64   N35   1.488969 S    
C96   H55   1.106792 S    
C157  H191  1.110654 S    
C153  C154  1.526902 S    
N17   O42   1.293836 A    
C155  C156  1.534691 S    
C10   C21   1.632409 S    
C161  C162  1.548769 S    
C33   C45   1.485667 S    
C107  C108  1.567985 S    
C16   C32   1.695565 S    
C150  H181  1.111323 S    
C17   C33   1.677175 S    
C116  H105  1.104687 S    
C147  H174  1.108555 S    
C88   H31   1.109135 S    
C18   N14   1.490650 S    
N25   O58   1.303917 A    
C98   H63   1.083349 S    
C149  C150  1.550356 S    
C62   N33   1.488335 S    
Cu1   N1    1.988632 S    
N18   O44   1.295173 A    
C37   C43   1.680615 S    
N32   O72   1.303972 A    
C100  H59   1.110241 S    
C38   C44   1.683231 S    
O7    C4    1.288218 A    
C142  H158  1.110476 S    
N16   O40   1.291973 A    
C39   C41   1.694434 S    
C134  H147  1.094101 S    
C111  H89   1.103056 S    
C117  H103  1.104857 S    
C120  H110  1.107082 S    
O13   Cu3   1.943761 S    
C121  H109  1.109901 S    
O14   Cu4   1.939477 S    
N26   O59   1.301157 A    
C103  H67   1.110495 S    
C78   H12   1.098419 S    
C60   N31   1.491760 S    
N33   O74   1.300422 A    
Cu1   Cu2   2.648139 S    
C36   C48   1.488131 S    
N27   O61   1.300221 A    
C166  H213  1.107529 S    
N22   O52   1.303000 A    
Cu3   N3    1.988632 S    
N11   O30   1.302533 A    
N13   O33   1.304161 A    
C71   H6    1.109756 S    
C125  H127  1.071008 S    
C63   C64   1.666100 S    
C133  H135  1.111199 S    
C2    C25   1.431046 S    
C152  H189  1.107510 S    
C14   C92   1.631120 S    
C108  H83   1.101624 S    
C57   N30   1.498719 S    
C49   C53   1.207377 T    
O15   Cu4   1.949220 S    
C118  H101  1.106364 S    
C42   N23   1.500752 S    
N30   O67   1.295394 A    
C95   C96   1.566908 S    
C20   C34   1.661404 S    
N19   O46   1.300025 A    
C25   C45   1.208497 T    
C133  H137  1.106782 S    
C93   H48   1.104865 S    
C6    C54   1.440984 S    
C161  H210  1.113596 S    
C170  C171  1.550859 S    
C90   H41   1.113248 S    
C15   C32   1.692604 S    
C128  H134  1.064730 S    
N10   O28   1.304924 A    
C144  C145  1.531704 S    
C137  H154  1.105869 S    
C168  H222  1.110454 S    
C117  H104  1.100205 S    
C16   C19   1.675162 S    
C78   C79   1.525891 S    
C34   C46   1.493713 S    
C146  H176  1.102146 S    
N28   O64   1.293599 A    
C65   C74   1.525335 S    
C127  H122  1.108833 S    
C139  H151  1.110725 S    
C84   H26   1.109767 S    
C126  H125  1.107602 S    
C138  H152  1.106490 S    
N14   O36   1.292132 A    
C106  H73   1.110127 S    
C12   C23   1.663540 S    
C15   C122  1.610299 S    
C63   C164  1.600483 S    
C40   C146  1.602974 S    
C70   H4    1.094301 S    
C107  H85   1.103299 S    
C99   C100  1.523574 S    
C10   C80   1.621210 S    
C163  H205  1.106581 S    
N24   O56   1.303745 A    
C171  H229  1.102530 S    
O2    C1    1.285457 A    
N36   O80   1.303874 A    
C160  H200  1.107420 S    
C68   C75   1.523414 S    
C97   H52   1.100255 S    
C72   H5    1.102461 S    
C24   N11   1.489189 S    
C148  H170  1.109258 S    
C85   H24   1.101306 S    
C14   C17   1.674977 S    
C121  H107  1.110438 S    
C167  H225  1.105667 S    
C98   C99   1.554844 S    
C105  C106  1.529195 S    
C130  H128  1.110535 S    
C79   H9    1.111099 S    
C57   C58   1.680458 S    
C58   C66   1.643982 S    
C44   N28   1.503941 S    
C150  C151  1.523249 S    
C21   N10   1.498076 S    
C11   C110  1.596111 S    
C87   C88   1.514245 S    
C26   C46   1.211990 T    
C136  H143  1.107923 S    
C172  H226  1.107314 S    
C20   N7    1.506120 S    
N20   O48   1.295774 A    
C156  H194  1.109237 S    
C62   C68   1.640981 S    
C124  H114  1.109114 S    
C60   C65   1.640324 S    
N21   O50   1.293742 A    
C21   C35   1.665578 S    
C58   N29   1.491621 S    
C101  H70   1.078887 S    
O11   C6    1.285787 A    
C86   C87   1.559929 S    
C104  H77   1.105539 S    
N7    O22   1.291786 A    
C99   H61   1.106869 S    
C153  H188  1.108744 S    
C109  H79   1.110075 S    
C162  H209  1.111427 S    
C134  H148  1.105886 S    
C16   C98   1.609396 S    
C158  H204  1.094467 S    
C86   H35   1.078688 S    
C66   C73   1.523623 S    
C12   C107  1.614832 S    
C140  H161  1.091814 S    
C96   C97   1.524144 S    
C115  H95   1.110560 S    
C89   H42   1.100877 S    
C152  C153  1.553674 S    
C154  H185  1.109461 S    
C159  C160  1.529633 S    
C82   H17   1.110144 S    
N34   O76   1.304232 A    
O4    Cu1   1.939477 S    
C91   H39   1.107508 S    
C132  H138  1.105458 S    
C29   C41   1.682852 S    
C151  H177  1.109342 S    
C169  H219  1.110756 S    
C145  H165  1.104678 S    
O1    C1    1.288678 A    
C37   C128  1.613466 S    
C167  H224  1.100025 S    
C33   C37   1.674556 S    
C169  H221  1.109371 S    
C122  H119  1.103128 S    
C125  C126  1.560621 S    
C95   H57   1.113420 S    
C36   C40   1.685621 S    
C22   N18   1.504218 S    
C164  H218  1.094031 S    
N12   O32   1.305107 A    
N35   O77   1.300798 A    
C160  H198  1.104536 S    
C105  H76   1.111627 S    
C24   C36   1.659264 S    
C62   C167  1.612309 S    
C114  H97   1.107502 S    
C77   H15   1.113030 S    
C31   C43   1.676214 S    
O13   C7    1.283114 A    
C28   C48   1.207921 T    
C20   N16   1.516062 S    
N9    O25   1.300890 A    
N4    C76   1.172816 T    
C111  H90   1.097861 S    
C143  H169  1.093932 S    
C80   H22   1.107386 S    
C123  H117  1.099165 S    
C148  H172  1.110538 S    
C112  H87   1.110128 S    
C32   C44   1.677975 S    
C165  H215  1.104248 S    
C43   N26   1.503371 S    
C155  H197  1.106336 S    
N11   O29   1.300001 A    
C16   C119  1.613753 S    
C130  H130  1.107454 S    
C42   N24   1.506941 S    
C172  H227  1.106008 S    
C149  H182  1.113895 S    
C9    C104  1.605880 S    
O12   C6    1.289974 A    
C7    C55   1.423731 S    
C141  C142  1.521131 S    
C134  C135  1.563118 S    
C172  H228  1.104157 S    
O16   Cu3   1.948078 S    
C13   C31   1.691702 S    
C13   C116  1.622272 S    
C77   H14   1.056643 S    
C83   H29   1.106721 S    
C155  H196  1.100251 S    
N5    O18   1.295403 A    
O15   C8    1.287113 A    
N20   O47   1.304891 A    
C151  H179  1.100874 S    
N5    O17   1.302714 A    
C94   H44   1.109453 S    
C38   C134  1.602870 S    
C21   N17   1.492493 S    
C163  H207  1.110750 S    
N2    C74   1.172687 T    
C61   C170  1.611245 S    
C15   C95   1.615755 S    
C144  H166  1.101858 S    
C61   C67   1.623431 S    
C157  H193  1.109230 S    
N17   O41   1.300413 A    
C146  C147  1.563276 S    
O8    Cu3   1.939477 S    
C57   C158  1.606281 S    
C113  H99   1.096942 S    
C79   H11   1.110814 S    
C127  H121  1.108525 S    
C88   H30   1.109620 S    
N25   O57   1.293033 A    
C145  H163  1.110714 S    
C52   C56   1.211409 T    
C61   C62   1.678020 S    
C140  C141  1.564834 S    
C89   C90   1.564268 S    
C63   C68   1.608242 S    
C142  H157  1.109327 S    
C167  C168  1.537715 S    
C114  C115  1.531210 S    
C135  H146  1.106868 S    
C120  H111  1.106233 S    
C23   N19   1.502260 S    
C121  H108  1.110866 S    
N26   O60   1.298323 A    
C124  H116  1.110101 S    
C102  H68   1.105753 S    
C103  H66   1.110887 S    
C78   H13   1.106214 S    
C44   N27   1.503145 S    
C131  H140  1.081182 S    
C166  H212  1.108029 S    
C60   C149  1.613185 S    
N8    O23   1.301735 A    
C152  H190  1.095696 S    
C17   N6    1.499582 S    
C141  H160  1.096815 S    
C170  H232  1.093278 S    
N32   O71   1.295001 A    
C125  H126  1.106141 S    
O16   C8    1.286627 A    
C70   H1    1.101804 S    
Cu4   N4    1.988592 S    
C39   C137  1.610196 S    
C13   C89   1.603863 S    
C118  H100  1.108846 S    
C38   C131  1.599864 S    
N30   O68   1.303887 A    
N29   O66   1.299895 A    
C129  H131  1.092797 S    
O1    Cu1   1.949224 S    
C109  H80   1.109700 S    
O9    Cu1   1.943761 S    
C87   H33   1.102682 S    
C27   C47   1.207654 T    
N6    O19   1.301861 A    
C11   C83   1.643549 S    
C37   C125  1.616213 S    
N3    C75   1.169490 T    
C168  H223  1.091811 S    
O6    Cu4   1.948081 S    
C11   C24   1.674114 S    
C159  H202  1.109529 S    
O14   C7    1.283624 A    
C170  H231  1.107987 S    
C61   N34   1.496758 S    
C163  H206  1.107837 S    
C158  C159  1.544030 S    
N15   O37   1.301284 A    
C102  C103  1.532806 S    
C117  C118  1.540204 S    
C94   H46   1.108211 S    
N19   O45   1.297331 A    
C146  H175  1.091919 S    
C68   C71   1.563498 S    
C139  H150  1.107972 S    
C92   C93   1.563649 S    
C84   H27   1.094021 S    
C81   H19   1.105721 S    
C109  H81   1.110588 S    
C96   H54   1.098926 S    
C138  H153  1.101346 S    
Cu2   N2    1.988592 S    
C106  H72   1.109635 S    
C69   C70   1.550100 S    
N15   O38   1.296108 A    
C12   C30   1.687838 S    
C71   H7    1.103730 S    
C150  H180  1.095772 S    
C107  H84   1.087942 S    
C116  H106  1.074962 S    
C59   C152  1.601683 S    
C147  H173  1.107037 S    
N28   O63   1.303558 A    
C88   H32   1.108731 S    
C30   C42   1.664232 S    
C98   H64   1.096898 S    
C171  H230  1.109861 S    
C115  H93   1.110188 S    
C122  C123  1.559059 S    
N18   O43   1.303081 A    
C34   C38   1.683927 S    
C100  H60   1.109945 S    
N16   O39   1.303948 A    
N14   O35   1.303786 A    
C110  H92   1.092113 S    
C23   N12   1.502365 S    
O4    C2    1.282148 A    
C24   N20   1.514418 S    
C92   H49   1.093275 S    
C35   C47   1.482438 S    
C131  C132  1.547504 S    
C166  H214  1.110155 S    
N22   O51   1.297912 A    
N36   O79   1.295452 A    
N13   O34   1.293047 A    
O3    C2    1.288186 A    
C136  H142  1.109063 S    
C51   C55   1.203042 T    
C77   C78   1.552920 S    
C156  H195  1.093842 S    
C165  C166  1.523109 S    
C108  H82   1.098644 S    
N21   O49   1.301822 A    
C118  H102  1.110973 S    
C59   C60   1.664941 S    
C23   C36   1.652904 S    
C22   N9    1.492304 S    
N33   O73   1.300892 A    
C108  C109  1.531127 S    
C127  H123  1.110534 S    
C99   H62   1.101527 S    
Cu3   Cu4   2.648139 S    
C93   H47   1.103083 S    
C158  H203  1.106872 S    
C161  H211  1.103459 S    
C90   H40   1.098369 S    
N10   O27   1.294979 A    
C119  C120  1.565632 S    
