data_mof_unit_61906.cif
_audit_creation_date              2012-12-10T17:20:38-0500
_audit_creation_method            fapswitch 2.2
_symmetry_space_group_name_H-M    P1
_symmetry_Int_Tables_number       1
_space_group_crystal_system       triclinic
_cell_length_a                    10.281444
_cell_length_b                    10.644534
_cell_length_c                    13.623744
_cell_angle_alpha                 92.00802
_cell_angle_beta                  73.957376
_cell_angle_gamma                 95.7282
_cell_volume                      1425.73512217

loop_
_atom_site_label
_atom_site_type_symbol
_atom_type_description
_atom_site_fract_x
_atom_site_fract_y
_atom_site_fract_z
_atom_type_partial_charge
C1    C     C_R   0.557284 0.733247 0.488003 0.835639
C2    C     C_2   0.061345 0.476247 0.511792 0.228943
C3    C     C_1   0.445783 0.507762 0.883678 0.042661
C4    C     C_1   0.554232 0.492319 0.116330 0.047887
C5    C     C_2   0.590379 0.866768 0.465653 0.305498
C6    C     C_2   0.417001 0.131867 0.486340 0.305273
C7    C     C_2   0.502007 0.930018 0.434536 0.470921
C8    C     C_2   0.518443 0.065863 0.432197 0.466759
C9    C     C_3   0.106942 0.639644 0.623691 -0.548113
C10   C     C_3   0.895615 0.367948 0.371383 -0.509643
C11   C     C_3   0.074959 0.336547 0.510632 -0.708280
C12   C     C_R   0.444466 0.266465 0.501037 0.840703
C13   C     C_3   0.927498 0.664203 0.484120 -0.688019
C14   C     C_R   0.475912 0.503603 0.688341 0.904042
C15   C     C_R   0.524089 0.496398 0.311650 0.896248
C16   C     C_1   0.542885 0.493791 0.205537 -0.128903
C17   C     C_1   0.457124 0.506251 0.794467 -0.145348
C18   C     C_2   0.557083 0.492129 0.012060 0.483074
C19   C     C_2   0.442939 0.507988 0.987951 0.486521
C20   C     C_2   0.937777 0.524397 0.488574 0.213925
F1    F     F_    0.324637 0.524153 0.060660 -0.648717
F2    F     F_    0.675384 0.475960 0.939353 -0.651583
F3    F     F_    0.642535 0.122689 0.381670 -0.649353
F4    F     F_    0.388476 0.871011 0.413807 -0.628717
F5    F     F_    0.291647 0.073969 0.532130 -0.632167
F6    F     F_    0.706154 0.926726 0.481668 -0.630787
H1    H     H_    0.152571 0.621169 0.685866 0.232922
H2    H     H_    0.027535 0.719306 0.472942 0.238928
H3    H     H_    0.895910 0.685369 0.415391 0.265689
H4    H     H_    0.854860 0.696699 0.554590 0.251332
H5    H     H_    0.142225 0.737895 0.597562 0.247174
H6    H     H_    0.994933 0.629650 0.657719 0.190653
H7    H     H_    0.849624 0.390965 0.310554 0.244695
H8    H     H_    0.007673 0.381179 0.337711 0.184854
H9    H     H_    0.863623 0.267584 0.392126 0.264659
H10   H     H_    0.976838 0.279612 0.517520 0.226818
H11   H     H_    0.150792 0.309323 0.439872 0.248341
H12   H     H_    0.104017 0.311582 0.579558 0.271315
N1    N     N_2   0.847200 0.448220 0.460120 -0.077726
N2    N     N_2   0.152800 0.551780 0.539880 -0.059958
O1    O     O_R   0.430150 0.692610 0.508030 -0.559567
O2    O     O_R   0.569850 0.307390 0.491970 -0.558830
O3    O     O_R   0.653100 0.659360 0.482430 -0.603654
O4    O     O_R   0.346900 0.340640 0.517570 -0.604509
O5    O     O_R   0.372470 0.518990 0.654990 -0.610714
O6    O     O_R   0.627530 0.481010 0.345010 -0.609754
O7    O     O_R   0.595430 0.485740 0.629390 -0.583789
O8    O     O_R   0.404570 0.514260 0.370610 -0.575345
Zn1   Zn    Zn3+2 0.351130 0.522200 0.517090 1.011836
Zn2   Zn    Zn3+2 0.648870 0.477800 0.482910 1.006167

loop_
_geom_bond_atom_site_label_1
_geom_bond_atom_site_label_2
_ccdc_geom_bond_type
O4    Zn1   S    
C4    C16   T    
C11   H12   S    
C6    C8    D    
O3    Zn2   S    
C3    C19   S    
C10   H9    S    
O7    Zn2   S    
O6    Zn2   S    
C9    H6    S    
O5    Zn1   S    
C4    C18   S    
N1    Zn2   S    
C7    C8    S    
C13   H2    S    
C1    O1    A    
C14   C17   S    
N2    Zn1   S    
C14   O7    A    
C15   O8    A    
O2    Zn2   S    
C1    C5    S    
C2    C11   S    
C13   H3    S    
O8    Zn1   S    
C19   F1    S    
C1    O3    A    
C3    C17   T    
C14   O5    A    
C5    C7    D    
C6    C12   S    
C6    F5    S    
C15   C16   S    
C9    H5    S    
C2    C20   S    
C5    F6    S    
C2    N2    D    
C13   H4    S    
C8    F3    S    
C18   C19   D    
C9    H1    S    
C10   H8    S    
C10   H7    S    
C12   O4    A    
O1    Zn1   S    
C11   H11   S    
C20   N1    D    
C11   H10   S    
C12   O2    A    
C15   O6    A    
C18   F2    S    
C13   C20   S    
C9    N2    S    
C7    F4    S    
C10   N1    S    
