data_mof_unit_50738.cif
_audit_creation_date              2012-12-11T17:18:07-0500
_audit_creation_method            fapswitch 2.2
_symmetry_space_group_name_H-M    P1
_symmetry_Int_Tables_number       1
_space_group_crystal_system       triclinic
_cell_length_a                    7.311668
_cell_length_b                    12.295408
_cell_length_c                    27.241485
_cell_angle_alpha                 89.999921
_cell_angle_beta                  92.435163
_cell_angle_gamma                 89.999551
_cell_volume                      2446.79630507

loop_
_atom_site_label
_atom_site_type_symbol
_atom_type_description
_atom_site_fract_x
_atom_site_fract_y
_atom_site_fract_z
_atom_type_partial_charge
O1    O     O_R   0.366550 0.651960 0.572490 -0.530182
O2    O     O_R   0.633450 0.348040 0.427510 -0.530810
O3    O     O_R   0.133450 0.151960 0.427510 -0.530181
O4    O     O_R   0.866550 0.848040 0.572490 -0.530811
O5    O     O_R   0.712370 0.639230 0.672140 -0.541317
O6    O     O_R   0.287630 0.360770 0.327860 -0.534418
O7    O     O_R   0.787630 0.139230 0.327860 -0.541317
O8    O     O_R   0.212370 0.860770 0.672140 -0.534417
O9    O     O_R   0.882770 0.848480 0.672480 -0.536821
O10   O     O_R   0.117230 0.151520 0.327520 -0.534353
O11   O     O_R   0.617230 0.348480 0.327520 -0.536822
O12   O     O_R   0.382770 0.651520 0.672480 -0.534353
C1    C     C_R   0.547278 0.616275 0.688990 0.696912
C2    C     C_R   0.453068 0.381769 0.310191 0.687983
C3    C     C_R   0.952723 0.116277 0.311010 0.696915
C4    C     C_R   0.046930 0.881772 0.689808 0.687979
O13   O     O_R   0.696320 0.639050 0.572850 -0.534307
O14   O     O_R   0.303680 0.360950 0.427150 -0.532745
O15   O     O_R   0.803680 0.139050 0.427150 -0.534306
O16   O     O_R   0.196320 0.860950 0.572850 -0.532746
C5    C     C_R   0.525065 0.613208 0.556558 0.721862
C6    C     C_R   0.474937 0.386797 0.443439 0.724220
C7    C     C_R   0.974935 0.113208 0.443442 0.721862
C8    C     C_R   0.025063 0.886797 0.556561 0.724220
O17   O     O_3   0.541150 0.818870 0.622480 -0.376284
O18   O     O_3   0.458850 0.181130 0.377520 -0.376678
O19   O     O_3   0.958850 0.318870 0.377520 -0.376285
O20   O     O_3   0.041150 0.681130 0.622480 -0.376679
V1    V     V_3+5 0.815990 0.737490 0.622490 1.422357
V2    V     V_3+5 0.184010 0.262510 0.377510 1.433209
V3    V     V_3+5 0.684010 0.237490 0.377510 1.422354
V4    V     V_3+5 0.315990 0.762510 0.622490 1.433210
C9    C     C_R   0.976859 0.119712 0.912817 0.539998
C10   C     C_R   0.974125 0.845058 0.097584 0.606906
C11   C     C_R   0.523130 0.619694 0.087177 0.539997
C12   C     C_R   0.525847 0.345043 0.902412 0.606906
O21   O     O_2   0.941573 0.016764 0.925995 -0.564182
O22   O     O_2   0.945194 0.947769 0.082218 -0.546792
O23   O     O_2   0.558415 0.516747 0.073998 -0.564184
O24   O     O_2   0.554764 0.447752 0.917780 -0.546789
N1    N     N_R   0.004395 0.145151 0.864292 -0.542682
N2    N     N_R   0.984642 0.821134 0.147011 -0.530612
N3    N     N_R   0.495596 0.645131 0.135702 -0.542682
N4    N     N_R   0.515355 0.321123 0.852985 -0.530607
C13   C     C_R   0.023489 0.252879 0.851583 0.552026
C14   C     C_R   0.996908 0.713691 0.161396 0.576538
C15   C     C_R   0.476496 0.752859 0.148413 0.552035
C16   C     C_R   0.503109 0.213682 0.838601 0.576547
C17   C     C_R   0.891740 0.087127 0.781445 -0.131049
C18   C     C_R   0.845140 0.886727 0.222947 -0.169703
C19   C     C_R   0.608285 0.587106 0.218546 -0.131064
C20   C     C_R   0.654853 0.386728 0.777051 -0.169699
C21   C     C_R   0.911471 0.030722 0.737726 -0.173010
C22   C     C_R   0.838168 0.955008 0.263612 -0.190665
C23   C     C_R   0.588548 0.530709 0.262267 -0.172986
C24   C     C_R   0.661833 0.455011 0.736388 -0.190687
C25   C     C_R   0.139117 0.916948 0.778107 -0.176233
C26   C     C_R   0.064043 0.070477 0.228716 -0.265294
C27   C     C_R   0.360867 0.416929 0.221892 -0.176235
C28   C     C_R   0.435945 0.570457 0.771280 -0.265277
C29   C     C_R   0.114030 0.971008 0.823033 0.226955
C30   C     C_R   0.069265 0.003260 0.186958 0.254042
C31   C     C_R   0.385958 0.470989 0.176964 0.226952
C32   C     C_R   0.430728 0.503248 0.813039 0.254028
C33   C     C_R   0.999005 0.064421 0.824367 0.319500
C34   C     C_R   0.966286 0.905000 0.184853 0.373688
C35   C     C_R   0.500998 0.564400 0.175626 0.319516
C36   C     C_R   0.533711 0.404994 0.815145 0.373695
C37   C     C_R   0.982794 0.311637 0.935467 -0.047117
C38   C     C_R   0.976287 0.652262 0.076665 -0.053121
C39   C     C_R   0.517182 0.811619 0.064527 -0.047115
C40   C     C_R   0.523690 0.152247 0.923330 -0.053129
C41   C     C_R   0.978906 0.201881 0.949470 -0.036069
C42   C     C_R   0.984807 0.761737 0.062031 -0.058773
C43   C     C_R   0.521076 0.701864 0.050524 -0.036061
C44   C     C_R   0.515160 0.261721 0.937964 -0.058777
C45   C     C_R   0.968864 0.176952 0.999440 -0.114293
C46   C     C_R   0.996312 0.785818 0.012108 -0.114479
C47   C     C_R   0.531115 0.676936 0.000553 -0.114294
C48   C     C_R   0.503641 0.285800 0.987885 -0.114474
C49   C     C_R   0.994098 0.336395 0.885579 -0.035821
C50   C     C_R   0.972925 0.628664 0.126923 -0.065515
C51   C     C_R   0.505875 0.836377 0.114416 -0.035854
C52   C     C_R   0.527071 0.128652 0.873072 -0.065485
C53   C     C_R   0.040910 0.948033 0.734968 -0.077663
C54   C     C_R   0.953399 0.045005 0.267678 -0.059047
C55   C     C_R   0.459083 0.448022 0.265029 -0.077653
C56   C     C_R   0.546602 0.544997 0.732320 -0.059054
H1    H     H_    0.227739 0.846337 0.777574 0.116839
H2    H     H_    0.145084 0.144339 0.230349 0.115570
H3    H     H_    0.272239 0.346317 0.222426 0.116826
H4    H     H_    0.354887 0.644309 0.769645 0.115576
H5    H     H_    0.967036 0.093176 0.011532 0.194347
H6    H     H_    0.007319 0.869191 0.999786 0.186658
H7    H     H_    0.532946 0.593160 0.988460 0.194353
H8    H     H_    0.492623 0.369173 0.000207 0.186659
C57   C     C_R   0.949430 0.456796 0.056580 0.057881
C58   C     C_R   0.969063 0.506953 0.955204 0.068399
C59   C     C_R   0.550550 0.956781 0.943414 0.057871
C60   C     C_R   0.530906 0.006935 0.044790 0.068401
C61   C     C_R   0.976963 0.592337 0.990555 0.020041
C62   C     C_R   0.959321 0.370815 0.021411 0.023334
C63   C     C_R   0.523003 0.092319 0.009439 0.020045
C64   C     C_R   0.540655 0.870798 0.978582 0.023329
C65   C     C_R   0.968388 0.566755 0.041147 0.072152
C66   C     C_R   0.971283 0.396718 0.970923 0.077297
C67   C     C_R   0.531586 0.066739 0.958847 0.072161
C68   C     C_R   0.528690 0.896701 0.029071 0.077287
C69   C     C_R   0.922866 0.437489 0.107062 -0.075478
C70   C     C_R   0.955497 0.527554 0.904213 -0.103573
C71   C     C_R   0.577125 0.937475 0.892933 -0.075498
C72   C     C_R   0.544470 0.027536 0.095781 -0.103547
C73   C     C_R   0.940855 0.521353 0.141636 -0.115384
C74   C     C_R   0.969318 0.443718 0.870230 -0.095106
C75   C     C_R   0.559146 0.021340 0.858360 -0.115348
C76   C     C_R   0.530641 0.943700 0.129765 -0.095107
O25   O     O_2   0.033483 0.688490 0.209014 -0.516551
O26   O     O_2   0.072188 0.280054 0.805934 -0.514081
O27   O     O_2   0.466581 0.188483 0.790983 -0.516589
O28   O     O_2   0.427804 0.780031 0.194064 -0.514064
C77   C     C_R   0.960839 0.259343 0.034729 -0.161636
C78   C     C_R   0.996154 0.702989 0.977175 -0.157662
C79   C     C_R   0.539136 0.759328 0.965263 -0.161635
C80   C     C_R   0.503799 0.202970 0.022818 -0.157673
H9    H     H_    0.745580 0.935913 0.292406 0.146706
H10   H     H_    0.825869 0.052468 0.705784 0.140369
H11   H     H_    0.754424 0.435926 0.707596 0.146715
H12   H     H_    0.674164 0.552460 0.294208 0.140365
H13   H     H_    0.754909 0.818559 0.221458 0.159247
H14   H     H_    0.793529 0.151036 0.781506 0.152296
H15   H     H_    0.745072 0.318562 0.778540 0.159254
H16   H     H_    0.706517 0.651012 0.218479 0.152265
H17   H     H_    0.895153 0.357694 0.121310 0.105279
H18   H     H_    0.933818 0.607907 0.889272 0.093081
H19   H     H_    0.604842 0.857680 0.878684 0.105273
H20   H     H_    0.566152 0.107888 0.110722 0.093077
H21   H     H_    0.956463 0.232947 0.072327 0.120388
H22   H     H_    0.012443 0.728411 0.939803 0.119663
H23   H     H_    0.543510 0.732931 0.927665 0.120391
H24   H     H_    0.487496 0.228390 0.060189 0.119667
C81   C     C_1   0.991926 0.033207 0.483303 -0.172532
C82   C     C_1   0.008069 0.966799 0.516700 -0.173385
C83   C     C_1   0.508074 0.533207 0.516697 -0.172530
C84   C     C_1   0.491931 0.466798 0.483300 -0.173386
N5    N     N_3   0.192167 0.921680 0.866388 -0.684904
H25   H     H_    0.093322 0.871132 0.880956 0.248892
H26   H     H_    0.228185 0.981469 0.891972 0.269544
N6    N     N_3   0.173177 0.039148 0.146875 -0.611370
H27   H     H_    0.097166 0.100623 0.129097 0.238621
H28   H     H_    0.289207 0.079073 0.161475 0.201483
N7    N     N_3   0.307815 0.421669 0.133606 -0.684900
H29   H     H_    0.406664 0.371125 0.119035 0.248893
H30   H     H_    0.271796 0.481466 0.108025 0.269541
N8    N     N_3   0.326789 0.539137 0.853116 -0.611436
H31   H     H_    0.402758 0.600609 0.870894 0.238627
H32   H     H_    0.210793 0.579043 0.838511 0.201515
H33   H     H_    0.930898 0.501267 0.180125 0.152123
H34   H     H_    0.961654 0.463713 0.831499 0.145299
H35   H     H_    0.569118 0.001257 0.819872 0.152123
H36   H     H_    0.538293 0.963695 0.168498 0.145304

loop_
_geom_bond_atom_site_label_1
_geom_bond_atom_site_label_2
_ccdc_geom_bond_type
C13   O26   S    
C26   C30   A    
N4    C16   A    
O1    C5    A    
C58   C70   A    
C32   N8    S    
O13   V1    S    
O3    C7    A    
C10   N2    A    
C72   C76   A    
C40   C44   A    
O15   V3    S    
N5    H25   S    
C28   C56   A    
C64   C79   A    
C11   C43   A    
C18   C22   A    
C17   C33   A    
C32   C36   A    
O20   V1    S    
O9    C4    A    
N6    H28   S    
C2    C55   S    
C76   H36   S    
O10   C3    A    
C48   C80   A    
O4    C8    A    
O11   C2    A    
C24   C56   A    
C83   C84   T    
C79   H23   S    
N2    C14   A    
C24   H11   S    
C77   H21   S    
C29   N5    S    
C74   H34   S    
C12   C44   A    
C14   C50   A    
O16   C8    A    
C8    C82   S    
C49   C74   A    
C38   C42   A    
N7    H29   S    
C37   C41   A    
O14   V2    S    
C15   C51   A    
C48   H8    S    
C62   C77   A    
C11   N3    A    
C70   C74   A    
O5    V1    S    
O4    V1    S    
C20   C36   A    
C12   N4    A    
O9    V1    S    
C57   C65   A    
O17   V4    S    
O7    C3    A    
C59   C64   A    
O11   V3    S    
O18   V3    S    
O8    C4    A    
C30   N6    S    
C39   C68   A    
O12   V4    S    
O19   V2    S    
C21   C53   A    
N7    H30   S    
C72   H20   S    
C38   C50   A    
C63   C80   A    
C26   C54   A    
N5    H26   S    
C16   O27   S    
C39   C51   A    
C28   H4    S    
C61   C65   A    
C22   H9    S    
C31   C35   A    
C60   C68   A    
O7    V3    S    
C30   C34   A    
C69   H17   S    
O8    V4    S    
C44   C48   A    
C12   O24   S    
C45   C77   A    
N6    H27   S    
C78   H22   S    
C22   C54   A    
O15   C7    A    
N1    C33   S    
C47   C79   A    
C60   C63   A    
O13   C5    A    
C16   C52   A    
C14   O25   S    
C75   H35   S    
O2    V3    S    
N8    H32   S    
O3    V2    S    
C11   O23   S    
C47   H7    S    
C18   H13   S    
O6    C2    A    
C57   C69   A    
O10   V2    S    
C40   C67   A    
C19   H16   S    
C59   C71   A    
C27   H3    S    
O12   C1    A    
C26   H2    S    
C31   N7    S    
N8    H31   S    
C40   C52   A    
C25   H1    S    
C10   C42   A    
C3    C54   S    
C9    C41   A    
C15   O28   S    
O6    V2    S    
C60   C72   A    
C52   C75   A    
C4    C53   S    
N4    C36   S    
C64   C68   A    
C9    O21   S    
O16   V4    S    
C70   H18   S    
N1    C13   A    
C10   O22   S    
C20   H15   S    
O5    C1    A    
C51   C76   A    
C80   H24   S    
C13   C49   A    
C57   C62   A    
C50   C73   A    
C38   C65   A    
C71   C75   A    
C37   C66   A    
C18   C34   A    
C25   C29   A    
C69   C73   A    
C58   C61   A    
C59   C67   A    
C17   H14   S    
C27   C31   A    
C61   C78   A    
C58   C66   A    
C28   C32   A    
C9    N1    A    
O14   C6    A    
O2    C6    A    
C39   C43   A    
C71   H19   S    
C19   C35   A    
C43   C47   A    
C46   H6    S    
C17   C21   A    
C1    C56   S    
C45   H5    S    
C25   C53   A    
C62   C66   A    
C19   C23   A    
O1    V4    S    
C23   C55   A    
C46   C78   A    
C27   C55   A    
C37   C49   A    
C21   H10   S    
C29   C33   A    
C23   H12   S    
N3    C35   S    
C42   C46   A    
C5    C83   S    
C6    C84   S    
N2    C34   S    
C41   C45   A    
C7    C81   S    
C63   C67   A    
C73   H33   S    
C81   C82   T    
N3    C15   A    
C20   C24   A    
