data_mof_unit_52273.cif
_audit_creation_date              2013-03-05T15:41:42-0500
_audit_creation_method            fapswitch 2.2
_symmetry_space_group_name_H-M    P1
_symmetry_Int_Tables_number       1
_space_group_crystal_system       triclinic
_cell_length_a                    6.945464
_cell_length_b                    13.710531
_cell_length_c                    20.489165
_cell_angle_alpha                 102.36639
_cell_angle_beta                  89.722438
_cell_angle_gamma                 90.799314
_cell_volume                      1905.64301404

loop_
_atom_site_label
_atom_site_type_symbol
_atom_site_description
_atom_site_fract_x
_atom_site_fract_y
_atom_site_fract_z
_atom_type_partial_charge
O1    O     O_R   0.506860 0.599390 0.449240 -0.562817
O2    O     O_R   0.180220 0.594600 0.586780 -0.576945
O3    O     O_R   0.004500 0.400610 0.550760 -0.555142
C1    C     C_R   0.349662 0.618080 0.612779 0.798577
O4    O     O_R   0.177490 0.611290 0.451970 -0.572900
O5    O     O_R   0.001750 0.417420 0.414990 -0.558383
C2    C     C_R   0.347451 0.636648 0.435023 0.859976
O6    O     O_R   0.509610 0.582580 0.585010 -0.503281
O7    O     O_3   0.337420 0.436370 0.488020 -0.265519
V1    V     V_3+5 0.064680 0.511800 0.502220 1.240986
O8    O     O_R   0.671710 0.405400 0.413220 -0.538794
C3    C     C_R   0.839759 0.388417 0.385611 0.888619
O9    O     O_R   0.674440 0.388710 0.548030 -0.535680
C4    C     C_R   0.842461 0.362703 0.565190 0.993577
V2    V     V_3+5 0.564010 0.488200 0.497780 1.281532
O10   O     O_3   0.841140 0.563630 0.511980 -0.275591
C5    C     C_R   0.914610 0.115875 0.614196 -0.092737
H1    H     H_    0.918263 0.990056 0.695494 0.115585
H2    H     H_    0.945016 0.039056 0.590484 0.129250
C6    C     C_R   0.851181 0.285635 0.605147 -0.238975
C7    C     C_R   0.868088 0.314303 0.929095 -0.038103
C8    C     C_R   0.878406 0.390205 0.893861 -0.004730
C9    C     C_R   0.878388 0.367727 0.824236 -0.011199
C10   C     C_R   0.860196 0.268035 0.787603 0.075621
C11   C     C_R   0.864918 0.190339 0.824139 -0.003562
C12   C     C_R   0.854037 0.242612 0.715889 -0.005274
C13   C     C_R   0.888912 0.142045 0.683481 -0.033615
C14   C     C_R   0.897689 0.067393 0.720315 -0.018083
C15   C     C_R   0.878787 0.090563 0.789296 -0.057681
C16   C     C_R   0.816292 0.312374 0.674869 0.246793
C17   C     C_R   0.902889 0.187050 0.574778 0.277715
C18   C     C_R   0.864456 0.214484 0.895037 -0.101100
H3    H     H_    0.869697 0.333352 0.983235 0.109187
H4    H     H_    0.903150 0.429517 0.800385 0.135500
H5    H     H_    0.890518 0.467162 0.920713 0.114176
H6    H     H_    0.884193 0.029716 0.815291 0.072317
C19   C     C_2   0.000366 0.292571 0.283511 -0.033432
C20   C     C_2   0.841582 0.333370 0.315582 -0.141281
H7    H     H_    0.137933 0.303185 0.309208 0.161550
H8    H     H_    0.706283 0.331054 0.289486 0.150358
C21   C     C_2   0.001886 0.235782 0.212634 -0.101030
C22   C     C_2   0.854263 0.178892 0.181611 0.231157
H9    H     H_    0.136695 0.237252 0.185888 0.158622
C23   C     C_2   0.208051 0.791389 0.781993 -0.044153
C24   C     C_2   0.361544 0.809643 0.822745 -0.146024
H10   H     H_    0.072481 0.827549 0.797924 0.109349
H11   H     H_    0.493623 0.769055 0.808643 0.130048
C25   C     C_2   0.210183 0.716721 0.717202 -0.126368
C26   C     C_2   0.363733 0.696774 0.675295 0.211920
H12   H     H_    0.076066 0.675998 0.703673 0.152572
C27   C     C_R   0.387481 0.881381 0.386068 0.007756
H13   H     H_    0.408349 0.830815 0.477281 0.085373
H14   H     H_    0.315453 0.004915 0.308309 0.153336
H15   H     H_    0.397167 0.959236 0.411497 0.132343
C28   C     C_R   0.361063 0.708837 0.392723 -0.128636
C29   C     C_R   0.403437 0.688474 0.070910 -0.150442
C30   C     C_R   0.443583 0.613410 0.105294 0.378586
C31   C     C_R   0.435319 0.635665 0.175236 -0.058900
C32   C     C_R   0.374161 0.729677 0.211596 -0.010674
C33   C     C_R   0.339489 0.806367 0.176108 -0.057320
C34   C     C_R   0.360972 0.752237 0.283024 0.024938
C35   C     C_R   0.366005 0.854173 0.316720 -0.014446
C36   C     C_R   0.334341 0.928292 0.281567 -0.037458
C37   C     C_R   0.299698 0.903347 0.213332 0.350060
C38   C     C_R   0.339037 0.679019 0.322592 -0.055892
C39   C     C_R   0.391965 0.808689 0.423526 -0.092282
C40   C     C_R   0.357340 0.784960 0.105180 -0.135916
H16   H     H_    0.418185 0.673453 0.017002 0.107098
H17   H     H_    0.486762 0.580192 0.200866 0.119959
O11   O     O_R   0.203230 0.917310 0.915020 -0.576045
O12   O     O_R   0.535500 0.888690 0.048040 -0.558966
O13   O     O_R   0.711080 0.082610 0.085000 -0.519839
C41   C     C_R   0.366136 0.863893 0.066380 0.881629
O14   O     O_R   0.532630 0.905370 0.913230 -0.568864
O15   O     O_R   0.708190 0.099410 0.949230 -0.559355
C42   C     C_R   0.364077 0.882852 0.887150 0.810195
O16   O     O_R   0.206120 0.900510 0.050790 -0.518821
O17   O     O_3   0.375360 0.063570 0.011990 -0.253877
V3    V     V_3+5 0.648170 0.988200 0.997780 1.228240
O18   O     O_R   0.038240 0.111390 0.951940 -0.571595
C43   C     C_R   0.870383 0.137132 0.934672 0.802104
O19   O     O_R   0.041120 0.094710 0.086750 -0.525731
C44   C     C_R   0.871553 0.117687 0.112777 0.857434
V4    V     V_3+5 0.148810 0.011930 0.002180 1.238333
O20   O     O_3   0.871750 0.936430 0.988010 -0.281849
N1    N     N_R   0.937384 0.156797 0.503902 0.091473
O21   O     O_R   0.840160 0.195073 0.461597 -0.366273
O22   O     O_R   0.052058 0.083024 0.480888 -0.359214
N2    N     N_R   0.675557 0.171653 0.215463 0.086389
O23   O     O_R   0.522740 0.212635 0.197275 -0.331056
O24   O     O_R   0.664515 0.122573 0.263154 -0.314042
N3    N     N_R   0.535988 0.757838 0.686308 0.069479
O25   O     O_R   0.704679 0.717156 0.676653 -0.340759
O26   O     O_R   0.524070 0.854688 0.697812 -0.390618
C45   C     C_2   0.261729 0.577018 0.293692 0.826746
O27   O     O_2   0.333466 0.503627 0.308381 -0.610457
O28   O     O_R   0.106367 0.565455 0.249405 -0.741024
H18   H     H_    0.066849 0.492922 0.232884 0.318174
N4    N     N_R   0.500463 0.515802 0.069382 0.087837
O29   O     O_R   0.510793 0.495433 0.004435 -0.377259
O30   O     O_R   0.538915 0.445724 0.101145 -0.356190
N5    N     N_R   0.196970 0.973036 0.185264 0.068188
O31   O     O_R   0.015856 0.954693 0.171173 -0.370055
O32   O     O_R   0.263472 0.063645 0.192907 -0.321850
N6    N     N_R   0.719868 0.404590 0.701428 0.061094
O33   O     O_R   0.790382 0.489219 0.692462 -0.370603
O34   O     O_R   0.558182 0.403679 0.733668 -0.363044

loop_
_geom_bond_atom_site_label_1
_geom_bond_atom_site_label_2
_geom_bond_distance
_ccdc_geom_bond_type
C21   C22   1.354733 D    
C45   O27   1.223306 D    
C2    C28   1.450412 S    
C1    O6    1.298111 A    
O12   V3    2.024459 S    
O28   H18   1.013892 S    
C6    C16   1.417270 A    
C37   N5    1.418122 S    
C8    H5    1.082762 S    
N6    O34   1.301373 A    
C15   H6    1.082805 S    
C12   C13   1.419978 A    
C35   C36   1.386037 A    
O14   C42   1.294858 A    
C24   C42   1.476998 S    
C14   C15   1.386651 A    
C10   C12   1.436372 A    
O13   V3    2.015195 S    
O5    C3    1.295333 A    
N1    O22   1.301665 A    
C7    H3    1.083866 S    
V2    O10   2.163339 S    
C30   N4    1.441726 S    
C29   C30   1.397760 A    
O8    V2    2.004685 S    
C33   C40   1.424787 A    
C9    C10   1.415711 A    
C40   C41   1.474149 S    
N2    O24   1.301140 A    
O11   V4    2.007452 S    
O7    V1    2.159405 S    
O18   V4    2.036426 S    
C11   C18   1.419075 A    
C25   H12   1.085347 S    
C32   C33   1.424258 A    
C17   N1    1.442114 S    
O1    C2    1.286181 A    
O9    C4    1.296881 A    
C3    C20   1.471317 S    
C21   H9    1.084726 S    
C34   C35   1.420106 A    
C27   C35   1.397773 A    
C28   C38   1.415648 A    
C23   H10   1.086132 S    
C24   H11   1.085125 S    
C11   C15   1.405352 A    
C7    C18   1.396683 A    
C32   C34   1.432314 A    
C5    C13   1.398931 A    
C4    C6    1.470775 S    
H1    C14   1.084386 S    
C10   C11   1.427947 A    
O12   C41   1.296067 A    
N1    O21   1.301189 A    
O15   C43   1.293075 A    
O16   V4    2.038763 S    
C31   C32   1.413410 A    
C29   H16   1.083950 S    
C27   C39   1.382766 A    
O2    C1    1.301709 A    
C19   C20   1.346729 D    
C18   C43   1.468441 S    
C34   C38   1.425240 A    
N4    O29   1.301679 A    
C9    H4    1.076350 S    
N3    O26   1.301714 A    
V4    O20   2.163308 S    
N5    O32   1.297125 A    
O3    C4    1.292445 A    
O1    V2    2.034898 S    
C25   C26   1.359452 D    
N4    O30   1.301802 A    
C12   C16   1.429475 A    
O6    V2    2.006995 S    
O19   V4    2.004703 S    
O14   V3    2.019926 S    
O9    V2    2.036504 S    
C16   N6    1.438254 S    
O11   C42   1.300122 A    
C5    C17   1.397007 A    
C26   N3    1.441173 S    
O2    V1    2.019924 S    
V3    O20   1.709431 S    
C28   C39   1.393436 A    
H13   C39   1.084050 S    
C23   C24   1.344623 D    
O4    C2    1.292756 A    
O17   V3    2.159460 S    
C22   C44   1.483900 S    
O18   C43   1.295341 A    
O5    V1    2.015193 S    
O8    C3    1.296648 A    
C45   O28   1.398565 S    
C31   H17   1.078136 S    
C29   C40   1.399042 A    
N6    O33   1.301722 A    
C1    C26   1.490189 S    
C33   C37   1.414159 A    
C22   N2    1.431512 S    
C27   H15   1.084218 S    
O7    V2    1.712515 S    
O4    V1    2.024479 S    
C19   H7    1.086040 S    
O3    V1    2.028656 S    
V1    O10   1.709504 S    
C20   H8    1.080147 S    
H14   C36   1.085194 S    
C30   C31   1.400869 A    
N3    O25   1.300650 A    
C5    H2    1.084425 S    
C19   C21   1.493661 S    
N5    O31   1.300987 A    
O13   C44   1.292825 A    
C36   C37   1.387686 A    
O17   V4    1.711314 S    
C38   C45   1.490689 S    
O19   C44   1.304973 A    
C13   C14   1.397831 A    
C41   O16   1.294968 A    
C8    C9    1.393472 A    
N2    O23   1.300501 A    
C7    C8    1.388705 A    
O15   V3    2.028809 S    
C23   C25   1.492881 S    
C6    C17   1.412174 A    
