data_mof_unit_62542.cif
_audit_creation_date              2012-12-10T20:06:46-0500
_audit_creation_method            fapswitch 2.2
_symmetry_space_group_name_H-M    P1
_symmetry_Int_Tables_number       1
_space_group_crystal_system       triclinic
_cell_length_a                    32.113395
_cell_length_b                    32.113316
_cell_length_c                    38.67569
_cell_angle_alpha                 90.001626
_cell_angle_beta                  89.999878
_cell_angle_gamma                 89.999846
_cell_volume                      39884.9860451

loop_
_atom_site_label
_atom_site_type_symbol
_atom_type_description
_atom_site_fract_x
_atom_site_fract_y
_atom_site_fract_z
_atom_type_partial_charge
C1    C     C_R   0.919383 0.500000 1.000000 0.909115
C2    C     C_R   0.487740 0.228160 0.970099 0.325097
C3    C     C_R   0.523490 0.970045 0.840566 0.347256
C4    C     C_R   0.029757 0.476308 0.159449 0.346557
C5    C     C_R   0.523712 0.029744 0.159451 0.346417
C6    C     C_R   0.970233 0.523687 0.159449 0.346681
C7    C     C_R   0.476293 0.970250 0.159449 0.346510
C8    C     C_R   0.470024 0.976536 0.340568 0.347458
C9    C     C_R   0.976518 0.529964 0.340569 0.347295
C10   C     C_R   0.529974 0.023464 0.340569 0.347329
C11   C     C_R   0.023469 0.470030 0.340567 0.347402
C12   C     C_R   0.529764 0.976314 0.659448 0.346533
C13   C     C_R   0.228161 0.511042 0.969776 0.325152
C14   C     C_R   0.023482 0.529964 0.659432 0.347269
C15   C     C_R   0.470228 0.023680 0.659449 0.346681
C16   C     C_R   0.976529 0.470033 0.659432 0.347427
C17   C     C_R   0.000004 0.500000 0.822588 -0.271815
C18   C     C_R   0.499995 0.999996 0.822465 -0.272448
C19   C     C_R   0.999994 0.499997 0.177412 -0.271815
C20   C     C_R   0.500002 0.999997 0.177413 -0.271779
C21   C     C_R   0.500000 1.000000 0.322466 -0.272490
C22   C     C_R   0.999993 0.499996 0.322466 -0.272464
C23   C     C_R   0.499996 0.999997 0.677411 -0.271840
C24   C     C_R   0.511044 0.771837 0.969775 0.325151
C25   C     C_R   0.000006 0.499998 0.677534 -0.272463
C26   C     C_R   0.000002 0.499999 0.894800 -0.365347
C27   C     C_R   0.499999 0.999999 0.894802 -0.364959
C28   C     C_R   0.999999 0.500001 0.105200 -0.365347
C29   C     C_R   0.500001 0.999999 0.105201 -0.365438
C30   C     C_R   0.500000 0.999999 0.394804 -0.364857
C31   C     C_R   0.999999 0.499999 0.394803 -0.364872
C32   C     C_R   0.499999 0.000000 0.605199 -0.365325
C33   C     C_R   0.000002 0.500000 0.605197 -0.364873
C34   C     C_R   0.000007 0.499999 0.715312 0.436359
C35   C     C_R   0.228161 0.488956 0.030224 0.325177
C36   C     C_R   0.499995 0.999996 0.715022 0.441120
C37   C     C_R   0.999992 0.499997 0.284687 0.436359
C38   C     C_R   0.500000 0.999999 0.284689 0.436345
C39   C     C_R   0.500002 0.999997 0.215024 0.441025
C40   C     C_R   0.999992 0.499997 0.215023 0.441086
C41   C     C_R   0.499995 0.999996 0.784687 0.436391
C42   C     C_R   0.000006 0.500000 0.784977 0.441085
C43   C     C_R   0.728233 0.509613 0.030561 0.321956
C44   C     C_R   0.512262 0.271768 0.029896 0.321740
C45   C     C_R   0.271767 0.488955 0.030223 0.321843
C46   C     C_R   0.512260 0.228162 0.029896 0.325016
C47   C     C_R   0.488957 0.728234 0.030224 0.321783
C48   C     C_R   0.271767 0.511042 0.969776 0.321864
C49   C     C_R   0.487737 0.271766 0.970100 0.321672
C50   C     C_R   0.728233 0.490391 0.969439 0.321928
C51   C     C_R   0.511045 0.728232 0.969776 0.321768
C52   C     C_R   0.228233 0.009418 0.530601 0.321946
C53   C     C_R   0.011857 0.771768 0.530009 0.321727
C54   C     C_R   0.771766 0.988846 0.530195 0.321786
C55   C     C_R   0.990301 0.228235 0.530542 0.321817
C56   C     C_R   0.771767 0.011146 0.469802 0.321783
C57   C     C_R   0.771838 0.509616 0.030560 0.325276
C58   C     C_R   0.988143 0.771766 0.469988 0.321694
C59   C     C_R   0.228233 0.990578 0.469397 0.321842
C60   C     C_R   0.009701 0.228232 0.469460 0.321862
C61   C     C_R   0.706608 0.500002 1.000000 -0.212243
C62   C     C_R   0.499999 0.293392 0.999998 -0.211925
C63   C     C_R   0.293392 0.499999 1.000000 -0.212037
C64   C     C_R   0.500001 0.706608 0.000000 -0.212091
C65   C     C_R   0.206609 0.999998 0.499999 -0.212312
C66   C     C_R   1.000000 0.793391 0.499999 -0.211983
C67   C     C_R   0.793391 0.999996 0.499999 -0.212064
C68   C     C_R   0.488957 0.771840 0.030224 0.325131
C69   C     C_R   0.000001 0.206609 0.500001 -0.212283
C70   C     C_R   0.271839 0.990576 0.469397 0.325334
C71   C     C_R   0.988145 0.728160 0.469988 0.325101
C72   C     C_R   0.728161 0.011145 0.469801 0.325136
C73   C     C_R   0.500000 0.080617 0.999999 0.908845
C74   C     C_R   0.009703 0.271838 0.469460 0.325239
C75   C     C_R   0.728161 0.988847 0.530195 0.325129
C76   C     C_R   0.011855 0.728162 0.530010 0.325065
C77   C     C_R   0.271839 0.009422 0.530601 0.325235
C78   C     C_R   0.990298 0.271840 0.530541 0.325278
C79   C     C_R   0.793449 0.500002 1.000000 -0.218910
C80   C     C_R   0.500000 0.206551 0.999997 -0.219241
C81   C     C_R   0.206551 0.499999 1.000000 -0.219073
C82   C     C_R   0.500001 0.793449 0.999999 -0.219104
C83   C     C_R   0.293449 0.999999 0.499999 -0.218928
C84   C     C_R   0.080617 0.500000 0.000000 0.908875
C85   C     C_R   1.000000 0.706551 0.499999 -0.219230
C86   C     C_R   0.706551 0.999997 0.499998 -0.219123
C87   C     C_R   0.000001 0.293449 0.500000 -0.218985
C88   C     C_1   0.662065 0.500001 0.000000 0.201499
C89   C     C_1   0.500000 0.337935 0.999998 0.201472
C90   C     C_1   0.337935 0.499999 1.000000 0.201563
C91   C     C_1   0.500001 0.662065 0.000001 0.201421
C92   C     C_1   0.162065 0.999998 0.500000 0.201403
C93   C     C_1   0.000000 0.837935 0.499999 0.201459
C94   C     C_1   0.837935 0.999997 0.499999 0.201478
C95   C     C_R   0.500000 0.919383 1.000000 0.909055
C96   C     C_1   0.000001 0.162065 0.500001 0.201367
C97   C     C_1   0.837973 0.500001 1.000000 0.205835
C98   C     C_1   0.500000 0.162027 0.999998 0.205424
C99   C     C_1   0.162027 0.499999 1.000000 0.205606
C100  C     C_1   0.500000 0.837973 0.999999 0.205602
C101  C     C_1   0.337973 1.000000 0.499999 0.205856
C102  C     C_1   1.000000 0.662027 0.499999 0.205490
C103  C     C_1   0.662027 0.999999 0.499999 0.205579
C104  C     C_1   0.000000 0.337973 0.500000 0.205825
C105  C     C_1   0.875227 0.500000 1.000000 -0.042474
C106  C     C_R   0.419383 0.000000 0.500000 0.909360
C107  C     C_1   0.500000 0.124772 0.999998 -0.042522
C108  C     C_1   0.124773 0.500000 1.000000 -0.042564
C109  C     C_1   0.500000 0.875228 0.999999 -0.042455
C110  C     C_1   0.375227 0.000000 0.499999 -0.042334
C111  C     C_1   1.000000 0.624772 0.500000 -0.042343
C112  C     C_1   0.624773 1.000000 0.499999 -0.042445
C113  C     C_1   0.000000 0.375227 0.500000 -0.042216
C114  C     C_1   0.624797 0.500001 0.000000 -0.071300
C115  C     C_1   0.500000 0.375203 0.999999 -0.071441
C116  C     C_1   0.375203 0.499999 0.000000 -0.071298
C117  C     C_R   1.000000 0.580617 0.500000 0.909126
C118  C     C_1   0.500000 0.624797 0.000001 -0.071441
C119  C     C_1   0.124797 0.999999 0.500000 -0.071375
C120  C     C_1   0.000000 0.875203 0.499999 -0.071425
C121  C     C_1   0.875203 0.999998 0.500000 -0.071373
C122  C     C_1   0.000000 0.124797 0.500001 -0.071426
C123  C     C_R   0.500000 0.419387 1.000000 0.873080
C124  C     C_R   0.419387 0.500000 0.000000 0.873046
C125  C     C_R   0.500000 0.580613 0.000000 0.872887
C126  C     C_R   0.580614 0.500000 0.000000 0.872843
C127  C     C_R   0.000000 0.919386 0.499999 0.872993
C128  C     C_R   0.580617 1.000000 0.500000 0.909072
C129  C     C_R   0.919387 1.000000 0.500000 0.872944
C130  C     C_R   1.000000 0.080614 0.500000 0.872682
C131  C     C_R   0.080614 1.000000 0.500000 0.872701
C132  C     C_R   0.000000 0.500000 0.932523 1.012657
C133  C     C_R   0.500000 1.000000 0.932525 1.012975
C134  C     C_R   1.000000 0.500000 0.067477 1.012657
C135  C     C_R   0.500000 0.000000 0.067477 1.012350
C136  C     C_R   0.500000 1.000000 0.432526 1.013298
C137  C     C_R   1.000000 0.500000 0.432526 1.013155
C138  C     C_R   0.500000 0.000000 0.567476 1.012666
C139  C     C_R   0.000000 0.419383 0.500000 0.909485
C140  C     C_R   0.000000 0.500000 0.567474 1.013152
C141  C     C_R   0.970053 0.476466 0.876717 0.300316
C142  C     C_R   0.476774 0.030151 0.876740 0.298782
C143  C     C_R   0.029952 0.523533 0.876720 0.299988
C144  C     C_R   0.523221 0.969845 0.876738 0.299090
C145  C     C_R   0.029947 0.476466 0.123282 0.300001
C146  C     C_R   0.523554 0.029933 0.123283 0.299768
C147  C     C_R   0.970047 0.523533 0.123281 0.300300
C148  C     C_R   0.476449 0.970063 0.123282 0.300044
C149  C     C_R   0.469824 0.976806 0.376740 0.299366
C150  C     C_R   0.771838 0.490388 0.969439 0.325300
C151  C     C_R   0.976792 0.530165 0.376741 0.298819
C152  C     C_R   0.530175 0.023194 0.376741 0.298965
C153  C     C_R   0.023201 0.469831 0.376739 0.299346
C154  C     C_R   0.529953 0.976472 0.623281 0.299951
C155  C     C_R   0.023209 0.530166 0.623260 0.298831
C156  C     C_R   0.470043 0.023526 0.623281 0.300319
C157  C     C_R   0.976798 0.469833 0.623260 0.299333
C158  C     C_R   0.970241 0.476310 0.840550 0.346672
C159  C     C_R   0.476502 0.029948 0.840568 0.347214
C160  C     C_R   0.029765 0.523690 0.840552 0.346566
Cl1   Cl    Cl    0.930866 0.448645 0.899157 -0.405023
Cl2   Cl    Cl    0.949145 0.569426 0.399269 -0.404507
Cl3   Cl    Cl    0.569443 0.050828 0.399269 -0.404693
Cl4   Cl    Cl    0.050846 0.430570 0.399265 -0.405232
Cl5   Cl    Cl    0.569144 0.948658 0.600838 -0.404506
Cl6   Cl    Cl    0.050856 0.569425 0.600733 -0.404485
Cl7   Cl    Cl    0.430852 0.051338 0.600839 -0.405153
Cl8   Cl    Cl    0.949152 0.430572 0.600733 -0.405246
Cl9   Cl    Cl    0.932146 0.447491 0.817730 -0.358165
Cl10  Cl    Cl    0.445305 0.066521 0.818151 -0.355575
Cl11  Cl    Cl    0.067861 0.552511 0.817735 -0.358014
Cl12  Cl    Cl    0.449105 0.069396 0.899266 -0.404343
Cl13  Cl    Cl    0.554683 0.933469 0.818148 -0.355588
Cl14  Cl    Cl    0.067851 0.447487 0.182268 -0.358143
Cl15  Cl    Cl    0.552556 0.067821 0.182271 -0.358115
Cl16  Cl    Cl    0.932134 0.552505 0.182267 -0.358038
Cl17  Cl    Cl    0.447452 0.932171 0.182267 -0.358233
Cl18  Cl    Cl    0.433418 0.945379 0.318151 -0.355648
Cl19  Cl    Cl    0.945344 0.566556 0.318153 -0.355537
Cl20  Cl    Cl    0.566580 0.054623 0.318153 -0.355444
Cl21  Cl    Cl    0.054638 0.433434 0.318148 -0.355574
Cl22  Cl    Cl    0.567867 0.947503 0.682266 -0.358162
Cl23  Cl    Cl    0.069135 0.551357 0.899163 -0.404473
Cl24  Cl    Cl    0.054656 0.566557 0.681849 -0.355462
Cl25  Cl    Cl    0.432123 0.052487 0.682267 -0.358045
Cl26  Cl    Cl    0.945359 0.433438 0.681849 -0.355645
Cl27  Cl    Cl    0.799383 0.521683 0.068890 -0.371262
Cl28  Cl    Cl    0.527634 0.200619 0.067399 -0.369937
Cl29  Cl    Cl    0.200617 0.475104 0.068133 -0.370629
Cl30  Cl    Cl    0.475105 0.799386 0.068133 -0.370712
Cl31  Cl    Cl    0.200617 0.524894 0.931866 -0.370472
Cl32  Cl    Cl    0.472367 0.200615 0.932596 -0.369903
Cl33  Cl    Cl    0.799383 0.478321 0.931110 -0.371422
Cl34  Cl    Cl    0.550890 0.930599 0.899263 -0.404717
Cl35  Cl    Cl    0.524896 0.799380 0.931865 -0.370372
Cl36  Cl    Cl    0.299383 0.021252 0.568981 -0.371385
Cl37  Cl    Cl    0.026721 0.700619 0.567654 -0.369946
Cl38  Cl    Cl    0.700616 0.974864 0.568071 -0.370628
Cl39  Cl    Cl    0.978124 0.299386 0.568847 -0.371281
Cl40  Cl    Cl    0.700617 0.025129 0.431925 -0.370246
Cl41  Cl    Cl    0.973279 0.700614 0.432345 -0.370109
Cl42  Cl    Cl    0.299383 0.978747 0.431016 -0.371405
Cl43  Cl    Cl    0.021878 0.299381 0.431154 -0.371097
Cl44  Cl    Cl    0.700724 0.521670 0.068897 -0.401810
Cl45  Cl    Cl    0.069133 0.448643 0.100840 -0.404473
Cl46  Cl    Cl    0.527649 0.299279 0.067399 -0.402409
Cl47  Cl    Cl    0.299277 0.475100 0.068137 -0.402521
Cl48  Cl    Cl    0.475101 0.700726 0.068138 -0.402561
Cl49  Cl    Cl    0.299277 0.524897 0.931863 -0.402136
Cl50  Cl    Cl    0.472349 0.299275 0.932596 -0.402811
Cl51  Cl    Cl    0.700723 0.478334 0.931103 -0.402180
Cl52  Cl    Cl    0.524900 0.700720 0.931863 -0.402103
Cl53  Cl    Cl    0.200724 0.021236 0.568990 -0.401603
Cl54  Cl    Cl    0.026735 0.799279 0.567654 -0.402225
Cl55  Cl    Cl    0.799276 0.974857 0.568075 -0.402611
Cl56  Cl    Cl    0.551402 0.069102 0.100844 -0.404120
Cl57  Cl    Cl    0.978134 0.200726 0.568854 -0.402234
Cl58  Cl    Cl    0.799277 0.025133 0.431922 -0.401987
Cl59  Cl    Cl    0.973265 0.799274 0.432343 -0.402710
Cl60  Cl    Cl    0.200723 0.978760 0.431009 -0.402199
Cl61  Cl    Cl    0.021867 0.200721 0.431148 -0.401703
Cl62  Cl    Cl    0.930862 0.551354 0.100840 -0.405019
Cl63  Cl    Cl    0.448604 0.930894 0.100840 -0.404541
Cl64  Cl    Cl    0.430554 0.949176 0.399268 -0.405347
N1    N     N_R   0.989858 0.535014 0.767361 -0.078233
N2    N     N_R   0.989759 0.465016 0.266991 -0.074326
N3    N     N_R   0.465024 0.010245 0.266992 -0.074484
N4    N     N_R   0.010225 0.534977 0.266992 -0.074801
N5    N     N_R   0.510123 0.035016 0.732640 -0.078509
N6    N     N_R   0.010238 0.465018 0.733008 -0.074456
N7    N     N_R   0.489867 0.964977 0.732638 -0.078103
N8    N     N_R   0.989775 0.534981 0.733009 -0.074670
N9    N     N_R   0.489784 0.965009 0.766990 -0.074461
N10   N     N_R   0.010154 0.464986 0.767360 -0.078296
N11   N     N_R   0.510206 0.034983 0.766992 -0.074823
N12   N     N_R   0.010142 0.535010 0.232640 -0.078472
N13   N     N_R   0.464992 0.010161 0.232640 -0.078344
N14   N     N_R   0.989842 0.464983 0.232639 -0.078058
N15   N     N_R   0.535010 0.989833 0.232641 -0.078272
N16   N     N_R   0.534977 0.989751 0.266993 -0.074637
O1    O     O_R   0.939070 0.534360 0.999910 -0.595821
O2    O     O_R   0.034360 0.560930 0.499910 -0.595727
O3    O     O_R   0.560930 0.965640 0.499910 -0.595747
O4    O     O_R   0.965640 0.439070 0.499910 -0.595803
O5    O     O_R   0.560930 0.034360 0.500090 -0.595746
O6    O     O_R   0.965640 0.560930 0.500090 -0.595682
O7    O     O_R   0.439070 0.965640 0.500090 -0.595781
O8    O     O_R   0.034360 0.439070 0.500090 -0.595850
O9    O     O_R   0.000050 0.534360 0.948990 -0.583899
O10   O     O_R   0.534360 0.999950 0.948990 -0.584108
O11   O     O_R   0.999950 0.465640 0.948990 -0.584084
O12   O     O_R   0.534360 0.060930 0.999910 -0.595694
O13   O     O_R   0.465640 0.000050 0.948990 -0.583873
O14   O     O_R   0.999950 0.534360 0.051010 -0.584124
O15   O     O_R   0.465640 0.999950 0.051010 -0.584070
O16   O     O_R   0.000050 0.465640 0.051010 -0.583860
O17   O     O_R   0.534360 0.000050 0.051010 -0.583914
O18   O     O_R   0.500050 0.034360 0.448990 -0.583914
O19   O     O_R   0.034360 0.499950 0.448990 -0.584221
O20   O     O_R   0.499950 0.965640 0.448990 -0.584141
O21   O     O_R   0.965640 0.500050 0.448990 -0.583848
O22   O     O_R   0.499950 0.034360 0.551010 -0.584183
O23   O     O_R   0.060930 0.465640 0.999910 -0.595707
O24   O     O_R   0.965640 0.499950 0.551010 -0.584179
O25   O     O_R   0.500050 0.965640 0.551010 -0.583871
O26   O     O_R   0.034360 0.500050 0.551010 -0.583886
O27   O     O_R   0.500080 0.438950 0.971150 -0.592104
O28   O     O_R   0.438950 0.499920 0.971150 -0.591751
O29   O     O_R   0.499920 0.561050 0.971150 -0.591736
O30   O     O_R   0.561050 0.500080 0.971150 -0.591847
O31   O     O_R   0.499920 0.438950 0.028850 -0.591851
O32   O     O_R   0.561050 0.499920 0.028850 -0.591643
O33   O     O_R   0.500080 0.561050 0.028850 -0.591998
O34   O     O_R   0.465640 0.939070 0.999910 -0.595729
O35   O     O_R   0.438950 0.500080 0.028850 -0.591968
O36   O     O_R   0.000080 0.938950 0.471150 -0.592079
O37   O     O_R   0.938950 0.999920 0.471150 -0.591673
O38   O     O_R   0.999920 0.061050 0.471150 -0.591591
O39   O     O_R   0.061050 0.000080 0.471150 -0.591905
O40   O     O_R   0.999920 0.938950 0.528850 -0.591775
O41   O     O_R   0.061050 0.999920 0.528850 -0.591540
O42   O     O_R   0.000080 0.061050 0.528850 -0.591901
O43   O     O_R   0.938950 0.000080 0.528850 -0.592050
O44   O     O_R   0.060930 0.534360 0.000090 -0.595748
O45   O     O_R   0.465640 0.060930 0.000090 -0.595595
O46   O     O_R   0.939070 0.465640 0.000090 -0.595781
O47   O     O_R   0.534360 0.939070 0.000090 -0.595717
O48   O     O_R   0.439070 0.034360 0.499910 -0.595889
Zn1   Zn    Zn3+2 0.000000 0.545910 0.000000 1.152442
Zn2   Zn    Zn3+2 0.500000 0.500000 0.038460 1.134040
Zn3   Zn    Zn3+2 0.000000 0.000000 0.461540 1.134265
Zn4   Zn    Zn3+2 1.000000 0.000000 0.538460 1.134242
Zn5   Zn    Zn3+2 0.545910 0.000000 0.000000 1.152559
Zn6   Zn    Zn3+2 0.000000 0.454090 0.000000 1.152581
Zn7   Zn    Zn3+2 0.454090 0.000000 0.000000 1.152692
Zn8   Zn    Zn3+2 0.500000 0.045910 0.500000 1.152308
Zn9   Zn    Zn3+2 0.045910 0.500000 0.500000 1.152373
Zn10  Zn    Zn3+2 0.500000 0.954090 0.500000 1.152471
Zn11  Zn    Zn3+2 0.954090 0.500000 0.500000 1.152513
Zn12  Zn    Zn3+2 0.500000 0.500000 0.961540 1.134063

loop_
_geom_bond_atom_site_label_1
_geom_bond_atom_site_label_2
_ccdc_geom_bond_type
C53   Cl54  S    
C11   Cl21  S    
O24   Zn11  S    
C56   Cl58  S    
O18   Zn8   S    
C125  O33   A    
O38   Zn3   S    
C15   Cl25  S    
C12   C23   A    
C28   C145  A    
C126  O32   A    
C92   C119  T    
C2    Cl32  S    
C74   Cl43  S    
C7    Cl17  S    
C129  O43   A    
C17   C160  A    
C18   C159  A    
C56   C72   A    
C136  O20   A    
C67   C94   S    
C93   C120  T    
C90   C116  T    
C127  O40   A    
C31   C137  S    
C25   C34   S    
C73   O12   A    
C97   C105  T    
C24   C51   A    
C100  C109  T    
C102  C111  T    
C157  Cl8   S    
C1    O46   A    
C44   C46   A    
C10   C21   A    
C115  C123  S    
C95   C109  S    
C133  O13   A    
C47   C64   A    
C30   C149  A    
C81   C99   S    
C24   Cl35  S    
C101  C110  T    
C124  O28   A    
C103  C112  T    
O34   Zn7   S    
C75   C86   A    
O9    Zn1   S    
O45   Zn7   S    
C91   C118  T    
C32   C154  A    
O42   Zn4   S    
C37   N2    A    
C29   C135  S    
C30   C136  S    
C28   C134  S    
C52   C77   A    
C35   C45   A    
C43   C61   A    
C75   Cl38  S    
C16   C25   A    
C9    C151  A    
C28   C147  A    
C49   C62   A    
C126  O30   A    
C51   C64   A    
C12   C154  A    
C79   C97   S    
O43   Zn4   S    
C41   N9    A    
O3    Zn10  S    
O23   Zn6   S    
N6    N10   A    
O48   Zn8   S    
C57   Cl27  S    
O1    Zn1   S    
C23   C36   S    
C64   C91   S    
C76   C85   A    
C52   C65   A    
C1    C105  S    
C78   C87   A    
C70   Cl42  S    
C89   C115  T    
C159  Cl10  S    
C60   Cl61  S    
C29   C148  A    
C39   N15   A    
C120  C127  S    
C143  C160  A    
C5    C20   A    
C117  O6    A    
C6    C19   A    
O25   Zn10  S    
C95   O34   A    
C128  O5    A    
C2    C49   A    
C76   Cl37  S    
C114  C126  S    
C144  Cl34  S    
O46   Zn6   S    
C40   N14   A    
C32   C156  A    
C37   N4    A    
C21   C38   S    
C49   Cl50  S    
C119  C131  S    
C113  C139  S    
C154  Cl5   S    
C74   C87   A    
C9    Cl19  S    
O21   Zn11  S    
O10   Zn5   S    
C132  O9    A    
C137  O19   A    
N1    N8    A    
O12   Zn5   S    
C55   C78   A    
C41   N11   A    
C38   N16   A    
O47   Zn5   S    
C32   C138  S    
C17   C158  A    
C123  O27   A    
C31   C151  A    
C30   C152  A    
C55   C69   A    
C147  Cl62  S    
C66   C93   S    
C149  Cl64  S    
O22   Zn8   S    
C26   C143  A    
C47   C68   A    
C39   N13   A    
C123  O31   A    
O19   Zn9   S    
C83   C101  S    
O11   Zn6   S    
O35   Zn2   S    
C33   C155  A    
O37   Zn3   S    
C138  O25   A    
C111  C117  S    
C68   C82   A    
O28   Zn12  S    
C53   C66   A    
C59   C65   A    
C46   C80   A    
C6    C147  A    
O6    Zn11  S    
C95   O47   A    
C4    C145  A    
C140  O26   A    
C152  Cl3   S    
C19   C40   S    
C43   C57   A    
C54   C75   A    
C48   Cl49  S    
C140  O24   A    
C43   Cl44  S    
C50   C61   A    
O29   Zn12  S    
C85   C102  S    
C132  O11   A    
C38   N3    A    
C137  O21   A    
O2    Zn9   S    
N15   N16   A    
C131  O41   A    
C142  C159  A    
C55   Cl57  S    
C47   Cl48  S    
C106  O48   A    
C59   C70   A    
O30   Zn12  S    
C148  Cl63  S    
C59   Cl60  S    
C124  O35   A    
C58   C71   A    
C73   C107  S    
O5    Zn8   S    
C62   C89   S    
C13   C81   A    
C17   C42   S    
C10   C152  A    
O36   Zn3   S    
C51   Cl52  S    
C12   Cl22  S    
C138  O22   A    
C36   N5    A    
C118  C125  S    
C26   C141  A    
C131  O39   A    
O17   Zn5   S    
C117  O2    A    
C35   Cl29  S    
C4    Cl14  S    
O26   Zn9   S    
C5    Cl15  S    
C139  O8    A    
C145  Cl45  S    
C33   C157  A    
C54   Cl55  S    
C135  O17   A    
O7    Zn10  S    
C27   C133  S    
O15   Zn7   S    
C20   C39   S    
C22   C37   S    
C98   C107  T    
C143  Cl23  S    
N5    N11   A    
C150  Cl33  S    
C99   C108  T    
C68   Cl30  S    
C151  Cl2   S    
C44   Cl46  S    
C27   C144  A    
N7    N9    A    
C70   C83   A    
C79   C150  A    
O44   Zn1   S    
C53   C76   A    
C78   Cl39  S    
C29   C146  A    
C116  C124  S    
C80   C98   S    
C16   C157  A    
C34   N8    A    
C3    C144  A    
C121  C129  S    
C48   C63   A    
C72   C86   A    
C96   C122  T    
C10   Cl20  S    
C8    C149  A    
C134  O16   A    
O20   Zn10  S    
C36   N7    A    
C84   C108  S    
C160  Cl11  S    
C14   C25   A    
C88   C114  T    
C112  C128  S    
O41   Zn4   S    
C87   C104  S    
C94   C121  T    
C73   O45   A    
C141  C158  A    
C7    C20   A    
C128  O3    A    
C155  Cl6   S    
C135  O15   A    
C65   C92   S    
O16   Zn6   S    
C141  Cl1   S    
N2    N14   A    
C14   C155  A    
C57   C79   A    
C127  O36   A    
C40   N12   A    
C69   C96   S    
C35   C81   A    
C84   O44   A    
O40   Zn4   S    
C60   C69   A    
O13   Zn7   S    
C77   Cl36  S    
C9    C22   A    
C77   C83   A    
C33   C140  S    
N3    N13   A    
C27   C142  A    
C3    C18   A    
C24   C82   A    
O32   Zn2   S    
C71   C85   A    
C4    C19   A    
C58   C66   A    
C84   O23   A    
C129  O37   A    
O14   Zn1   S    
O31   Zn2   S    
C15   C23   A    
C45   Cl47  S    
C34   N6    A    
C86   C103  S    
C31   C153  A    
C3    Cl13  S    
C153  Cl4   S    
C134  O14   A    
C18   C41   S    
C11   C153  A    
C54   C67   A    
C156  Cl7   S    
C44   C62   A    
C45   C63   A    
C104  C113  T    
C125  O29   A    
C130  O38   A    
C61   C88   S    
C72   Cl40  S    
C58   Cl59  S    
C50   C150  A    
C8    C21   A    
O27   Zn12  S    
C139  O4    A    
C15   C156  A    
C1    O1    A    
C50   Cl51  S    
O39   Zn3   S    
C136  O18   A    
C106  O7    A    
O8    Zn9   S    
C26   C132  S    
C142  Cl12  S    
C7    C148  A    
C106  C110  S    
C42   N1    A    
C71   Cl41  S    
C5    C146  A    
C82   C100  S    
C13   C48   A    
C14   Cl24  S    
C158  Cl9   S    
C56   C67   A    
C11   C22   A    
C13   Cl31  S    
C130  O42   A    
C16   Cl26  S    
C42   N10   A    
C6    Cl16  S    
C63   C90   S    
C60   C74   A    
C52   Cl53  S    
N4    N12   A    
C2    C80   A    
C8    Cl18  S    
O33   Zn2   S    
C46   Cl28  S    
C133  O10   A    
C122  C130  S    
C146  Cl56  S    
O4    Zn11  S    
