data_mof_unit_55724.cif
_audit_creation_date              2013-03-05T15:58:28-0500
_audit_creation_method            fapswitch 2.2
_symmetry_space_group_name_H-M    P1
_symmetry_Int_Tables_number       1
_space_group_crystal_system       triclinic
_cell_length_a                    11.542781
_cell_length_b                    12.600431
_cell_length_c                    13.043535
_cell_angle_alpha                 81.89945
_cell_angle_beta                  90.654618
_cell_angle_gamma                 102.505935
_cell_volume                      1833.25540127

loop_
_atom_site_label
_atom_site_type_symbol
_atom_site_description
_atom_site_fract_x
_atom_site_fract_y
_atom_site_fract_z
_atom_type_partial_charge
O1    O     O_R   0.471500 0.366730 0.627160 -0.572135
O2    O     O_R   0.509620 0.544830 0.662520 -0.624880
C1    C     C_R   0.484687 0.438068 0.691785 0.965346
O3    O     O_R   0.646490 0.410960 0.482310 -0.577786
O4    O     O_R   0.684610 0.589050 0.517670 -0.601825
C2    C     C_R   0.717881 0.501257 0.499149 0.941322
Zn1   Zn    Zn3+2 0.474550 0.381080 0.476390 1.022227
Zn2   Zn    Zn3+2 0.525450 0.618920 0.523610 0.959165
O5    O     O_R   0.490380 0.455170 0.337480 -0.615906
O6    O     O_R   0.528500 0.633270 0.372840 -0.660260
O7    O     O_R   0.315390 0.410950 0.482330 -0.571496
O8    O     O_R   0.353510 0.589040 0.517690 -0.639111
C3    C     C_R   0.518143 0.561725 0.308309 0.812866
C4    C     C_R   0.282182 0.499140 0.499657 0.921123
C5    C     C_1   0.838911 0.502772 0.498864 -0.052100
C6    C     C_1   0.940929 0.501607 0.498696 0.079251
C7    C     C_1   0.059180 0.499095 0.498667 0.048311
C8    C     C_1   0.161197 0.497859 0.498916 -0.126047
C9    C     C_R   0.691695 0.697634 0.061472 -0.029409
H1    H     H_    0.784307 0.665695 0.880939 0.182967
C10   C     C_R   0.550675 0.598935 0.198930 -0.150337
C11   C     C_R   0.379410 0.305373 0.841240 -0.035054
C12   C     C_R   0.361033 0.277709 0.947905 -0.177727
C13   C     C_R   0.418473 0.347977 0.014330 -0.134219
C14   C     C_R   0.502856 0.444219 0.975689 0.058002
C15   C     C_R   0.544169 0.456008 0.872907 -0.040238
C16   C     C_R   0.548264 0.528184 0.036057 0.098022
C17   C     C_R   0.646031 0.614191 0.999482 -0.000865
C18   C     C_R   0.701178 0.609812 0.905198 -0.315320
C19   C     C_R   0.654354 0.529120 0.843607 0.307322
C20   C     C_R   0.496813 0.528582 0.131619 -0.212943
C21   C     C_R   0.645303 0.688181 0.163630 -0.073915
C22   C     C_R   0.472118 0.396240 0.802687 -0.108354
H2    H     H_    0.416442 0.470083 0.158542 0.149863
H3    H     H_    0.396149 0.324359 0.095648 0.158651
H4    H     H_    0.294425 0.206221 0.979546 0.174644
C23   C     C_R   0.357530 0.099590 0.326320 -0.101579
H5    H     H_    0.337831 0.266866 0.318530 0.168578
H6    H     H_    0.325571 0.884526 0.301156 0.143013
N1    N     N_R   0.440320 0.222190 0.444690 -0.130843
C24   C     C_R   0.637322 0.798413 0.631372 -0.033463
C25   C     C_R   0.681379 0.905531 0.648994 -0.287156
C26   C     C_R   0.642936 0.991888 0.588945 0.298098
C27   C     C_R   0.548762 0.967392 0.518106 -0.087595
C28   C     C_R   0.513977 0.857434 0.498128 0.200178
C29   C     C_R   0.487795 0.045850 0.466328 0.011415
C30   C     C_R   0.411646 0.019009 0.382318 0.089991
C31   C     C_R   0.386995 0.911103 0.360211 -0.243088
C32   C     C_R   0.434350 0.831629 0.419304 -0.137070
C33   C     C_R   0.493284 0.147859 0.499358 0.021365
C34   C     C_R   0.374874 0.201797 0.360204 0.035900
N2    N     N_R   0.559060 0.776980 0.554780 -0.131403
H7    H     H_    0.537391 0.170081 0.568883 0.169483
H8    H     H_    0.671178 0.732488 0.674668 0.191892
H9    H     H_    0.751307 0.921629 0.704452 0.195937
H10   H     H_    0.406508 0.749948 0.401551 0.203060
C35   C     C_2   0.695758 0.769461 0.233167 0.526933
H11   H     H_    0.724420 0.742381 0.310056 0.069412
O9    O     O_2   0.703745 0.867516 0.205412 -0.515463
C36   C     C_2   0.286769 0.081667 0.231726 0.392137
H12   H     H_    0.294587 0.016873 0.187575 0.080570
O10   O     O_2   0.219456 0.141237 0.200523 -0.558443
N3    N     N_R   0.712244 0.101084 0.590354 0.194513
O11   O     O_R   0.749507 0.163306 0.503628 -0.358519
O12   O     O_R   0.754722 0.131576 0.677012 -0.347361
C37   C     C_2   0.790536 0.790766 0.020583 0.482540
H13   H     H_    0.790627 0.828842 0.940580 0.053896
O13   O     O_2   0.874185 0.823446 0.074543 -0.523878
C38   C     C_2   0.295187 0.239839 0.775382 0.437029
H14   H     H_    0.263672 0.152273 0.799578 0.071251
O14   O     O_2   0.253527 0.283325 0.698298 -0.538303
N4    N     N_R   0.726646 0.512919 0.760255 0.194758
O15   O     O_R   0.811352 0.592588 0.718408 -0.419091
O16   O     O_R   0.724466 0.413874 0.741092 -0.377849

loop_
_geom_bond_atom_site_label_1
_geom_bond_atom_site_label_2
_geom_bond_distance
_ccdc_geom_bond_type
O4    Zn2   1.957984 S    
C19   N4    1.441184 S    
Zn1   N1    2.054846 S    
N3    O12   1.301464 A    
C18   C19   1.397711 A    
C25   H9    1.083065 S    
C14   C16   1.413973 A    
N1    C34   1.351961 A    
C24   C25   1.385909 A    
C29   C33   1.400683 A    
C11   C38   1.482584 S    
C37   O13   1.221137 D    
C30   C31   1.397809 A    
C28   C32   1.396704 A    
Zn2   O8    1.941056 S    
C7    C8    1.180988 T    
C14   C15   1.405194 A    
C20   H2    1.079647 S    
C26   N3    1.436521 S    
C32   H10   1.066960 S    
O1    Zn1   1.949350 S    
C23   C36   1.488658 S    
C27   C28   1.416760 A    
C36   O10   1.221488 D    
Zn1   O7    1.957984 S    
C9    C17   1.423707 A    
C10   C20   1.382523 A    
C17   C18   1.404573 A    
C35   H11   1.084699 S    
O4    C2    1.300396 A    
C21   C35   1.483972 S    
O3    Zn1   1.941055 S    
N1    C33   1.345088 A    
C9    C21   1.421419 A    
Zn2   O6    1.949348 S    
C31   C32   1.380425 A    
C10   C21   1.415374 A    
O8    C4    1.297353 A    
C15   C19   1.420139 A    
O2    C1    1.314670 A    
H1    C18   1.080834 S    
C26   C27   1.429256 A    
C38   H14   1.086280 S    
C23   C34   1.393085 A    
O7    C4    1.300025 A    
C24   H8    1.079357 S    
C35   O9    1.221256 D    
C13   H3    1.078928 S    
C23   C30   1.417711 A    
C25   C26   1.398346 A    
C1    C22   1.465655 S    
C12   C13   1.386731 A    
C3    C10   1.464163 S    
C5    C6    1.180868 T    
C33   H7    1.076692 S    
C6    C7    1.372154 S    
C38   O14   1.220740 D    
C37   H13   1.085285 S    
C13   C14   1.414485 A    
C9    C37   1.490272 S    
N4    O16   1.301859 A    
C12   H4    1.084153 S    
C16   C17   1.418630 A    
Zn1   O5    1.909141 S    
C11   C22   1.424211 A    
Zn2   N2    2.042632 S    
C29   C30   1.428787 A    
C36   H12   1.082562 S    
O5    C3    1.312492 A    
H5    C34   1.082347 S    
C24   N2    1.355290 A    
C28   N2    1.361287 A    
O1    C1    1.301178 A    
C2    C5    1.393055 S    
C11   C12   1.392922 A    
O3    C2    1.296949 A    
C16   C20   1.387931 A    
C4    C8    1.393038 S    
O2    Zn2   1.909141 S    
N3    O11   1.301720 A    
C15   C22   1.415448 A    
C27   C29   1.425117 A    
N4    O15   1.301677 A    
H6    C31   1.079612 S    
O6    C3    1.303966 A    
