data_mof_unit_61485.cif
_audit_creation_date              2012-12-10T20:09:50-0500
_audit_creation_method            fapswitch 2.2
_symmetry_space_group_name_H-M    P1
_symmetry_Int_Tables_number       1
_space_group_crystal_system       triclinic
_cell_length_a                    38.803561
_cell_length_b                    32.071663
_cell_length_c                    21.713241
_cell_angle_alpha                 89.999533
_cell_angle_beta                  124.285367
_cell_angle_gamma                 90.00034
_cell_volume                      22326.7280158

loop_
_atom_site_label
_atom_site_type_symbol
_atom_type_description
_atom_site_fract_x
_atom_site_fract_y
_atom_site_fract_z
_atom_type_partial_charge
C1    C     C_R   0.919338 0.000001 0.419631 0.901851
C2    C     C_R   0.080662 0.000001 0.580368 0.901871
C3    C     C_R   0.419338 0.500001 0.419631 0.901863
C4    C     C_R   0.580662 0.500001 0.580369 0.901866
C5    C     C_R   0.999298 0.999892 0.812349 -0.197817
C6    C     C_R   0.000703 0.999893 0.187650 -0.197814
C7    C     C_R   0.499297 0.499893 0.812350 -0.197791
C8    C     C_R   0.500703 0.499893 0.187650 -0.197792
C9    C     C_R   0.968080 0.977122 0.749223 0.047726
C10   C     C_R   0.031916 0.977119 0.250773 0.047719
C11   C     C_R   0.468085 0.477116 0.749229 0.047724
C12   C     C_R   0.531914 0.477116 0.250771 0.047723
C13   C     C_R   0.966935 0.978416 0.683599 0.118626
C14   C     C_R   0.033061 0.978412 0.316397 0.118646
C15   C     C_R   0.466940 0.478410 0.683605 0.118632
C16   C     C_R   0.533059 0.478409 0.316395 0.118635
C17   C     C_R   0.999045 0.000059 0.684947 -0.163273
C18   C     C_R   0.000955 0.000061 0.315052 -0.163305
C19   C     C_R   0.499045 0.500060 0.684948 -0.163308
C20   C     C_R   0.500955 0.500061 0.315051 -0.163318
C21   C     C_R   0.030505 0.021868 0.748211 -0.035922
C22   C     C_R   0.969501 0.021879 0.251793 -0.035934
C23   C     C_R   0.530498 0.521880 0.748206 -0.035931
C24   C     C_R   0.469504 0.521884 0.251795 -0.035934
C25   C     C_R   0.897403 0.968634 0.724545 -0.266801
C26   C     C_R   0.102592 0.968622 0.275447 -0.266792
C27   C     C_R   0.397410 0.468616 0.724556 -0.266782
C28   C     C_R   0.602588 0.468614 0.275442 -0.266782
C29   C     C_R   0.867384 0.945290 0.725621 0.402543
C30   C     C_R   0.132608 0.945273 0.274370 0.402546
C31   C     C_R   0.367395 0.445266 0.725633 0.402548
C32   C     C_R   0.632603 0.445262 0.274366 0.402548
C33   C     C_R   0.876410 0.904636 0.753438 -0.256174
C34   C     C_R   0.123578 0.904620 0.246556 -0.256168
C35   C     C_R   0.376426 0.404612 0.753447 -0.256196
C36   C     C_R   0.623571 0.404609 0.246552 -0.256190
C37   C     C_R   0.915619 0.887272 0.781123 0.330066
C38   C     C_R   0.084367 0.887259 0.218871 0.330054
C39   C     C_R   0.415637 0.387254 0.781131 0.330046
C40   C     C_R   0.584360 0.387251 0.218868 0.330044
C41   C     C_R   0.946372 0.910907 0.781753 0.310130
C42   C     C_R   0.053616 0.910899 0.218242 0.310127
C43   C     C_R   0.446387 0.410895 0.781762 0.310133
C44   C     C_R   0.553610 0.410894 0.218237 0.310132
C45   C     C_R   0.000042 0.999999 0.620121 0.920961
C46   C     C_R   0.999957 1.000000 0.379877 0.920952
C47   C     C_R   0.500043 0.500000 0.620123 0.920959
C48   C     C_R   0.499957 0.500000 0.379877 0.920956
C49   C     C_R   0.936856 0.951594 0.751795 -0.053002
C50   C     C_R   0.063137 0.951586 0.248199 -0.053013
C51   C     C_R   0.436865 0.451582 0.751805 -0.053028
C52   C     C_R   0.563133 0.451581 0.248194 -0.053028
C53   C     C_R   0.727778 0.968737 0.189595 0.379379
C54   C     C_R   0.272218 0.968631 0.810210 0.379238
C55   C     C_R   0.227777 0.468753 0.189566 0.379366
C56   C     C_R   0.772221 0.468730 0.810391 0.379341
C57   C     C_R   0.706576 0.998454 0.204184 0.030312
C58   C     C_R   0.293423 0.998444 0.795803 0.030320
C59   C     C_R   0.206576 0.498456 0.204181 0.030311
C60   C     C_R   0.793424 0.498454 0.795817 0.030312
C61   C     C_R   0.728499 0.027904 0.260691 -0.224363
C62   C     C_R   0.271503 0.027987 0.739471 -0.224347
C63   C     C_R   0.228499 0.527893 0.260712 -0.224359
C64   C     C_R   0.771501 0.527912 0.739325 -0.224358
C65   C     C_R   0.771750 0.027890 0.303736 -0.128399
C66   C     C_R   0.228251 0.027972 0.696417 -0.128280
C67   C     C_R   0.271751 0.527879 0.303755 -0.128433
C68   C     C_R   0.728250 0.527898 0.696279 -0.128403
C69   C     C_R   0.793387 0.998596 0.290300 0.080465
C70   C     C_R   0.206613 0.998586 0.709680 0.080411
C71   C     C_R   0.293387 0.498598 0.290294 0.080461
C72   C     C_R   0.706613 0.498597 0.709701 0.080444
C73   C     C_R   0.771812 0.968858 0.232521 0.052805
C74   C     C_R   0.228185 0.968753 0.767289 0.052915
C75   C     C_R   0.271811 0.468874 0.232492 0.052805
C76   C     C_R   0.728188 0.468851 0.767466 0.052825
C77   C     C_1   0.662075 0.999204 0.161330 0.061016
C78   C     C_1   0.337925 0.999197 0.838664 0.061068
C79   C     C_1   0.162075 0.499205 0.161329 0.060996
C80   C     C_1   0.837925 0.499204 0.838670 0.061006
C81   C     C_1   0.837884 0.999468 0.337062 -0.012064
C82   C     C_1   0.162116 0.999468 0.662927 -0.011983
C83   C     C_1   0.337884 0.499469 0.337058 -0.012077
C84   C     C_1   0.662116 0.499469 0.662939 -0.012063
C85   C     C_1   0.875163 0.999888 0.375324 -0.168012
C86   C     C_1   0.124837 0.999889 0.624671 -0.168063
C87   C     C_1   0.375163 0.499888 0.375322 -0.168006
C88   C     C_1   0.624837 0.499888 0.624676 -0.168015
C89   C     C_R   0.092717 0.102223 0.721369 0.131545
C90   C     C_R   0.907324 0.102249 0.278691 0.131522
C91   C     C_R   0.592671 0.602255 0.721303 0.131562
C92   C     C_R   0.407339 0.602261 0.278711 0.131559
C93   C     C_1   0.624761 0.999683 0.124827 -0.121661
C94   C     C_1   0.375238 0.999679 0.875171 -0.121664
C95   C     C_1   0.124761 0.499684 0.124827 -0.121676
C96   C     C_1   0.875239 0.499683 0.875173 -0.121678
C97   C     C_R   1.000000 0.919293 1.000000 0.913808
C98   C     C_R   0.500000 0.419293 1.000000 0.913777
C99   C     C_R   0.999853 0.999991 0.879317 0.950678
C100  C     C_R   0.000147 0.999991 0.120682 0.950686
C101  C     C_R   0.499853 0.499991 0.879318 0.950653
C102  C     C_R   0.500147 0.499991 0.120682 0.950652
C103  C     C_R   0.000000 0.080700 0.000000 0.912911
C104  C     C_R   0.500000 0.580700 0.000000 0.912847
C105  C     C_R   0.500000 0.919542 0.000000 0.904452
C106  C     C_R   1.000000 0.419542 0.000000 0.904312
C107  C     C_R   0.580509 0.000020 0.080562 0.890811
C108  C     C_R   0.419491 0.000019 0.919438 0.890829
C109  C     C_R   0.080509 0.500020 0.080562 0.890762
C110  C     C_R   0.919491 0.500020 0.919438 0.890764
C111  C     C_R   0.500000 0.080574 1.000000 0.891687
C112  C     C_R   1.000000 0.580574 1.000000 0.891685
C113  C     C_R   0.487696 0.228285 0.040522 -0.155517
C114  C     C_R   0.512303 0.228286 0.959476 -0.155508
C115  C     C_R   0.987710 0.728286 0.040543 -0.155497
C116  C     C_R   0.012286 0.728286 0.959450 -0.155497
C117  C     C_R   0.499999 0.206644 0.999999 0.142331
C118  C     C_R   0.999998 0.706644 0.999996 0.142318
C119  C     C_R   0.012305 0.771731 0.959482 -0.089814
C120  C     C_R   0.987690 0.771731 0.040510 -0.089796
C121  C     C_R   0.512322 0.271731 0.959508 -0.089803
C122  C     C_R   0.487676 0.271731 0.040489 -0.089802
C123  C     C_R   0.060729 0.082893 0.722885 -0.215790
C124  C     C_R   0.939303 0.082911 0.277158 -0.215777
C125  C     C_R   0.560693 0.582915 0.722839 -0.215869
C126  C     C_R   0.439315 0.582919 0.277170 -0.215868
C127  C     C_R   0.999998 0.793350 0.999996 0.159429
C128  C     C_R   0.499999 0.293350 0.999999 0.159469
C129  C     C_1   0.500000 0.162193 0.999999 -0.033617
C130  C     C_1   0.999999 0.662193 0.999998 -0.033594
C131  C     C_1   0.999999 0.837769 0.999997 0.100643
C132  C     C_1   0.500000 0.337769 0.999999 0.100636
C133  C     C_1   1.000000 0.875073 0.999999 -0.034448
C134  C     C_1   0.500000 0.375073 1.000000 -0.034479
C135  C     C_1   0.500000 0.124860 0.999999 -0.147874
C136  C     C_1   0.999999 0.624860 0.999999 -0.147844
C137  C     C_R   0.479284 0.771837 0.932312 -0.157993
C138  C     C_R   0.520717 0.771837 0.067690 -0.158041
C139  C     C_R   0.977548 0.271837 0.932341 -0.158034
C140  C     C_R   0.022450 0.271837 0.067660 -0.158048
C141  C     C_R   0.500000 0.793478 0.000001 0.156624
C142  C     C_R   0.999999 0.293478 0.000000 0.156532
C143  C     C_R   0.022449 0.228387 0.067660 -0.157419
C144  C     C_R   0.977550 0.228387 0.932341 -0.157422
C145  C     C_R   0.520715 0.728386 0.067690 -0.157354
C146  C     C_R   0.479285 0.728387 0.932312 -0.157352
C147  C     C_R   1.000000 0.206748 0.000001 0.157178
C148  C     C_R   0.500000 0.706747 0.000001 0.157323
C149  C     C_1   0.500000 0.837928 0.000001 -0.040058
C150  C     C_1   0.999999 0.337928 0.000000 -0.040100
C151  C     C_R   0.065512 0.042148 0.750010 0.050166
C152  C     C_R   0.934501 0.042172 0.249999 0.050206
C153  C     C_R   0.565497 0.542175 0.749998 0.050248
C154  C     C_R   0.434507 0.542181 0.250004 0.050256
C155  C     C_1   1.000000 0.162301 0.000001 -0.037408
C156  C     C_1   0.500000 0.662301 0.000000 -0.037352
C157  C     C_1   0.000000 0.124973 0.000000 -0.121866
C158  C     C_1   0.500000 0.624973 0.000000 -0.121812
C159  C     C_1   0.500000 0.875260 0.000001 -0.139220
C160  C     C_1   1.000000 0.375260 0.000000 -0.139236
C161  C     C_R   0.103317 0.020913 0.778312 0.378592
C162  C     C_R   0.896684 0.020955 0.221669 0.378591
C163  C     C_R   0.603313 0.520960 0.778324 0.378599
C164  C     C_R   0.396687 0.520970 0.221671 0.378599
C165  C     C_R   0.135717 0.040502 0.779083 -0.280945
C166  C     C_R   0.864294 0.040553 0.220916 -0.281039
C167  C     C_R   0.635702 0.540559 0.779074 -0.281030
C168  C     C_R   0.364300 0.540571 0.220925 -0.281050
C169  C     C_R   0.130589 0.080698 0.750127 0.396744
C170  C     C_R   0.869442 0.080740 0.249915 0.396780
C171  C     C_R   0.630553 0.580747 0.750076 0.396788
C172  C     C_R   0.369455 0.580757 0.249933 0.396799
C173  C     C_R   0.029661 0.023124 0.811116 0.367442
C174  C     C_R   0.970346 0.023134 0.188888 0.367465
C175  C     C_R   0.529652 0.523135 0.811111 0.367406
C176  C     C_R   0.470349 0.523138 0.188890 0.367411
H1    H     H_    0.852854 0.886433 0.753268 0.222315
H2    H     H_    0.147131 0.886413 0.246725 0.222316
H3    H     H_    0.352873 0.386404 0.753276 0.222311
H4    H     H_    0.647124 0.386400 0.246723 0.222314
H5    H     H_    0.712080 0.050806 0.271727 0.176214
H6    H     H_    0.287924 0.050964 0.728575 0.176223
H7    H     H_    0.212081 0.550785 0.271768 0.176224
H8    H     H_    0.787920 0.550821 0.728300 0.176224
H9    H     H_    0.788426 0.050754 0.347830 0.178957
H10   H     H_    0.211578 0.050912 0.652457 0.179119
H11   H     H_    0.288427 0.550733 0.347868 0.178943
H12   H     H_    0.711574 0.550770 0.652196 0.178979
H13   H     H_    0.978187 0.788432 0.071999 0.191386
H14   H     H_    0.021809 0.788433 0.927993 0.191382
H15   H     H_    0.478161 0.288432 0.071960 0.191364
H16   H     H_    0.521838 0.288433 0.928037 0.191365
H17   H     H_    0.478163 0.211609 0.071981 0.160524
H18   H     H_    0.521835 0.211610 0.928016 0.160531
H19   H     H_    0.978189 0.711609 0.072020 0.160540
H20   H     H_    0.021807 0.711609 0.927972 0.160543
H21   H     H_    0.960133 0.211707 0.879844 0.152273
H22   H     H_    0.039866 0.211706 0.120158 0.152271
H23   H     H_    0.463214 0.711706 0.879791 0.152103
H24   H     H_    0.536787 0.711706 0.120210 0.152096
H25   H     H_    0.463209 0.788517 0.879791 0.153431
H26   H     H_    0.536792 0.788516 0.120211 0.153410
H27   H     H_    0.960127 0.288516 0.879843 0.153495
H28   H     H_    0.039871 0.288516 0.120158 0.153489
H29   H     H_    0.031491 0.099086 0.700969 0.168517
H30   H     H_    0.968549 0.099092 0.299089 0.168518
H31   H     H_    0.531447 0.599095 0.700910 0.168463
H32   H     H_    0.468563 0.599096 0.299104 0.168461
H33   H     H_    0.164879 0.024174 0.801360 0.201537
H34   H     H_    0.835122 0.024240 0.198617 0.201493
H35   H     H_    0.664874 0.524247 0.801370 0.201499
H36   H     H_    0.335126 0.524263 0.198623 0.201488
H37   H     H_    0.890097 0.000067 0.702421 0.187976
H38   H     H_    0.109901 0.000054 0.297571 0.187979
H39   H     H_    0.390099 0.500049 0.702432 0.187994
H40   H     H_    0.609900 0.500046 0.297566 0.187992
O1    O     O_R   0.939010 0.034440 0.439030 -0.619386
O2    O     O_R   0.060990 0.034440 0.560970 -0.619399
O3    O     O_R   0.439010 0.534440 0.439030 -0.619382
O4    O     O_R   0.560990 0.534440 0.560970 -0.619385
O5    O     O_R   0.561000 0.000050 0.112670 -0.616012
O6    O     O_R   0.439000 0.000050 0.887330 -0.615972
O7    O     O_R   0.061000 0.500050 0.112670 -0.616028
O8    O     O_R   0.939000 0.500050 0.887330 -0.616019
O9    O     O_R   0.561000 0.999980 0.009230 -0.595540
O10   O     O_R   0.439000 0.999980 0.990770 -0.595607
O11   O     O_R   0.061000 0.499980 0.009230 -0.595507
O12   O     O_R   0.939000 0.499980 0.990770 -0.595523
O13   O     O_R   0.500000 0.061030 0.051640 -0.610409
O14   O     O_R   0.500000 0.061030 0.948360 -0.610401
O15   O     O_R   1.000000 0.561030 0.051640 -0.610396
O16   O     O_R   1.000000 0.561030 0.948360 -0.610394
O17   O     O_R   0.939030 0.965580 0.439000 -0.608182
O18   O     O_R   0.060970 0.965580 0.561000 -0.608184
O19   O     O_R   0.439030 0.465580 0.439000 -0.608188
O20   O     O_R   0.560970 0.465580 0.561000 -0.608187
O21   O     O_R   0.000000 0.034440 0.591610 -0.639804
O22   O     O_R   0.000000 0.034440 0.408390 -0.639813
O23   O     O_R   0.500000 0.534440 0.591610 -0.639810
O24   O     O_R   0.500000 0.534440 0.408390 -0.639812
O25   O     O_R   0.000010 0.965580 0.591580 -0.599285
O26   O     O_R   0.999990 0.965580 0.408420 -0.599306
O27   O     O_R   0.500010 0.465580 0.591580 -0.599303
O28   O     O_R   0.499990 0.465580 0.408420 -0.599308
O29   O     O_R   0.034440 0.939000 0.034360 -0.610535
O30   O     O_R   0.965560 0.939000 0.965640 -0.610528
O31   O     O_R   0.534440 0.439000 0.034360 -0.610535
O32   O     O_R   0.465560 0.439000 0.965640 -0.610535
O33   O     O_R   0.034440 0.999990 0.942780 -0.544458
O34   O     O_R   0.965560 0.999990 0.057220 -0.544456
O35   O     O_R   0.534440 0.499990 0.942780 -0.544448
O36   O     O_R   0.465560 0.499990 0.057220 -0.544447
O37   O     O_R   0.965580 0.000000 0.873940 -0.644207
O38   O     O_R   0.034420 0.000000 0.126060 -0.644209
O39   O     O_R   0.465580 0.500000 0.873940 -0.644204
O40   O     O_R   0.534420 0.500000 0.126060 -0.644204
O41   O     O_R   0.034440 0.060970 0.034440 -0.599001
O42   O     O_R   0.965560 0.060970 0.965560 -0.598991
O43   O     O_R   0.534440 0.560970 0.034440 -0.598931
O44   O     O_R   0.465560 0.560970 0.965560 -0.598922
O45   O     O_R   0.500020 0.939060 0.051770 -0.606862
O46   O     O_R   0.499980 0.939060 0.948230 -0.606847
O47   O     O_R   0.000020 0.439060 0.051770 -0.606796
O48   O     O_R   0.999980 0.439060 0.948230 -0.606791
Zn1   Zn    Zn3+2 0.000000 0.045990 0.500000 0.924869
Zn2   Zn    Zn3+2 0.500000 0.545990 0.500000 0.924835
Zn3   Zn    Zn3+2 0.000000 0.954030 0.500000 1.006114
Zn4   Zn    Zn3+2 0.500000 0.454030 0.500000 1.006080
Zn5   Zn    Zn3+2 0.045990 0.999980 0.045940 1.098001
Zn6   Zn    Zn3+2 0.954010 0.999980 0.954060 1.098011
Zn7   Zn    Zn3+2 0.545990 0.499980 0.045940 1.098085
Zn8   Zn    Zn3+2 0.454010 0.499980 0.954060 1.098093
Zn9   Zn    Zn3+2 0.500010 0.000060 0.069050 1.028972
Zn10  Zn    Zn3+2 0.499990 0.000060 0.930950 1.029056
Zn11  Zn    Zn3+2 0.000010 0.500060 0.069050 1.029104
Zn12  Zn    Zn3+2 0.999990 0.500060 0.930950 1.029123
Cl1   Cl    Cl    0.172232 0.102845 0.750504 -0.610413
Cl2   Cl    Cl    0.827812 0.102893 0.249575 -0.610205
Cl3   Cl    Cl    0.672181 0.602903 0.750414 -0.610218
Cl4   Cl    Cl    0.327829 0.602914 0.249602 -0.610162
Cl5   Cl    Cl    0.924821 0.835393 0.812675 -0.567235
Cl6   Cl    Cl    0.075160 0.835379 0.187324 -0.567246
Cl7   Cl    Cl    0.424845 0.335373 0.812676 -0.567277
Cl8   Cl    Cl    0.575150 0.335371 0.187324 -0.567269
Cl9   Cl    Cl    0.996159 0.889319 0.818158 -0.549642
Cl10  Cl    Cl    0.003827 0.889317 0.181837 -0.549646
Cl11  Cl    Cl    0.496178 0.389316 0.818168 -0.549648
Cl12  Cl    Cl    0.503819 0.389316 0.181832 -0.549650
C177  C     C_3   0.795504 0.937250 0.217758 -0.346004
C178  C     C_3   0.804712 0.897964 0.264202 -0.752453
H41   H     H_    0.824160 0.905656 0.324572 0.248305
H42   H     H_    0.775197 0.883237 0.250109 0.283573
H43   H     H_    0.821973 0.875339 0.252451 0.265045
H44   H     H_    0.777772 0.928846 0.157810 0.267626
H45   H     H_    0.825329 0.950558 0.230818 0.228473
C179  C     C_3   0.204479 0.937057 0.781863 -0.345826
C180  C     C_3   0.195029 0.897971 0.734846 -0.752939
H46   H     H_    0.175493 0.905900 0.674580 0.248355
H47   H     H_    0.224453 0.883217 0.748534 0.283377
H48   H     H_    0.177775 0.875270 0.746483 0.264988
H49   H     H_    0.222279 0.928390 0.841701 0.267612
H50   H     H_    0.174752 0.950411 0.769194 0.228507
C181  C     C_3   0.295502 0.437279 0.217700 -0.345956
C182  C     C_3   0.304693 0.397972 0.264085 -0.752525
H51   H     H_    0.324137 0.405636 0.324466 0.248309
H52   H     H_    0.275171 0.383244 0.249958 0.283552
H53   H     H_    0.321951 0.375356 0.252312 0.265054
H54   H     H_    0.277775 0.428903 0.157740 0.267629
H55   H     H_    0.325334 0.450587 0.230795 0.228475
C183  C     C_3   0.704494 0.437236 0.782216 -0.345923
C184  C     C_3   0.695259 0.397969 0.735717 -0.752613
H56   H     H_    0.675801 0.405682 0.675357 0.248317
H57   H     H_    0.724764 0.383237 0.749770 0.283520
H58   H     H_    0.678000 0.375338 0.747461 0.265041
H59   H     H_    0.722234 0.428808 0.842154 0.267626
H60   H     H_    0.674680 0.450551 0.769196 0.228480
Cl13  Cl    Cl    0.698845 0.931299 0.118410 -0.590773
Cl14  Cl    Cl    0.301150 0.931054 0.881126 -0.590753
Cl15  Cl    Cl    0.198844 0.431332 0.118347 -0.590855
Cl16  Cl    Cl    0.801154 0.431279 0.881552 -0.590851
C185  C     C_3   0.085267 0.144997 0.687056 -0.366298
C186  C     C_3   0.071310 0.141827 0.605958 -0.773807
H61   H     H_    0.095568 0.126210 0.602083 0.288873
H62   H     H_    0.041764 0.123839 0.572948 0.245216
H63   H     H_    0.065904 0.173566 0.581729 0.241879
H64   H     H_    0.060678 0.161586 0.688838 0.197752
H65   H     H_    0.113915 0.164333 0.719251 0.256132
C187  C     C_3   0.914795 0.145014 0.313044 -0.366346
C188  C     C_3   0.928772 0.141822 0.394151 -0.773765
H66   H     H_    0.904519 0.126202 0.398038 0.288868
H67   H     H_    0.958315 0.123827 0.427127 0.245210
H68   H     H_    0.934190 0.173554 0.418408 0.241859
H69   H     H_    0.939379 0.161603 0.311249 0.197758
H70   H     H_    0.886152 0.164359 0.280886 0.256138
C189  C     C_3   0.585198 0.645020 0.686949 -0.366401
C190  C     C_3   0.571228 0.641829 0.605847 -0.773813
H71   H     H_    0.595487 0.626216 0.601969 0.288883
H72   H     H_    0.541689 0.623828 0.572866 0.245210
H73   H     H_    0.565804 0.673561 0.581587 0.241822
H74   H     H_    0.560608 0.661605 0.688735 0.197667
H75   H     H_    0.613838 0.664368 0.719114 0.256118
C191  C     C_3   0.414817 0.645024 0.313073 -0.366410
C192  C     C_3   0.428788 0.641828 0.394176 -0.773802
H76   H     H_    0.404529 0.626216 0.398053 0.288886
H77   H     H_    0.458326 0.623825 0.427151 0.245210
H78   H     H_    0.434215 0.673559 0.418442 0.241818
H79   H     H_    0.439407 0.661608 0.311289 0.197667
H80   H     H_    0.386178 0.664375 0.280914 0.256121
Cl17  Cl    Cl    0.110790 0.969638 0.812538 -0.545888
Cl18  Cl    Cl    0.889185 0.969691 0.187387 -0.546012
Cl19  Cl    Cl    0.610814 0.469695 0.812605 -0.546002
Cl20  Cl    Cl    0.389180 0.469707 0.187378 -0.546029
Cl21  Cl    Cl    0.065890 0.055842 0.886419 -0.551886
Cl22  Cl    Cl    0.934125 0.055859 0.113591 -0.551866
Cl23  Cl    Cl    0.565871 0.555863 0.886406 -0.551993
Cl24  Cl    Cl    0.434132 0.555867 0.113596 -0.551978
C193  C     C_3   0.930802 0.958414 0.611821 -0.420604
C194  C     C_3   0.937301 0.911690 0.608347 -0.674847
H81   H     H_    0.969080 0.905120 0.622604 0.283403
H82   H     H_    0.932674 0.894272 0.647174 0.264300
H83   H     H_    0.914159 0.900070 0.551095 0.228055
H84   H     H_    0.900764 0.963537 0.605694 0.208644
H85   H     H_    0.926109 0.973626 0.561747 0.190578
C195  C     C_3   0.069193 0.958407 0.388174 -0.420600
C196  C     C_3   0.062689 0.911684 0.391645 -0.674866
H86   H     H_    0.030908 0.905117 0.377382 0.283404
H87   H     H_    0.067317 0.894265 0.352821 0.264303
H88   H     H_    0.085827 0.900062 0.448898 0.228029
H89   H     H_    0.099231 0.963527 0.394300 0.208644
H90   H     H_    0.073888 0.973620 0.438249 0.190576
C197  C     C_3   0.430810 0.458402 0.611830 -0.420577
C198  C     C_3   0.437318 0.411679 0.608364 -0.674865
H91   H     H_    0.469099 0.405114 0.622629 0.283402
H92   H     H_    0.432690 0.394259 0.647187 0.264293
H93   H     H_    0.414181 0.400055 0.551111 0.228048
H94   H     H_    0.400771 0.463519 0.605704 0.208634
H95   H     H_    0.426114 0.473614 0.561753 0.190587
C199  C     C_3   0.569189 0.458400 0.388169 -0.420576
C200  C     C_3   0.562680 0.411678 0.391635 -0.674869
H96   H     H_    0.530898 0.405114 0.377368 0.283401
H97   H     H_    0.567308 0.394258 0.352812 0.264293
H98   H     H_    0.585816 0.400054 0.448888 0.228045
H99   H     H_    0.599228 0.463517 0.394296 0.208634
H100  H     H_    0.573885 0.473613 0.438246 0.190586
Cl25  Cl    Cl    0.818185 0.966880 0.691252 -0.548818
Cl26  Cl    Cl    0.181809 0.966857 0.308737 -0.548802
Cl27  Cl    Cl    0.318193 0.466848 0.691265 -0.548745
Cl28  Cl    Cl    0.681806 0.466843 0.308733 -0.548746

loop_
_geom_bond_atom_site_label_1
_geom_bond_atom_site_label_2
_ccdc_geom_bond_type
C28   H40   S    
C186  H62   S    
C193  H85   S    
C193  C194  S    
C55   C59   A    
C178  H43   S    
C180  H47   S    
C121  H16   S    
C109  O11   A    
C122  H15   S    
C183  H60   S    
C191  H79   S    
C26   C50   A    
C97   O29   A    
C139  C142  A    
C186  H63   S    
C138  C145  A    
C29   C33   A    
C198  H91   S    
C123  H29   S    
C194  H83   S    
O21   Zn1   S    
C9    C13   A    
C137  C141  A    
C3    O19   A    
C54   C74   A    
C11   C15   A    
C156  C158  T    
C182  H53   S    
C113  C122  A    
C12   C16   A    
C1    O17   A    
C151  C161  A    
C70   C74   A    
O5    Zn9   S    
C147  C155  S    
C188  H66   S    
C113  H17   S    
C100  O38   A    
C41   C49   A    
C67   H11   S    
C22   C152  S    
C25   C29   A    
O46   Zn10  S    
C63   H7    S    
C27   C31   A    
O24   Zn2   S    
C137  C146  A    
C164  C168  A    
C121  C128  A    
C95   C109  S    
C62   C66   A    
C191  C192  S    
C103  C157  S    
C167  C171  A    
C6    C174  A    
C185  H65   S    
C17   C21   A    
C104  O43   A    
O6    Zn10  S    
C19   C23   A    
C92   C191  S    
C187  H69   S    
C181  C182  S    
O37   Zn6   S    
C16   C20   A    
C115  C118  A    
C45   O21   A    
C106  O48   A    
C29   Cl25  S    
C9    C49   S    
C190  H73   S    
C72   C84   S    
C126  C154  A    
C179  C180  S    
C21   C173  A    
C23   C153  S    
C176  Cl24  S    
C75   C181  S    
C185  C186  S    
C24   C176  A    
C145  C148  A    
C90   C124  A    
C91   C125  A    
C53   C73   A    
C84   C88   T    
C190  H71   S    
O30   Zn6   S    
C138  C141  A    
C57   C61   A    
C78   C94   T    
C59   C63   A    
C198  H93   S    
C91   C171  A    
C60   C64   A    
C25   H37   S    
C89   C169  A    
C110  O12   A    
C196  H86   S    
C166  H34   S    
C138  H26   S    
O18   Zn3   S    
C66   C70   A    
C92   C172  A    
C14   C195  S    
C116  C118  A    
C70   C82   S    
C127  C131  S    
C90   C187  S    
C189  C190  S    
C61   C65   A    
C132  C134  T    
C197  H94   S    
C2    O2    A    
C54   Cl14  S    
C199  C200  S    
C120  H13   S    
C161  C165  A    
C185  H64   S    
O3    Zn2   S    
O29   Zn5   S    
C140  C143  A    
C97   C133  S    
C91   C189  S    
C99   O33   A    
C111  C135  S    
C120  C127  A    
C179  H50   S    
O48   Zn12  S    
C112  O15   A    
C153  C163  A    
C64   C68   A    
C154  C164  A    
C101  O39   A    
C17   C45   S    
C140  H28   S    
C104  O44   A    
C19   C47   S    
C195  C196  S    
C129  C135  T    
O25   Zn3   S    
O10   Zn9   S    
C117  C129  S    
C109  O7    A    
C181  H55   S    
C55   C75   A    
C44   C52   A    
C182  H52   S    
C188  H67   S    
C112  C136  S    
C144  C147  A    
C170  Cl2   S    
C27   C51   A    
C7    C11   A    
C71   C83   S    
O39   Zn8   S    
C35   H3    S    
O40   Zn7   S    
C30   C34   A    
C33   H1    S    
C175  Cl23  S    
C10   C14   A    
C196  H88   S    
C126  H32   S    
C58   C78   S    
C200  H98   S    
C125  H31   S    
O23   Zn2   S    
C6    C100  S    
C195  H89   S    
C63   C67   A    
C5    C9    A    
C8    C12   A    
C177  C178  S    
C194  H82   S    
C98   O32   A    
C42   C50   A    
C76   C183  S    
C166  C170  A    
O47   Zn11  S    
C184  H57   S    
C111  O13   A    
C103  O42   A    
C113  C117  A    
O41   Zn5   S    
C37   Cl5   S    
C189  H75   S    
O43   Zn7   S    
C4    O20   A    
C16   C199  S    
C40   Cl8   S    
C18   C22   A    
C5    C173  A    
C104  C158  S    
C187  C188  S    
C8    C176  A    
C26   C30   A    
C181  H54   S    
C4    C88   S    
O38   Zn5   S    
C13   C17   A    
C192  H77   S    
C106  C160  S    
C191  H80   S    
C137  H25   S    
C107  O9    A    
C188  H68   S    
C198  H92   S    
C102  O40   A    
C21   C151  S    
C37   C41   A    
C114  C117  A    
C30   Cl26  S    
C116  H20   S    
C162  Cl18  S    
C40   C44   A    
C68   H12   S    
C7    C101  S    
C73   C177  S    
C81   C85   T    
C119  C127  A    
C58   C62   A    
C83   C87   T    
C197  H95   S    
C163  Cl19  S    
C155  C157  T    
O16   Zn12  S    
C36   H4    S    
C119  H14   S    
C48   O28   A    
C110  O8    A    
C200  H96   S    
C15   C19   A    
O13   Zn9   S    
C150  C160  T    
C140  C142  A    
C189  H74   S    
C41   Cl9   S    
C23   C175  A    
C13   C193  S    
C197  C198  S    
C32   Cl28  S    
C178  H41   S    
C180  H46   S    
C199  H99   S    
C14   C18   A    
C187  H70   S    
C48   O24   A    
C162  C166  A    
C114  C121  A    
C2    O18   A    
C60   C80   S    
C144  H21   S    
C5    C99   S    
C24   C154  S    
C105  O46   A    
C4    O4    A    
C69   C73   A    
C186  H61   S    
O14   Zn10  S    
C165  C169  A    
C101  O35   A    
C18   C46   S    
C12   C52   S    
C146  C148  A    
C183  H59   S    
O8    Zn12  S    
C123  C151  A    
O33   Zn5   S    
O27   Zn4   S    
C145  H24   S    
C190  H72   S    
C59   C79   S    
C97   O30   A    
C53   C57   A    
C82   C86   T    
C96   C110  S    
C33   C37   A    
C56   C60   A    
O44   Zn8   S    
C35   C39   A    
O11   Zn12  S    
C79   C95   T    
C118  C130  S    
C57   C77   S    
O17   Zn3   S    
O31   Zn7   S    
O32   Zn8   S    
C28   C32   A    
C177  H45   S    
C20   C48   S    
O1    Zn1   S    
C31   C35   A    
C34   H2    S    
C46   O26   A    
C10   C50   S    
C32   C36   A    
C143  H22   S    
C115  H19   S    
C183  C184  S    
C53   Cl13  S    
C92   C126  A    
C6    C10   A    
C164  Cl20  S    
C61   H5    S    
C177  H44   S    
C112  O16   A    
C26   H38   S    
C142  C150  S    
C139  H27   S    
C47   O27   A    
C165  H33   S    
C74   C179  S    
C105  C159  S    
C43   C51   A    
C65   C69   A    
C77   C93   T    
C106  O47   A    
C47   O23   A    
C67   C71   A    
C122  C128  A    
O42   Zn6   S    
C25   C49   A    
C69   C81   S    
C38   Cl6   S    
C168  C172  A    
O45   Zn9   S    
C3    O3    A    
O20   Zn4   S    
C1    O1    A    
C148  C156  S    
C152  C162  A    
C161  Cl17  S    
C192  H76   S    
C56   C76   A    
O9    Zn10  S    
C168  H36   S    
C72   C76   A    
O4    Zn2   S    
C141  C149  S    
C173  Cl21  S    
C143  C147  A    
C94   C108  S    
C27   H39   S    
C102  O36   A    
C38   C42   A    
C100  O34   A    
C196  H87   S    
C15   C197  S    
C200  H97   S    
C62   H6    S    
O12   Zn11  S    
O2    Zn1   S    
C195  H90   S    
C146  H23   S    
C20   C24   A    
C39   Cl7   S    
C7    C175  A    
C80   C96   T    
C68   C72   A    
C124  C152  A    
C103  O41   A    
C128  C132  S    
C22   C174  A    
C125  C153  A    
C43   Cl11  S    
C1    C85   S    
C179  H49   S    
C44   Cl12  S    
C65   H9    S    
C3    C87   S    
C114  H18   S    
C36   C40   A    
O35   Zn7   S    
O36   Zn8   S    
C39   C43   A    
C89   C123  A    
C184  H56   S    
C193  H84   S    
O28   Zn4   S    
C64   H8    S    
C163  C167  A    
C108  O6    A    
C139  C144  A    
C90   C170  A    
C174  Cl22  S    
O15   Zn11  S    
C42   Cl10  S    
O26   Zn3   S    
C149  C159  T    
C172  Cl4   S    
C182  H51   S    
C180  H48   S    
C184  H58   S    
C169  Cl1   S    
O34   Zn6   S    
C45   O25   A    
C171  Cl3   S    
C54   C58   A    
O19   Zn4   S    
C31   Cl27  S    
C124  H30   S    
C34   C38   A    
O22   Zn1   S    
C130  C136  T    
C131  C133  T    
C55   Cl15  S    
C56   Cl16  S    
C98   C134  S    
C116  C119  A    
C89   C185  S    
C66   H10   S    
C167  H35   S    
C98   O31   A    
C99   O37   A    
C93   C107  S    
C71   C75   A    
C28   C52   A    
C108  O10   A    
C2    C86   S    
C178  H42   S    
C46   O22   A    
C199  H100  S    
C194  H81   S    
C11   C51   S    
O7    Zn11  S    
C105  O45   A    
C115  C120  A    
C192  H78   S    
C111  O14   A    
C8    C102  S    
C107  O5    A    
