data_mof_unit_52591.cif
_audit_creation_date              2012-12-10T16:58:27-0500
_audit_creation_method            fapswitch 2.2
_symmetry_space_group_name_H-M    P1
_symmetry_Int_Tables_number       1
_space_group_crystal_system       triclinic
_cell_length_a                    7.792066
_cell_length_b                    8.798378
_cell_length_c                    23.210141
_cell_angle_alpha                 92.809659
_cell_angle_beta                  86.222659
_cell_angle_gamma                 93.04943
_cell_volume                      1583.87026494

loop_
_atom_site_label
_atom_site_type_symbol
_atom_type_description
_atom_site_fract_x
_atom_site_fract_y
_atom_site_fract_z
_atom_type_partial_charge
C1    C     C_R   0.544625 0.793706 0.497665 0.926670
C2    C     C_R   0.352646 0.396436 0.301035 0.091578
C3    C     C_R   0.391852 0.661049 0.761303 -0.155919
C4    C     C_R   0.314032 0.427353 0.245397 -0.187175
C5    C     C_R   0.472938 0.560724 0.793781 0.193593
C6    C     C_R   0.434246 0.506520 0.209161 0.251743
C7    C     C_2   0.569146 0.955731 0.500069 -0.107575
C8    C     C_2   0.431972 0.043905 0.496445 -0.105093
C9    C     C_R   0.503482 0.508720 0.610663 0.878429
C10   C     C_R   0.497133 0.493974 0.389165 0.884423
C11   C     C_R   0.338330 0.402661 0.116953 0.505904
C12   C     C_R   0.455414 0.206055 0.500998 0.898826
C13   C     C_R   0.474025 0.690582 0.887808 0.512833
C14   C     C_R   0.418380 0.666266 0.127675 0.526073
C15   C     C_R   0.342138 0.439838 0.877684 0.483562
C16   C     C_R   0.405789 0.683189 0.067974 -0.030431
C17   C     C_R   0.311264 0.432205 0.938092 -0.040440
C18   C     C_R   0.362635 0.553302 0.033157 -0.046524
C19   C     C_R   0.369387 0.559453 0.972710 -0.054995
C20   C     C_R   0.307817 0.418314 0.058959 -0.034059
C21   C     C_R   0.436540 0.693334 0.947304 -0.026993
C22   C     C_R   0.424690 0.825125 0.041863 0.124564
C23   C     C_R   0.585842 0.455502 0.766504 0.171717
C24   C     C_R   0.225665 0.305584 0.966015 0.162439
C25   C     C_R   0.457026 0.827635 0.981754 -0.212397
C26   C     C_R   0.224293 0.303064 0.026320 -0.241336
C27   C     C_3   0.369751 0.968635 0.074203 -0.284261
C28   C     C_3   0.178417 0.947485 0.095468 -0.783312
C29   C     C_3   0.134272 0.171372 0.935139 -0.349095
C30   C     C_3   0.962619 0.215535 0.914152 -0.766617
C31   C     C_3   0.346154 0.784765 0.669851 -0.391272
C32   C     C_3   0.493451 0.892927 0.648388 -0.832983
C33   C     C_3   0.258827 0.261593 0.329246 -0.456133
C34   C     C_R   0.592563 0.561549 0.230551 0.122580
C35   C     C_3   0.291772 0.112793 0.294341 -0.771300
C36   C     C_R   0.600518 0.440022 0.706164 0.038683
C37   C     C_R   0.615235 0.558373 0.290252 -0.007369
C38   C     C_R   0.509355 0.536224 0.673221 -0.152501
C39   C     C_R   0.489581 0.481336 0.326147 -0.100391
C40   C     C_R   0.414690 0.655511 0.701357 0.114436
H1    H     H_    0.484717 0.935594 0.961625 0.173948
H2    H     H_    0.980223 0.312606 0.885276 0.281019
H3    H     H_    0.901876 0.116847 0.890104 0.261005
H4    H     H_    0.874257 0.248315 0.951708 0.234383
H5    H     H_    0.217983 0.120730 0.899634 0.253338
H6    H     H_    0.105168 0.076550 0.964786 0.177854
H7    H     H_    0.755324 0.437242 0.827929 0.176644
H8    H     H_    0.606682 0.290068 0.823631 0.225600
H9    H     H_    0.835302 0.553258 0.193854 0.166821
H10   H     H_    0.762620 0.731414 0.204361 0.210101
H11   H     H_    0.627852 0.251801 0.652717 0.185401
H12   H     H_    0.154919 0.211452 0.048112 0.182973
H13   H     H_    0.805598 0.372906 0.654564 0.210231
H14   H     H_    0.874395 0.586709 0.294914 0.181172
H15   H     H_    0.765769 0.749150 0.306039 0.183729
H16   H     H_    0.561657 0.945316 0.685552 0.276150
H17   H     H_    0.586809 0.830974 0.619079 0.240461
H18   H     H_    0.441485 0.985120 0.624692 0.240526
H19   H     H_    0.268336 0.743274 0.633648 0.222371
H20   H     H_    0.257617 0.852505 0.699188 0.206706
H21   H     H_    0.237084 0.113118 0.251355 0.285376
H22   H     H_    0.432264 0.095994 0.288362 0.269244
H23   H     H_    0.311295 0.745093 0.783469 0.163979
H24   H     H_    0.229490 0.015479 0.317876 0.233485
H25   H     H_    0.304652 0.246424 0.372637 0.197714
H26   H     H_    0.118330 0.278225 0.332667 0.216661
H27   H     H_    0.824229 0.981416 0.475758 0.198629
H28   H     H_    0.779334 0.976591 0.548123 0.175116
H29   H     H_    0.225320 0.026037 0.446984 0.174832
H30   H     H_    0.176162 0.015173 0.518964 0.193311
H31   H     H_    0.057019 0.496312 0.406483 0.209050
H32   H     H_    0.116732 0.333654 0.438642 0.211134
H33   H     H_    0.009174 0.726598 0.564173 0.162450
H34   H     H_    0.194530 0.380175 0.229070 0.177821
H35   H     H_    0.017866 0.566075 0.599934 0.175739
H36   H     H_    0.097418 0.928499 0.057889 0.225071
H37   H     H_    0.154984 0.848889 0.123374 0.256372
H38   H     H_    0.132783 0.047285 0.121613 0.279709
H39   H     H_    0.452747 0.001744 0.110065 0.278604
H40   H     H_    0.386630 0.064635 0.045123 0.185114
N1    N     N_R   0.397487 0.525101 0.149942 -0.327318
N2    N     N_3   0.262331 0.981122 0.484907 -0.428164
N3    N     N_3   0.018078 0.403640 0.431537 -0.372278
N4    N     N_3   0.969058 0.611394 0.563989 -0.324640
N5    N     N_R   0.433023 0.562579 0.854805 -0.342658
N6    N     N_2   0.950330 0.457950 0.484560 0.010823
N7    N     N_2   0.049670 0.542050 0.515440 -0.029118
N8    N     N_3   0.687573 0.364623 0.799432 -0.419813
N9    N     N_3   0.728379 0.619027 0.191455 -0.434477
N10   N     N_3   0.703655 0.322391 0.679523 -0.418775
N11   N     N_3   0.763538 0.633529 0.314624 -0.438171
N12   N     N_3   0.740124 0.018367 0.509945 -0.423685
O1    O     O_R   0.389250 0.738570 0.503790 -0.589891
O2    O     O_2   0.552638 0.813723 0.863088 -0.575198
O3    O     O_2   0.454834 0.787759 0.163174 -0.584150
O4    O     O_2   0.284913 0.326672 0.841545 -0.577991
O5    O     O_R   0.610750 0.261430 0.496210 -0.576204
O6    O     O_R   0.678390 0.711620 0.493890 -0.624847
O7    O     O_R   0.321610 0.288380 0.506110 -0.657177
O8    O     O_R   0.355400 0.513520 0.588790 -0.630171
O9    O     O_R   0.644600 0.486480 0.411210 -0.577717
O10   O     O_R   0.644550 0.486570 0.578900 -0.613776
O11   O     O_R   0.355450 0.513430 0.421100 -0.660628
O12   O     O_2   0.317260 0.264744 0.139444 -0.618810
Zn1   Zn    Zn3+2 0.306930 0.518000 0.506610 0.933707
Zn2   Zn    Zn3+2 0.693070 0.482000 0.493390 0.991395

loop_
_geom_bond_atom_site_label_1
_geom_bond_atom_site_label_2
_ccdc_geom_bond_type
C34   C37   A    
N4    N7    S    
C32   H18   S    
C33   H25   S    
C7    C8    D    
C11   N1    A    
O8    Zn1   S    
C8    N2    S    
C10   O11   A    
C19   C21   A    
C24   C26   A    
C27   H39   S    
H11   N10   S    
H35   N4    S    
C31   C40   S    
C18   C19   A    
C31   H19   S    
C24   C29   S    
C9    C38   S    
C12   O7    A    
H15   N11   S    
H29   N2    S    
O1    Zn1   S    
C2    C39   A    
H28   N12   S    
C9    O10   A    
C22   C25   A    
C5    C23   A    
H8    N8    S    
C35   H24   S    
C28   H38   S    
H33   N4    S    
C4    H34   S    
C15   N5    A    
C5    N5    S    
C6    N1    S    
C30   H4    S    
N6    Zn2   S    
C32   H17   S    
C33   H26   S    
H31   N3    S    
O7    Zn1   S    
C11   C20   A    
C17   C24   A    
C37   N11   S    
C35   H21   S    
C27   H40   S    
C25   H1    S    
C15   O4    S    
N6    N7    D    
C17   C19   A    
C6    C34   A    
C29   H5    S    
C10   C39   S    
C31   H20   S    
C2    C4    A    
C29   C30   S    
C26   H12   S    
H10   N9    S    
C31   C32   S    
N7    Zn1   S    
C8    C12   S    
C13   C21   A    
O11   Zn1   S    
C16   C18   A    
C28   H37   S    
C12   O5    A    
C11   O12   S    
O5    Zn2   S    
C2    C33   S    
C4    C6    A    
C3    C40   A    
C9    O8    A    
C23   N8    S    
C14   C16   A    
C30   H3    S    
C28   H36   S    
C14   O3    S    
H13   N10   S    
C36   N10   S    
O9    Zn2   S    
C15   C17   A    
C21   C25   A    
C16   C22   A    
C1    C7    S    
C10   O9    A    
H9    N9    S    
C3    C5    A    
C1    O6    A    
C3    H23   S    
C29   H6    S    
O6    Zn2   S    
C13   O2    S    
C22   C27   S    
H7    N8    S    
C36   C38   A    
C34   N9    S    
H14   N11   S    
C37   C39   A    
C38   C40   A    
C20   C26   A    
C7    N12   S    
H27   N12   S    
C33   C35   S    
O10   Zn2   S    
C35   H22   S    
C18   C20   A    
H30   N2    S    
H32   N3    S    
N3    N6    S    
C1    O1    A    
C23   C36   A    
C13   N5    A    
C27   C28   S    
C30   H2    S    
C14   N1    A    
C32   H16   S    
