data_mof_unit_50843.cif
_audit_creation_date              2012-10-26T19:58:18-0400
_audit_creation_method            fapswitch 2.2
_symmetry_space_group_name_H-M    P1
_symmetry_Int_Tables_number       1
_space_group_crystal_system       triclinic
_cell_length_a                    7.459769
_cell_length_b                    8.693444
_cell_length_c                    13.401665
_cell_angle_alpha                 94.625639
_cell_angle_beta                  77.460939
_cell_angle_gamma                 103.289456
_cell_volume                      825.23162844

loop_
_atom_site_label
_atom_site_type_symbol
_atom_type_description
_atom_site_fract_x
_atom_site_fract_y
_atom_site_fract_z
_atom_type_partial_charge
C1    C     C_R   0.544703 0.800126 0.504110 0.537067
C2    C     C_R   0.338568 0.496443 0.806692 -0.006335
C3    C     C_2   0.567922 0.968061 0.508435 -0.161650
C4    C     C_R   0.400008 0.498347 0.694417 0.527222
C5    C     C_2   0.429142 0.031670 0.495143 -0.166912
C6    C     C_R   0.454374 0.199815 0.497206 0.535276
C7    C     C_R   0.601305 0.511108 0.306042 0.533567
C8    C     C_R   0.878315 0.678725 0.055033 -0.133019
C9    C     C_R   0.661775 0.537587 0.196208 -0.008335
C10   C     C_R   0.153994 0.418393 0.848391 -0.135071
C11   C     C_R   0.099628 0.389672 0.952132 -0.138790
C12   C     C_R   0.418340 0.509807 0.975842 0.031538
C13   C     C_R   0.230014 0.431885 0.015092 -0.126492
C14   C     C_3   0.032974 0.247067 0.364330 0.059177
C15   C     C_3   0.918554 0.158848 0.287913 -0.404049
C16   C     C_R   0.467217 0.555053 0.872377 0.026255
C17   C     C_R   0.559132 0.546253 0.036160 0.028060
C18   C     C_R   0.739013 0.640632 0.995934 0.047896
C19   C     C_R   0.776483 0.699227 0.898162 -0.144194
C20   C     C_R   0.642128 0.659050 0.837826 -0.127578
C21   C     C_R   0.527073 0.491055 0.135319 -0.132510
C22   C     C_R   0.839530 0.628192 0.155061 -0.141028
Cu1   Cu    Cu3+1 0.321300 0.483160 0.488710 0.967591
Cu2   Cu    Cu3+1 0.678700 0.516840 0.511290 1.001517
H1    H     H_    0.945129 0.665545 0.201366 0.141271
H2    H     H_    0.676100 0.714426 0.764766 0.136553
H3    H     H_    0.700150 0.039697 0.522790 0.122522
H4    H     H_    0.995395 0.176114 0.434326 0.135669
H5    H     H_    0.183493 0.256722 0.328862 0.155732
H6    H     H_    0.956390 0.223759 0.215685 0.137163
H7    H     H_    0.947666 0.038725 0.271041 0.097370
H8    H     H_    0.765969 0.147497 0.319522 0.164029
H9    H     H_    0.295924 0.959952 0.481773 0.129781
H10   H     H_    0.000213 0.600426 0.589189 0.192071
H11   H     H_    0.910551 0.776655 0.868026 0.106647
H12   H     H_    0.015751 0.750916 0.024653 0.116804
H13   H     H_    0.396401 0.413363 0.168234 0.113037
H14   H     H_    0.052428 0.375419 0.800231 0.135639
H15   H     H_    0.177420 0.405875 0.094639 0.108650
H16   H     H_    0.956261 0.330522 0.983689 0.127536
N1    N     N_2   0.947230 0.542220 0.528320 -0.187578
N2    N     N_2   0.052770 0.457780 0.471680 0.037956
O1    O     O_R   0.383920 0.714220 0.492660 -0.509427
O2    O     O_R   0.685730 0.742660 0.511730 -0.513205
O3    O     O_R   0.275440 0.478800 0.636790 -0.526081
O4    O     O_R   0.577250 0.507240 0.655860 -0.514545
O5    O     O_R   0.314270 0.257340 0.488270 -0.538516
O6    O     O_R   0.616080 0.285780 0.507340 -0.468074
O7    O     O_R   0.422750 0.492760 0.344140 -0.509235
O8    O     O_R   0.724560 0.521200 0.363210 -0.439580
O9    O     O_3   0.992071 0.397748 0.386066 -0.421392

loop_
_geom_bond_atom_site_label_1
_geom_bond_atom_site_label_2
_ccdc_geom_bond_type
C12   C17   A    
C2    C4    S    
Cu1   Cu2   S    
C15   H7    S    
Cu1   O3    S    
C2    C16   A    
N1    N2    D    
C1    O2    A    
C8    C22   A    
C14   O9    S    
C16   C20   A    
N2    O9    S    
C10   H14   S    
Cu2   O4    S    
C3    C5    D    
Cu1   O5    S    
C3    H3    S    
C17   C18   A    
Cu1   O1    S    
C15   H8    S    
H10   N1    S    
C4    O4    A    
Cu2   N1    S    
C11   C13   A    
C9    C21   A    
C6    O6    A    
Cu1   N2    S    
C20   H2    S    
C6    O5    A    
C4    O3    A    
Cu2   O8    S    
C5    C6    S    
Cu2   O2    S    
C17   C21   A    
C9    C22   A    
Cu1   O7    S    
C13   H15   S    
C10   C11   A    
C14   H5    S    
C11   H16   S    
C2    C10   A    
C12   C16   A    
C21   H13   S    
C12   C13   A    
C7    O7    A    
C15   H6    S    
C18   C19   A    
C8    H12   S    
C7    C9    S    
C14   C15   S    
C19   H11   S    
C14   H4    S    
C1    O1    A    
C8    C18   A    
C19   C20   A    
C7    O8    A    
C5    H9    S    
C1    C3    S    
C22   H1    S    
Cu2   O6    S    
