data_mof_unit_39867.cif
_audit_creation_date              2012-10-26T18:47:33-0400
_audit_creation_method            fapswitch 2.2
_symmetry_space_group_name_H-M    P1
_symmetry_Int_Tables_number       1
_space_group_crystal_system       triclinic
_cell_length_a                    10.948764
_cell_length_b                    12.962834
_cell_length_c                    11.730731
_cell_angle_alpha                 100.80372
_cell_angle_beta                  96.012118
_cell_angle_gamma                 91.210037
_cell_volume                      1624.98645312

loop_
_atom_site_label
_atom_site_type_symbol
_atom_type_description
_atom_site_fract_x
_atom_site_fract_y
_atom_site_fract_z
_atom_type_partial_charge
C1    C     C_R   0.500447 0.299065 0.478088 0.544051
C2    C     C_R   0.426044 0.981116 0.629431 -0.149489
C3    C     C_R   0.568518 0.127506 0.378283 -0.151598
C4    C     C_R   0.438901 0.873969 0.624232 -0.163937
C5    C     C_R   0.459165 0.136920 0.549461 -0.136707
C6    C     C_R   0.542659 0.863075 0.449531 -0.124766
C7    C     C_R   0.471803 0.029813 0.544958 0.047864
C8    C     C_R   0.531618 0.970555 0.454774 0.050220
C9    C     C_R   0.431796 0.372331 0.015149 0.240353
C10   C     C_R   0.573887 0.626663 0.985465 0.252922
C11   C     C_R   0.428219 0.388905 0.139305 0.445800
C12   C     C_R   0.500947 0.701080 0.521976 0.527595
C13   C     C_R   0.577053 0.609329 0.861023 0.452846
C14   C     C_R   0.522104 0.558826 0.160228 -0.031393
C15   C     C_R   0.471417 0.444130 0.839865 0.002043
C16   C     C_R   0.261781 0.500088 0.497592 0.555200
C17   C     C_R   0.737912 0.495880 0.501230 0.567877
C18   C     C_R   0.524666 0.546931 0.036895 -0.085526
C19   C     C_R   0.477172 0.453355 0.963573 -0.083063
C20   C     C_R   0.137442 0.442051 0.088708 -0.102157
C21   C     C_R   0.879768 0.469406 0.888978 -0.120691
C22   C     C_R   0.123959 0.480576 0.206079 -0.068019
C23   C     C_R   0.872096 0.491366 0.502734 -0.047364
C24   C     C_R   0.886658 0.460364 0.769370 -0.052371
C25   C     C_R   0.092935 0.411505 0.278768 0.099030
C26   C     C_R   0.913625 0.549615 0.723027 0.115437
C27   C     C_R   0.078142 0.303227 0.232693 -0.026961
C28   C     C_R   0.928529 0.648367 0.797458 0.005310
C29   C     C_R   0.089678 0.265295 0.114745 -0.099828
C30   C     C_R   0.927172 0.656286 0.917455 -0.080114
C31   C     C_R   0.118358 0.334742 0.042621 -0.069161
C32   C     C_R   0.903666 0.566835 0.963253 -0.110247
C33   C     C_R   0.920809 0.449480 0.397945 0.226997
C34   C     C_R   0.127299 0.503467 0.492875 -0.052495
C35   C     C_R   0.076945 0.549704 0.595102 0.228979
C36   C     C_3   0.618633 0.781749 0.840165 -0.076433
C37   C     C_3   0.391248 0.215992 0.161217 -0.075777
C38   C     C_3   0.482388 0.215222 0.909842 -0.167579
C39   C     C_3   0.715061 0.731388 0.120848 -0.148174
C40   C     C_3   0.819457 0.444805 0.214261 -0.091590
C41   C     C_3   0.180462 0.704821 0.673615 -0.109421
C42   C     C_R   0.951737 0.534779 0.603734 -0.075386
C43   C     C_R   0.048423 0.454789 0.392528 -0.078333
C44   C     C_R   0.496204 0.814612 0.533928 -0.002056
C45   C     C_R   0.507194 0.185830 0.466325 -0.001833
C46   C     C_R   0.579478 0.019828 0.371606 -0.142398
Cu1   Cu    Cu3+1 0.509250 0.507730 0.615930 1.007363
Cu2   Cu    Cu3+1 0.490750 0.492270 0.384070 0.991224
H1    H     H_    0.126746 0.305341 0.951281 0.143311
H2    H     H_    0.947801 0.718306 0.763715 0.092147
H3    H     H_    0.075439 0.182175 0.079040 0.088079
H4    H     H_    0.947781 0.731509 0.974900 0.077986
H5    H     H_    0.587297 0.817018 0.379893 0.106481
H6    H     H_    0.412430 0.182475 0.617937 0.112329
H7    H     H_    0.401867 0.837246 0.689290 0.096804
H8    H     H_    0.610205 0.165622 0.316531 0.128566
H9    H     H_    0.626695 0.975542 0.302798 0.109373
H10   H     H_    0.379719 0.025584 0.698713 0.102526
H11   H     H_    0.682639 0.822640 0.915116 0.139541
H12   H     H_    0.906634 0.572732 0.056441 0.077563
H13   H     H_    0.521124 0.792963 0.857268 0.122380
H14   H     H_    0.635325 0.820632 0.766524 0.124368
H15   H     H_    0.490838 0.207234 0.152721 0.092371
H16   H     H_    0.333287 0.174461 0.082176 0.154885
H17   H     H_    0.368691 0.176008 0.232406 0.129005
H18   H     H_    0.564404 0.224522 0.976396 0.092827
H19   H     H_    0.511248 0.230347 0.826531 0.123707
H20   H     H_    0.449461 0.131802 0.894712 0.125007
H21   H     H_    0.746336 0.654512 0.138500 0.083614
H22   H     H_    0.708190 0.783009 0.206517 0.117689
H23   H     H_    0.424045 0.377035 0.782599 0.171706
H24   H     H_    0.785099 0.768675 0.078730 0.126496
H25   H     H_    0.877248 0.416723 0.143799 0.116380
H26   H     H_    0.831298 0.531768 0.242080 0.089552
H27   H     H_    0.722992 0.426156 0.175708 0.142313
H28   H     H_    0.226191 0.751670 0.756572 0.129070
H29   H     H_    0.097205 0.746432 0.647633 0.079910
H30   H     H_    0.244801 0.702255 0.606177 0.126695
H31   H     H_    0.558003 0.630278 0.217598 0.169770
H32   H     H_    0.160242 0.495630 0.032866 0.127002
H33   H     H_    0.861438 0.400159 0.924571 0.091513
H34   H     H_    0.132126 0.564534 0.239041 0.095141
H35   H     H_    0.876623 0.383271 0.713645 0.098274
H36   H     H_    0.051301 0.249203 0.286584 0.111149
N1    N     N_R   0.523180 0.519350 0.790130 -0.251773
N2    N     N_R   0.476820 0.480650 0.209870 -0.261474
O1    O     O_R   0.506570 0.354460 0.582000 -0.534225
O2    O     O_3   0.359608 0.321948 0.189921 -0.514642
O3    O     O_3   0.384409 0.279358 0.944560 -0.599687
O4    O     O_3   0.600064 0.726199 0.052849 -0.600828
O5    O     O_3   0.844151 0.389279 0.306414 -0.556225
O6    O     O_3   0.151557 0.602898 0.691989 -0.539583
O7    O     O_R   0.493430 0.645540 0.418000 -0.529760
O8    O     O_R   0.490940 0.341410 0.386200 -0.458752
O9    O     O_R   0.509060 0.658590 0.613800 -0.468558
O10   O     O_R   0.327460 0.506540 0.597900 -0.456120
O11   O     O_R   0.672540 0.493460 0.402100 -0.479253
O12   O     O_R   0.311830 0.493480 0.402100 -0.483501
O13   O     O_R   0.688170 0.506520 0.597900 -0.481733
O14   O     O_3   0.647155 0.675029 0.810057 -0.535659

loop_
_geom_bond_atom_site_label_1
_geom_bond_atom_site_label_2
_ccdc_geom_bond_type
C1    O1    A    
C27   C29   A    
C14   C18   A    
C37   O2    S    
C2    C7    A    
C36   H11   S    
C16   O12   A    
C25   C43   S    
C7    C8    A    
C15   C19   A    
Cu2   O11   S    
C38   O3    S    
C17   C23   S    
C23   C42   A    
Cu2   O8    S    
C22   H34   S    
C27   H36   S    
C24   H35   S    
C24   C26   A    
C18   C19   A    
C33   O5    S    
C41   H29   S    
C38   H20   S    
C11   N2    A    
Cu1   O13   S    
C40   H25   S    
C34   C35   A    
C35   C42   A    
C16   C34   S    
C28   H2    S    
C9    C19   A    
C38   H18   S    
C1    O8    A    
C23   C33   A    
C22   C25   A    
C37   H17   S    
C39   H24   S    
C12   O9    A    
C39   O4    S    
C15   N1    A    
C35   O6    S    
C6    C44   A    
C31   H1    S    
C36   H14   S    
C37   H15   S    
C21   C32   A    
C16   O10   A    
Cu2   O7    S    
C20   H32   S    
C33   C43   A    
C5    H6    S    
C14   N2    A    
C9    O3    S    
C41   H30   S    
C5    C7    A    
C6    C8    A    
C4    C44   A    
C5    C45   A    
C3    C45   A    
Cu1   O1    S    
C2    C4    A    
C17   O13   A    
C3    H8    S    
Cu1   Cu2   S    
C11   O2    S    
Cu1   O10   S    
C39   H21   S    
C36   O14   S    
C14   H31   S    
C9    C11   A    
C20   C22   A    
C46   H9    S    
Cu2   N2    S    
C12   O7    A    
C32   H12   S    
C6    H5    S    
C36   H13   S    
Cu1   N1    S    
C37   H16   S    
Cu2   O12   S    
C26   C42   S    
C29   H3    S    
C30   H4    S    
C34   C43   A    
C21   H33   S    
C10   C13   A    
C2    H10   S    
C25   C27   A    
C15   H23   S    
C3    C46   A    
C26   C28   A    
C40   H27   S    
C13   O14   S    
C28   C30   A    
C4    H7    S    
C41   H28   S    
C30   C32   A    
C1    C45   S    
C10   C18   A    
C39   H22   S    
C40   H26   S    
C40   O5    S    
C8    C46   A    
C41   O6    S    
C38   H19   S    
C10   O4    S    
C29   C31   A    
C21   C24   A    
C13   N1    A    
Cu1   O9    S    
C12   C44   S    
C17   O11   A    
C20   C31   A    
