data_mof_unit_49259.cif
_audit_creation_date              2012-12-10T17:51:23-0500
_audit_creation_method            fapswitch 2.2
_symmetry_space_group_name_H-M    P1
_symmetry_Int_Tables_number       1
_space_group_crystal_system       triclinic
_cell_length_a                    9.916871
_cell_length_b                    10.639768
_cell_length_c                    16.778085
_cell_angle_alpha                 91.784359
_cell_angle_beta                  85.002256
_cell_angle_gamma                 90.033419
_cell_volume                      1762.71986863

loop_
_atom_site_label
_atom_site_type_symbol
_atom_type_description
_atom_site_fract_x
_atom_site_fract_y
_atom_site_fract_z
_atom_type_partial_charge
C1    C     C_R   0.500312 0.739262 0.497964 0.855913
C2    C     C_R   0.529625 0.453346 0.262970 -0.025818
C3    C     C_R   0.391583 0.862209 0.365139 -0.175722
C4    C     C_R   0.480865 0.498562 0.653104 0.853538
C5    C     C_R   0.337694 0.924795 0.303320 -0.135027
C6    C     C_R   0.336894 0.055553 0.303628 -0.135358
C7    C     C_R   0.390150 0.124071 0.365704 -0.184009
C8    C     C_R   0.443918 0.062200 0.429335 0.094931
C9    C     C_R   0.444354 0.930436 0.429181 0.098772
C10   C     C_R   0.501532 0.871239 0.492405 -0.089986
C11   C     C_R   0.562226 0.938322 0.552074 -0.217162
C12   C     C_R   0.344066 0.441616 0.776990 -0.232466
C13   C     C_R   0.562174 0.066777 0.552056 -0.199280
C14   C     C_R   0.501264 0.127847 0.492442 -0.101805
C15   C     C_R   0.845058 0.665662 0.604801 -0.161702
C16   C     C_R   0.500312 0.260489 0.497803 0.872075
C17   C     C_R   0.907875 0.746565 0.656689 -0.206081
C18   C     C_R   0.047389 0.745699 0.657068 -0.187427
C19   C     C_R   0.124960 0.664153 0.605405 -0.153640
C20   C     C_R   0.064841 0.581083 0.551861 0.163314
C21   C     C_R   0.920294 0.581404 0.551700 0.174275
C22   C     C_R   0.935791 0.422292 0.450415 -0.116341
C23   C     C_R   0.429361 0.343111 0.155051 -0.163038
C24   C     C_R   0.078891 0.422385 0.450386 -0.112472
C25   C     C_R   0.518892 0.493226 0.347004 0.830909
C26   C     C_R   0.468225 0.479685 0.738858 -0.059295
C27   C     C_R   0.583123 0.487707 0.781382 -0.221270
C28   C     C_R   0.575450 0.454178 0.860572 -0.190326
C29   C     C_R   0.452960 0.410641 0.898225 0.184998
C30   C     C_R   0.335477 0.406607 0.856812 0.121583
C31   C     C_R   0.418554 0.392951 0.232329 -0.224077
C32   C     C_R   0.653160 0.460071 0.215828 -0.199042
C33   C     C_R   0.662672 0.413238 0.137117 -0.169905
C34   C     C_R   0.549274 0.358602 0.105855 0.212683
C35   C     C_2   0.443754 0.382663 0.983193 -0.218769
C36   C     C_2   0.549632 0.340821 0.019306 -0.264124
H1    H     H_    0.679452 0.518649 0.753266 0.164148
H2    H     H_    0.737709 0.672177 0.608175 0.196826
H3    H     H_    0.847714 0.810305 0.696882 0.145066
H4    H     H_    0.323330 0.382499 0.268307 0.147451
H5    H     H_    0.096004 0.808686 0.697600 0.148684
H6    H     H_    0.231397 0.668935 0.609193 0.202866
H7    H     H_    0.138582 0.358903 0.409859 0.138889
H8    H     H_    0.740970 0.503430 0.239239 0.152600
H9    H     H_    0.644161 0.315533 0.984984 0.151389
H10   H     H_    0.341943 0.297631 0.132546 0.125603
H11   H     H_    0.254847 0.435210 0.744130 0.159762
H12   H     H_    0.755879 0.425657 0.099478 0.125961
H13   H     H_    0.665253 0.464778 0.892458 0.139110
H14   H     H_    0.218309 0.269631 0.906137 0.181074
H15   H     H_    0.131069 0.374004 0.858036 0.178827
H16   H     H_    0.350613 0.410489 0.018147 0.173861
H17   H     H_    0.607034 0.890969 0.599687 0.138147
H18   H     H_    0.393322 0.760649 0.361373 0.154621
H19   H     H_    0.297660 0.871641 0.254650 0.137613
H20   H     H_    0.296179 0.104060 0.255243 0.132355
H21   H     H_    0.390474 0.225197 0.362694 0.141304
H22   H     H_    0.607015 0.118961 0.599617 0.154472
H23   H     H_    0.888018 0.358782 0.409898 0.147466
N1    N     N_R   0.857140 0.501200 0.500750 -0.120491
N2    N     N_R   0.142740 0.501280 0.500770 -0.120252
N3    N     N_3   0.208900 0.365484 0.895772 -0.484079
O1    O     O_R   0.385310 0.683220 0.500000 -0.635865
O2    O     O_R   0.614640 0.683250 0.500010 -0.625965
O3    O     O_R   0.371780 0.500010 0.615800 -0.636328
O4    O     O_R   0.601110 0.500030 0.615800 -0.635597
O5    O     O_R   0.385360 0.316750 0.499990 -0.616153
O6    O     O_R   0.614690 0.316780 0.500000 -0.608464
O7    O     O_R   0.398890 0.499970 0.384200 -0.629714
O8    O     O_R   0.628220 0.499990 0.384200 -0.610661
Zn1   Zn    Zn3+2 0.346870 0.499980 0.499990 0.927618
Zn2   Zn    Zn3+2 0.653130 0.500020 0.500010 0.939010

loop_
_geom_bond_atom_site_label_1
_geom_bond_atom_site_label_2
_ccdc_geom_bond_type
C8    C9    A    
C4    C26   S    
C15   H2    S    
C6    C7    A    
C3    C9    A    
C9    C10   A    
C29   C35   S    
C28   H13   S    
C34   C36   S    
C19   C20   A    
C11   H17   S    
C19   H6    S    
C15   C21   A    
O6    Zn2   S    
C23   C34   A    
C5    H19   S    
C32   C33   A    
N2    Zn1   S    
C30   N3    S    
C17   C18   A    
C32   H8    S    
O7    Zn1   S    
C36   H9    S    
C16   O5    A    
C13   C14   A    
C31   H4    S    
C4    O4    A    
C11   C13   A    
C26   C27   A    
C29   C30   A    
H15   N3    S    
C27   H1    S    
C12   H11   S    
C16   O6    A    
C1    O1    A    
C22   C24   A    
C28   C29   A    
O1    Zn1   S    
C33   H12   S    
C33   C34   A    
C2    C25   S    
O5    Zn1   S    
O2    Zn2   S    
C24   N2    A    
C22   N1    A    
C5    C6    A    
H14   N3    S    
C3    H18   S    
C14   C16   S    
C25   O7    A    
C10   C11   A    
N1    Zn2   S    
C20   N2    A    
C1    O2    A    
C3    C5    A    
C7    C8    A    
C23   H10   S    
C20   C21   A    
C21   N1    A    
C2    C32   A    
C18   C19   A    
C17   H3    S    
C18   H5    S    
C12   C26   A    
C22   H23   S    
C15   C17   A    
C24   H7    S    
C4    O3    A    
C35   H16   S    
O8    Zn2   S    
C25   O8    A    
C8    C14   A    
C12   C30   A    
O3    Zn1   S    
C7    H21   S    
O4    Zn2   S    
C1    C10   S    
C13   H22   S    
C6    H20   S    
C2    C31   A    
C27   C28   A    
C35   C36   D    
C23   C31   A    
