data_mof_unit_5859.cif
_audit_creation_date              2012-12-10T17:18:55-0500
_audit_creation_method            fapswitch 2.2
_symmetry_space_group_name_H-M    P1
_symmetry_Int_Tables_number       1
_space_group_crystal_system       triclinic
_cell_length_a                    9.606421
_cell_length_b                    10.833294
_cell_length_c                    13.439335
_cell_angle_alpha                 93.799416
_cell_angle_beta                  71.848887
_cell_angle_gamma                 89.078603
_cell_volume                      1325.10668904

loop_
_atom_site_label
_atom_site_type_symbol
_atom_type_description
_atom_site_fract_x
_atom_site_fract_y
_atom_site_fract_z
_atom_type_partial_charge
C1    C     C_R   0.499643 0.737873 0.495919 0.786929
C2    C     C_R   0.433518 0.479844 0.979666 0.085413
C3    C     C_R   0.471067 0.452877 0.869543 0.008154
C4    C     C_R   0.543560 0.466487 0.029265 0.096201
C5    C     C_R   0.684148 0.414856 0.970615 0.161222
C6    C     C_R   0.712268 0.373226 0.865733 -0.225109
C7    C     C_R   0.606595 0.389589 0.816523 -0.183683
C8    C     C_R   0.518578 0.504251 0.135431 -0.259858
C9    C     C_R   0.764401 0.436820 0.124968 -0.201785
C10   C     C_R   0.371112 0.488038 0.816108 -0.156127
C11   C     C_R   0.233850 0.895182 0.493357 -0.179387
C12   C     C_R   0.420761 0.494672 0.700272 0.801892
C13   C     C_R   0.100679 0.962742 0.527291 -0.260501
C14   C     C_R   0.090172 0.077329 0.582428 -0.110485
C15   C     C_R   0.215369 0.130318 0.595427 0.435063
C16   C     C_R   0.355673 0.070001 0.545340 -0.023611
C17   C     C_R   0.361180 0.943689 0.510923 0.071192
C18   C     C_R   0.494476 0.873332 0.494659 -0.091682
C19   C     C_R   0.623393 0.934804 0.489888 -0.212936
C20   C     C_R   0.622467 0.062473 0.499222 -0.203405
C21   C     C_R   0.490221 0.131282 0.523741 -0.138792
C22   C     C_R   0.924907 0.310035 0.368054 0.423777
C23   C     C_R   0.496554 0.263812 0.509356 0.794173
C24   C     C_R   0.028357 0.213190 0.321387 -0.290692
C25   C     C_R   0.169801 0.220952 0.321241 -0.261028
C26   C     C_R   0.209420 0.322303 0.371397 -0.126267
C27   C     C_R   0.105742 0.411200 0.436657 0.155649
C28   C     C_R   0.956106 0.408719 0.436012 0.139982
C29   C     C_R   0.898254 0.584200 0.560340 -0.074919
C30   C     C_R   0.045816 0.583893 0.560520 -0.030136
C31   C     C_R   0.579153 0.498703 0.299688 0.811971
C32   C     C_R   0.794065 0.402639 0.018347 -0.219168
C33   C     C_R   0.624680 0.484081 0.184575 -0.053681
C34   C     C_R   0.225572 0.527025 0.875242 0.430772
C35   C     C_R   0.184688 0.537204 0.984960 -0.259594
C36   C     C_R   0.286914 0.516972 0.036232 -0.236498
Cu1   Cu    Cu3+1 0.359340 0.500010 0.500010 0.978607
Cu2   Cu    Cu3+1 0.640660 0.499990 0.499990 0.968543
H1    H     H_    0.848894 0.422284 0.161084 0.181202
H2    H     H_    0.235383 0.808529 0.448712 0.175169
H3    H     H_    0.004198 0.924052 0.513971 0.149069
H4    H     H_    0.984133 0.124965 0.615914 0.145023
H5    H     H_    0.726102 0.107171 0.485898 0.167945
H6    H     H_    0.820408 0.653349 0.609949 0.143273
H7    H     H_    0.002703 0.135946 0.275493 0.148567
H8    H     H_    0.251497 0.151035 0.276926 0.172438
H9    H     H_    0.324218 0.325145 0.355095 0.208992
H10   H     H_    0.816553 0.327652 0.821359 0.171070
H11   H     H_    0.077965 0.652809 0.610302 0.157133
H12   H     H_    0.901900 0.363842 0.973706 0.158728
H13   H     H_    0.416356 0.549200 0.182518 0.149042
H14   H     H_    0.245986 0.527843 0.120725 0.148962
H15   H     H_    0.073334 0.564972 0.031470 0.142051
H16   H     H_    0.631898 0.348417 0.737243 0.171121
H17   H     H_    0.726850 0.884305 0.475678 0.156984
N1    N     N_R   0.852480 0.498790 0.499000 -0.185151
N2    N     N_R   0.148360 0.498710 0.498970 -0.182471
O1    O     O_R   0.381190 0.680360 0.500010 -0.597655
O2    O     O_R   0.618760 0.680340 0.500000 -0.586665
O3    O     O_R   0.323240 0.499990 0.650990 -0.486847
O4    O     O_R   0.560820 0.499960 0.650980 -0.599950
O5    O     O_R   0.381240 0.319660 0.500000 -0.573274
O6    O     O_R   0.618810 0.319640 0.499990 -0.539827
O7    O     O_R   0.439180 0.500040 0.349020 -0.624453
O8    O     O_R   0.676760 0.500010 0.349010 -0.512192
O9    O     O_3   0.194964 0.235189 0.663235 -0.706999
H18   H     H_    0.281141 0.241777 0.688683 0.302875
O10   O     O_3   0.802982 0.311359 0.336446 -0.701557
H19   H     H_    0.798891 0.236044 0.291286 0.295230
O11   O     O_3   0.125278 0.556425 0.824888 -0.714405
H20   H     H_    0.029483 0.581266 0.877802 0.316378

loop_
_geom_bond_atom_site_label_1
_geom_bond_atom_site_label_2
_ccdc_geom_bond_type
C2    C4    A    
C31   C33   S    
C16   C21   A    
Cu1   N2    S    
Cu1   Cu2   S    
C29   N1    A    
C35   H15   S    
C34   O11   S    
C31   O7    A    
Cu1   O1    S    
C36   H14   S    
Cu2   O8    S    
C4    C8    A    
C14   H4    S    
Cu2   O4    S    
C32   H12   S    
C5    C32   A    
C19   C20   A    
C13   H3    S    
Cu1   O5    S    
C28   N1    A    
C10   C34   A    
C3    C10   A    
C22   C28   A    
C13   C14   A    
C24   C25   A    
C9    C33   A    
C12   O4    A    
C11   C13   A    
C8    H13   S    
C22   O10   S    
C1    C18   S    
C29   C30   A    
C6    H10   S    
C26   H9    S    
C5    C6    A    
C24   H7    S    
C10   C12   S    
C23   O6    A    
C30   H11   S    
O9    H18   S    
C6    C7    A    
C3    C7    A    
C8    C33   A    
C1    O2    A    
C29   H6    S    
C26   C27   A    
C11   H2    S    
C22   C24   A    
C9    C32   A    
O11   H20   S    
C16   C17   A    
C2    C36   A    
Cu2   O2    S    
Cu1   O3    S    
C30   N2    A    
C9    H1    S    
C20   H5    S    
Cu2   N1    S    
C20   C21   A    
C25   H8    S    
C17   C18   A    
C34   C35   A    
C27   N2    A    
C19   H17   S    
C27   C28   A    
Cu2   O6    S    
C31   O8    A    
C14   C15   A    
C18   C19   A    
C2    C3    A    
C7    H16   S    
C25   C26   A    
C1    O1    A    
C15   O9    S    
C4    C5    A    
C21   C23   S    
O10   H19   S    
C23   O5    A    
C11   C17   A    
C15   C16   A    
Cu1   O7    S    
C35   C36   A    
C12   O3    A    
