data_mof_unit_8072.cif
_audit_creation_date              2012-12-11T15:10:53-0500
_audit_creation_method            fapswitch 2.2
_symmetry_space_group_name_H-M    P1
_symmetry_Int_Tables_number       1
_space_group_crystal_system       triclinic
_cell_length_a                    20.971679
_cell_length_b                    7.234716
_cell_length_c                    18.650814
_cell_angle_alpha                 90.000021
_cell_angle_beta                  92.72674
_cell_angle_gamma                 90.0
_cell_volume                      2826.57481674

loop_
_atom_site_label
_atom_site_type_symbol
_atom_type_description
_atom_site_fract_x
_atom_site_fract_y
_atom_site_fract_z
_atom_type_partial_charge
O1    O     O_R   0.448880 0.506250 0.415280 -0.518719
O2    O     O_R   0.551120 0.006250 0.584720 -0.518719
O3    O     O_R   0.434830 0.174000 0.557310 -0.529334
O4    O     O_R   0.565170 0.674000 0.442690 -0.529334
C1    C     C_R   0.418979 0.343826 0.582052 0.732261
C2    C     C_R   0.581021 0.843825 0.417948 0.732261
O5    O     O_R   0.441680 0.176440 0.414130 -0.544140
O6    O     O_R   0.558320 0.676440 0.585870 -0.544140
O7    O     O_R   0.558020 0.007570 0.440520 -0.513854
O8    O     O_R   0.441980 0.507570 0.559480 -0.513854
C3    C     C_R   0.426780 0.345015 0.389714 0.764045
C4    C     C_R   0.573220 0.845015 0.610286 0.764046
O9    O     O_3   0.538160 0.339670 0.508820 -0.369000
O10   O     O_3   0.461840 0.839670 0.491180 -0.369001
V1    V     V_3+5 0.492920 0.064260 0.498360 1.446695
V2    V     V_3+5 0.507080 0.564260 0.501640 1.446695
C5    C     C_R   0.871117 0.087393 0.705676 -0.153077
C6    C     C_R   0.128883 0.587394 0.294324 -0.153077
H1    H     H_    0.958492 0.103896 0.768034 0.128803
H2    H     H_    0.041508 0.603896 0.231966 0.128804
C7    C     C_R   0.887119 0.951298 0.822911 -0.122481
C8    C     C_R   0.112880 0.451298 0.177089 -0.122487
C9    C     C_R   0.583209 0.790285 0.739487 -0.169086
C10   C     C_R   0.416791 0.290284 0.260513 -0.169087
C11   C     C_R   0.614820 0.793187 0.806468 -0.140582
C12   C     C_R   0.385180 0.293186 0.193532 -0.140582
C13   C     C_R   0.678425 0.846466 0.813804 -0.128035
C14   C     C_R   0.321575 0.346465 0.186196 -0.128038
C15   C     C_R   0.713387 0.893304 0.753568 0.021759
C16   C     C_R   0.286613 0.393304 0.246432 0.021758
C17   C     C_R   0.679073 0.907434 0.684791 -0.009116
C18   C     C_R   0.320927 0.407434 0.315209 -0.009116
C19   C     C_R   0.780766 0.933856 0.759786 -0.029558
C20   C     C_R   0.219234 0.433857 0.240213 -0.029554
C21   C     C_R   0.807535 0.028617 0.702001 0.038759
C22   C     C_R   0.192465 0.528618 0.297998 0.038760
C23   C     C_R   0.771778 0.061001 0.639018 -0.276856
C24   C     C_R   0.228223 0.561002 0.360982 -0.276856
C25   C     C_R   0.711609 0.979381 0.625926 0.378020
C26   C     C_R   0.288391 0.479382 0.374074 0.378020
C27   C     C_R   0.823310 0.886155 0.820017 0.327686
C28   C     C_R   0.176690 0.386155 0.179983 0.327684
C29   C     C_R   0.910054 0.051081 0.765682 -0.237027
C30   C     C_R   0.089946 0.551081 0.234318 -0.237031
C31   C     C_R   0.613373 0.849844 0.678279 -0.078393
C32   C     C_R   0.386627 0.349844 0.321721 -0.078393
H3    H     H_    0.533720 0.746502 0.735690 0.105764
H4    H     H_    0.466280 0.246500 0.264310 0.105764
C33   C     C_1   0.862553 0.938394 0.129683 -0.205178
C34   C     C_1   0.137446 0.438394 0.870317 -0.205179
C35   C     C_1   0.818264 0.923282 0.171627 -0.003773
C36   C     C_1   0.181736 0.423282 0.828373 -0.003774
C37   C     C_1   0.766042 0.902670 0.221622 -0.008406
C38   C     C_1   0.233958 0.402670 0.778378 -0.008406
C39   C     C_1   0.722425 0.885033 0.264292 -0.005885
C40   C     C_1   0.277575 0.385033 0.735708 -0.005885
C41   C     C_1   0.671627 0.865745 0.316155 -0.006983
C42   C     C_1   0.328373 0.365745 0.683845 -0.006983
C43   C     C_1   0.629910 0.852983 0.361412 -0.238671
C44   C     C_1   0.370090 0.352983 0.638587 -0.238671
O11   O     O_R   0.058070 0.289240 0.940580 -0.519939
O12   O     O_R   0.941930 0.789240 0.059420 -0.519938
O13   O     O_R   0.058330 0.616740 0.085880 -0.546103
O14   O     O_R   0.941670 0.116740 0.914120 -0.546104
C45   C     C_R   0.072311 0.449265 0.110537 0.740678
C46   C     C_R   0.927689 0.949265 0.889463 0.740674
O15   O     O_R   0.065180 0.619040 0.942700 -0.523903
O16   O     O_R   0.934820 0.119040 0.057300 -0.523903
O17   O     O_R   0.948870 0.787780 0.915270 -0.531314
O18   O     O_R   0.051130 0.287780 0.084730 -0.531314
C47   C     C_R   0.083707 0.450269 0.920815 0.718730
C48   C     C_R   0.916292 0.950269 0.079185 0.718729
O19   O     O_3   0.961870 0.453310 0.991210 -0.370957
O20   O     O_3   0.038130 0.953310 0.008790 -0.370957
V3    V     V_3+5 0.007070 0.728770 0.001630 1.400104
V4    V     V_3+5 0.992930 0.228770 0.998370 1.400102
H5    H     H_    0.793771 0.137500 0.596967 0.133042
H6    H     H_    0.206229 0.637502 0.403033 0.133042
H7    H     H_    0.891002 0.162604 0.661675 0.121269
H8    H     H_    0.108998 0.662605 0.338325 0.121269
O21   O     O_3   0.803422 0.786307 0.877942 -0.591744
C49   C     C_3   0.805014 0.596013 0.861353 0.067404
H9    H     H_    0.855290 0.548959 0.857286 0.140606
H10   H     H_    0.777836 0.565250 0.809872 0.125914
C50   C     C_3   0.774468 0.489302 0.921571 -0.294430
H11   H     H_    0.802446 0.513039 0.972887 0.202855
H12   H     H_    0.725073 0.540611 0.927761 0.191924
C51   C     C_3   0.771893 0.282658 0.905950 -0.796351
H13   H     H_    0.743663 0.255491 0.855136 0.231549
H14   H     H_    0.749079 0.209478 0.950349 0.228637
H15   H     H_    0.820895 0.228175 0.901630 0.242983
O22   O     O_3   0.196577 0.286307 0.122058 -0.591744
C52   C     C_3   0.194986 0.096014 0.138647 0.067403
H16   H     H_    0.144710 0.048960 0.142718 0.140600
H17   H     H_    0.222167 0.065251 0.190127 0.125918
C53   C     C_3   0.225528 0.989302 0.078427 -0.294431
H18   H     H_    0.197546 0.013032 0.027114 0.202856
H19   H     H_    0.274922 0.040616 0.072230 0.191926
C54   C     C_3   0.228108 0.782660 0.094050 -0.796349
H20   H     H_    0.256350 0.755501 0.144857 0.231547
H21   H     H_    0.250911 0.709476 0.049645 0.228639
H22   H     H_    0.179107 0.728176 0.098387 0.242982
H23   H     H_    0.698141 0.857907 0.867913 0.171285
H24   H     H_    0.301858 0.357906 0.132087 0.171286
H25   H     H_    0.589497 0.755207 0.853530 0.119846
H26   H     H_    0.410503 0.255205 0.146470 0.119847
O23   O     O_3   0.683080 0.977716 0.556993 -0.578930
C55   C     C_3   0.727819 0.939659 0.503983 0.069177
H27   H     H_    0.708208 0.829033 0.468782 0.119734
H28   H     H_    0.773674 0.878107 0.525390 0.110110
C56   C     C_3   0.739492 0.114625 0.459698 -0.283368
H29   H     H_    0.698215 0.139731 0.421578 0.197197
H30   H     H_    0.743416 0.237991 0.495025 0.190055
C57   C     C_3   0.800464 0.098660 0.418612 -0.839243
H31   H     H_    0.842778 0.097020 0.456770 0.223692
H32   H     H_    0.804406 0.218981 0.382130 0.234345
H33   H     H_    0.800142 0.969831 0.386349 0.239517
O24   O     O_3   0.316920 0.477717 0.443007 -0.578930
C58   C     C_3   0.272180 0.439661 0.496017 0.069176
H34   H     H_    0.291792 0.329035 0.531217 0.119734
H35   H     H_    0.226327 0.378109 0.474610 0.110110
C59   C     C_3   0.260509 0.614626 0.540302 -0.283368
H36   H     H_    0.301785 0.639732 0.578422 0.197197
H37   H     H_    0.256585 0.737993 0.504974 0.190055
C60   C     C_3   0.199536 0.598662 0.581388 -0.839244
H38   H     H_    0.157222 0.597022 0.543230 0.223692
H39   H     H_    0.195594 0.718982 0.617870 0.234345
H40   H     H_    0.199858 0.469833 0.613650 0.239517

loop_
_geom_bond_atom_site_label_1
_geom_bond_atom_site_label_2
_ccdc_geom_bond_type
C26   O24   S    
O13   C45   A    
C52   H16   S    
C9    C31   A    
C7    C46   S    
C13   C15   A    
C56   H29   S    
O1    C3    A    
O2    C4    A    
C12   H26   S    
C2    O7    A    
O21   C49   S    
C11   H25   S    
C8    C28   A    
C50   H11   S    
C25   O23   S    
C21   C23   A    
C10   C12   A    
C50   C51   S    
C46   O17   A    
C42   C44   T    
C45   O18   A    
C53   C54   S    
C15   C19   A    
C5    H7    S    
C55   H27   S    
O24   C58   S    
C7    C29   A    
C8    C30   A    
H1    C29   S    
C20   C28   A    
C33   C35   T    
C33   C48   S    
C53   H19   S    
C60   H40   S    
C34   C36   T    
O23   C55   S    
C16   C18   A    
C28   O22   S    
O16   C48   A    
O11   C47   A    
C58   H35   S    
O6    V2    S    
H2    C30   S    
C36   C38   S    
C57   H31   S    
C37   C39   T    
O11   V4    S    
C23   C25   A    
C38   C40   T    
C9    H3    S    
O20   V3    S    
C16   C20   A    
C50   H12   S    
C10   H4    S    
O4    C2    A    
O5    V1    S    
C24   H6    S    
C23   H5    S    
C35   C37   S    
O14   C46   A    
O4    V2    S    
O5    C3    A    
C34   C47   S    
C5    C29   A    
C8    C45   S    
C6    C30   A    
C14   H24   S    
C54   H20   S    
C51   H15   S    
O6    C4    A    
C27   O21   S    
C53   H18   S    
C54   H22   S    
O14   V4    S    
O12   C48   A    
C56   H30   S    
O1    V2    S    
O2    V1    S    
C7    C27   A    
C54   H21   S    
C51   H14   S    
C52   C53   S    
C49   H10   S    
C39   C41   S    
O18   V4    S    
C60   H38   S    
O19   V4    S    
O12   V3    S    
C11   C13   A    
C59   H37   S    
O3    V1    S    
C60   H39   S    
C58   C59   S    
C1    C44   S    
C18   C32   A    
C2    C43   S    
C4    C31   S    
O3    C1    A    
C57   H32   S    
C58   H34   S    
C55   H28   S    
C14   C16   A    
O16   V4    S    
C49   C50   S    
C12   C14   A    
C55   C56   S    
C19   C27   A    
C59   C60   S    
C22   C24   A    
O7    V1    S    
C10   C32   A    
C1    O8    A    
C15   C17   A    
O8    V2    S    
C24   C26   A    
C52   H17   S    
O13   V3    S    
C13   H23   S    
O22   C52   S    
C19   C21   A    
C20   C22   A    
C40   C42   S    
O17   V3    S    
C56   C57   S    
O15   C47   A    
C18   C26   A    
C57   H33   S    
C41   C43   T    
C9    C11   A    
O15   V3    S    
C51   H13   S    
C6    H8    S    
C49   H9    S    
C17   C31   A    
O9    V2    S    
C17   C25   A    
O10   V1    S    
C3    C32   S    
C5    C21   A    
C59   H36   S    
C6    C22   A    
