data_mof_unit_55771.cif
_audit_creation_date              2012-10-26T20:13:06-0400
_audit_creation_method            fapswitch 2.2
_symmetry_space_group_name_H-M    P1
_symmetry_Int_Tables_number       1
_space_group_crystal_system       triclinic
_cell_length_a                    21.391344
_cell_length_b                    21.389598
_cell_length_c                    13.816534
_cell_angle_alpha                 89.98625
_cell_angle_beta                  89.986879
_cell_angle_gamma                 90.027966
_cell_volume                      6321.78510184

loop_
_atom_site_label
_atom_site_type_symbol
_atom_type_description
_atom_site_fract_x
_atom_site_fract_y
_atom_site_fract_z
_atom_type_partial_charge
C1    C     C_R   0.085086 0.414947 0.500023 0.553104
C2    C     C_R   0.184407 0.720865 0.422445 0.263738
C3    C     C_3   0.649257 0.685743 0.639256 -0.123967
C4    C     C_R   0.225111 0.679186 0.574586 0.269882
C5    C     C_R   0.817085 0.278372 0.421997 0.262461
C6    C     C_R   0.221808 0.317105 0.422708 0.261924
C7    C     C_R   0.816855 0.721408 0.578249 0.260628
C8    C     C_R   0.778196 0.682894 0.422684 0.262180
C9    C     C_R   0.183058 0.278522 0.578234 0.260592
C10   C     C_R   0.280052 0.814402 0.577352 0.259148
C11   C     C_R   0.682964 0.221634 0.421957 0.262469
C12   C     C_R   0.721791 0.182895 0.577307 0.262118
C13   C     C_R   0.914910 0.585050 0.500022 0.552890
C14   C     C_R   0.320289 0.775207 0.423075 0.267983
C15   C     C_R   0.721686 0.816952 0.422680 0.261852
C16   C     C_R   0.317016 0.221532 0.578232 0.260626
C17   C     C_R   0.278314 0.183049 0.422675 0.262080
C18   C     C_R   0.682895 0.778393 0.578194 0.260526
C19   C     C_R   0.825605 0.361721 0.578123 -0.133908
C20   C     C_R   0.138668 0.674407 0.422282 -0.133496
C21   C     C_R   0.176705 0.635506 0.576213 -0.134752
C22   C     C_R   0.861788 0.325744 0.421510 -0.134474
C23   C     C_R   0.174364 0.361694 0.421863 -0.133470
C24   C     C_R   0.914934 0.414932 0.499997 0.554054
C25   C     C_R   0.861517 0.674030 0.578743 -0.141623
C26   C     C_R   0.825653 0.638320 0.421842 -0.133766
C27   C     C_R   0.138410 0.325914 0.578729 -0.141628
C28   C     C_R   0.326651 0.859917 0.578186 -0.133307
C29   C     C_R   0.638268 0.174254 0.421448 -0.134511
C30   C     C_R   0.674381 0.138241 0.578082 -0.133871
C31   C     C_R   0.363864 0.824153 0.422017 -0.142892
C32   C     C_R   0.674288 0.861590 0.421845 -0.134374
C33   C     C_R   0.361629 0.174107 0.578730 -0.141472
C34   C     C_R   0.325725 0.138424 0.421836 -0.133857
C35   C     C_R   0.085162 0.584993 0.499962 0.554044
C36   C     C_R   0.638297 0.825831 0.578701 -0.141463
C37   C     C_R   0.866781 0.366768 0.499912 -0.087264
C38   C     C_R   0.133967 0.632539 0.499755 -0.085308
C39   C     C_R   0.133278 0.366821 0.500167 -0.090999
C40   C     C_R   0.866704 0.633166 0.500163 -0.091012
C41   C     C_R   0.367666 0.865750 0.499931 -0.083287
C42   C     C_R   0.633240 0.133212 0.499855 -0.087271
C43   C     C_R   0.633215 0.866758 0.500158 -0.091223
C44   C     C_R   0.366765 0.133226 0.500162 -0.090984
C45   C     C_R   0.995354 0.556357 0.106987 0.233887
C46   C     C_R   0.585071 0.914933 0.500022 0.552949
C47   C     C_R   0.055183 0.486897 0.893244 0.221087
C48   C     C_R   0.004644 0.443638 0.107042 0.233640
C49   C     C_R   0.944812 0.513098 0.893269 0.220666
C50   C     C_R   0.495688 0.056327 0.106956 0.233219
C51   C     C_R   0.555141 0.986748 0.893250 0.220582
C52   C     C_R   0.504239 0.943544 0.107074 0.234081
C53   C     C_R   0.444812 0.013089 0.893275 0.221384
C54   C     C_R   0.774262 0.274342 0.499599 0.061699
C55   C     C_R   0.228240 0.723149 0.498713 0.078879
C56   C     C_R   0.225799 0.274410 0.500517 0.061648
C57   C     C_R   0.414924 0.085063 0.500022 0.553081
C58   C     C_R   0.774153 0.725550 0.500511 0.061799
C59   C     C_R   0.276878 0.771699 0.499628 0.077060
C60   C     C_R   0.725745 0.225652 0.499587 0.061706
C61   C     C_R   0.725640 0.774252 0.500486 0.061707
C62   C     C_R   0.274311 0.225706 0.500502 0.061724
C63   C     C_R   0.994629 0.554954 0.209289 0.040618
C64   C     C_R   0.054148 0.489315 0.790581 0.023951
C65   C     C_R   0.005368 0.445044 0.209331 0.040753
C66   C     C_R   0.945851 0.510683 0.790609 0.023679
C67   C     C_R   0.494955 0.054967 0.209250 0.040514
C68   C     C_R   0.415036 0.914784 0.499996 0.554409
C69   C     C_R   0.554126 0.989217 0.790593 0.024019
C70   C     C_R   0.505021 0.944994 0.209382 0.039924
C71   C     C_R   0.445857 0.010723 0.790613 0.024067
C72   C     C_R   0.999993 0.499995 0.054456 0.114939
C73   C     C_R   0.999997 0.499995 0.945316 0.108705
C74   C     C_R   0.499973 0.999919 0.054464 0.115264
C75   C     C_R   0.499970 0.999896 0.945326 0.109458
C76   C     C_3   0.047095 0.643110 0.057813 -0.123747
C77   C     C_3   0.139918 0.421864 0.912933 -0.084941
C78   C     C_3   0.952718 0.357263 0.056963 -0.123835
C79   C     C_R   0.585072 0.085062 0.499972 0.554160
C80   C     C_3   0.860078 0.578133 0.912960 -0.085270
C81   C     C_3   0.548096 0.142457 0.056942 -0.123658
C82   C     C_3   0.639579 0.921402 0.913160 -0.085689
C83   C     C_3   0.452160 0.856700 0.059106 -0.125103
C84   C     C_3   0.360332 0.078384 0.913236 -0.086008
C85   C     C_3   0.685365 0.350496 0.637883 -0.119933
C86   C     C_3   0.150686 0.813539 0.361762 -0.127618
C87   C     C_3   0.315580 0.636681 0.628216 -0.121000
C88   C     C_3   0.851132 0.186013 0.360620 -0.122988
C89   C     C_3   0.314705 0.350496 0.362264 -0.117868
C90   C     C_R   0.778186 0.317073 0.577325 0.262130
C91   C     C_3   0.850377 0.814037 0.639447 -0.124116
C92   C     C_3   0.685296 0.649588 0.362216 -0.118923
C93   C     C_3   0.149455 0.185883 0.639378 -0.124092
C94   C     C_3   0.187916 0.847361 0.640937 -0.123615
C95   C     C_3   0.648934 0.314003 0.360555 -0.122905
C96   C     C_3   0.814595 0.149480 0.637901 -0.119987
C97   C     C_3   0.374700 0.701739 0.335626 -0.124930
C98   C     C_3   0.814551 0.850362 0.362148 -0.118369
C99   C     C_3   0.350563 0.314173 0.639358 -0.123992
C100  C     C_3   0.185447 0.149717 0.362130 -0.118373
Cu1   Cu    Cu3+1 0.000000 0.500000 0.596430 0.930007
Cu2   Cu    Cu3+1 0.000000 0.500000 0.403570 0.938337
Cu3   Cu    Cu3+1 0.500000 0.000000 0.596430 0.930473
Cu4   Cu    Cu3+1 0.500000 0.000000 0.403570 0.936823
H1    H     H_    0.829152 0.393411 0.639073 0.150202
H2    H     H_    0.606541 0.170627 0.360549 0.142680
H3    H     H_    0.670809 0.106536 0.639036 0.150255
H4    H     H_    0.395429 0.829158 0.361233 0.129934
H5    H     H_    0.670701 0.893200 0.360788 0.157156
H6    H     H_    0.393240 0.170347 0.639744 0.147331
H7    H     H_    0.329348 0.106848 0.360764 0.157119
H8    H     H_    0.606656 0.829567 0.639700 0.147645
H9    H     H_    0.990067 0.598208 0.249234 0.142238
H10   H     H_    0.096806 0.482880 0.749911 0.133750
H11   H     H_    0.009904 0.401783 0.249299 0.142531
H12   H     H_    0.106064 0.671999 0.362358 0.141028
H13   H     H_    0.903194 0.517120 0.749961 0.133866
H14   H     H_    0.490668 0.098265 0.249159 0.142437
H15   H     H_    0.596786 0.982735 0.749945 0.133949
H16   H     H_    0.509351 0.901737 0.249417 0.140460
H17   H     H_    0.403208 0.017229 0.749975 0.133833
H18   H     H_    0.083652 0.613949 0.022355 0.151170
H19   H     H_    0.061936 0.656339 0.132246 0.116516
H20   H     H_    0.042550 0.686821 0.015185 0.149068
H21   H     H_    0.167155 0.430405 0.845782 0.103463
H22   H     H_    0.106283 0.382625 0.902361 0.150398
H23   H     H_    0.173764 0.602772 0.635929 0.146098
H24   H     H_    0.173520 0.407025 0.969579 0.163807
H25   H     H_    0.916751 0.386514 0.020277 0.151155
H26   H     H_    0.937008 0.344497 0.131191 0.116698
H27   H     H_    0.957390 0.313319 0.014976 0.149597
H28   H     H_    0.832836 0.569588 0.845840 0.103589
H29   H     H_    0.893713 0.617370 0.902320 0.150567
H30   H     H_    0.826479 0.592980 0.969620 0.163422
H31   H     H_    0.584029 0.112997 0.020570 0.151416
H32   H     H_    0.563675 0.155262 0.131197 0.116759
H33   H     H_    0.543720 0.186358 0.014743 0.149769
H34   H     H_    0.893544 0.329383 0.360623 0.142735
H35   H     H_    0.666706 0.929630 0.845809 0.103768
H36   H     H_    0.605766 0.882267 0.903036 0.151098
H37   H     H_    0.673241 0.906597 0.969744 0.163214
H38   H     H_    0.415321 0.885831 0.024303 0.151696
H39   H     H_    0.437894 0.843458 0.133824 0.109275
H40   H     H_    0.456409 0.812985 0.016445 0.149331
H41   H     H_    0.333198 0.070161 0.845914 0.103508
H42   H     H_    0.394125 0.117539 0.903071 0.151058
H43   H     H_    0.326671 0.093159 0.969854 0.163281
H44   H     H_    0.654709 0.328084 0.583092 0.099064
H45   H     H_    0.170748 0.393298 0.360803 0.157810
H46   H     H_    0.698084 0.398866 0.615210 0.090258
H47   H     H_    0.657992 0.354292 0.705813 0.148315
H48   H     H_    0.171967 0.843946 0.417958 0.099135
H49   H     H_    0.102079 0.800273 0.382318 0.091628
H50   H     H_    0.147768 0.841393 0.294193 0.148380
H51   H     H_    0.339685 0.648214 0.559053 0.104021
H52   H     H_    0.296831 0.588151 0.625845 0.101899
H53   H     H_    0.351024 0.638610 0.686723 0.144636
H54   H     H_    0.829401 0.155151 0.415834 0.100302
H55   H     H_    0.899543 0.199166 0.382400 0.090525
H56   H     H_    0.893127 0.670296 0.639761 0.147187
H57   H     H_    0.854673 0.158685 0.292629 0.148075
H58   H     H_    0.345257 0.328034 0.417138 0.098232
H59   H     H_    0.302079 0.398877 0.384902 0.092666
H60   H     H_    0.342153 0.354268 0.294396 0.150206
H61   H     H_    0.828190 0.844761 0.584527 0.099021
H62   H     H_    0.898801 0.801331 0.617136 0.093323
H63   H     H_    0.853971 0.841336 0.707461 0.145153
H64   H     H_    0.654714 0.672109 0.416995 0.098025
H65   H     H_    0.697859 0.601209 0.384976 0.091434
H66   H     H_    0.657905 0.645800 0.294317 0.148944
H67   H     H_    0.829308 0.606749 0.360768 0.157252
H68   H     H_    0.171637 0.155180 0.584430 0.098865
H69   H     H_    0.101045 0.198632 0.617086 0.093550
H70   H     H_    0.145830 0.158543 0.707373 0.145133
H71   H     H_    0.156976 0.826706 0.584886 0.097182
H72   H     H_    0.200995 0.896193 0.621368 0.092058
H73   H     H_    0.160706 0.849531 0.709196 0.149113
H74   H     H_    0.670630 0.344853 0.415782 0.100298
H75   H     H_    0.600514 0.300836 0.382304 0.090633
H76   H     H_    0.645427 0.341350 0.292560 0.148147
H77   H     H_    0.845275 0.171931 0.583141 0.099049
H78   H     H_    0.106769 0.329627 0.639732 0.147288
H79   H     H_    0.801906 0.101118 0.615195 0.090219
H80   H     H_    0.841931 0.145657 0.705847 0.148239
H81   H     H_    0.395848 0.687493 0.405965 0.085948
H82   H     H_    0.407755 0.731289 0.293750 0.111549
H83   H     H_    0.366694 0.658482 0.293130 0.145045
H84   H     H_    0.845093 0.828007 0.417140 0.098340
H85   H     H_    0.801883 0.898770 0.384588 0.091361
H86   H     H_    0.842025 0.854043 0.294293 0.149763
H87   H     H_    0.328316 0.344906 0.584508 0.098950
H88   H     H_    0.398964 0.301476 0.616922 0.093595
H89   H     H_    0.329666 0.891636 0.639169 0.149250
H90   H     H_    0.354225 0.341461 0.707376 0.145275
H91   H     H_    0.154881 0.172120 0.417047 0.098451
H92   H     H_    0.198060 0.101308 0.384672 0.091064
H93   H     H_    0.158022 0.146027 0.294252 0.149811
H94   H     H_    0.671486 0.655034 0.584364 0.098835
H95   H     H_    0.600867 0.698495 0.616853 0.093996
H96   H     H_    0.645565 0.658410 0.707248 0.145378
N1    N     N_R   0.000000 0.500000 0.258690 -0.287304
N2    N     N_R   0.000000 0.500000 0.741310 -0.280052
N3    N     N_R   0.500000 0.000000 0.258690 -0.287147
N4    N     N_R   0.500000 0.000000 0.741310 -0.280031
O1    O     O_R   0.064280 0.435730 0.581430 -0.508413
O2    O     O_R   0.435720 0.064270 0.418570 -0.501251
O3    O     O_R   0.435720 0.064270 0.581430 -0.508281
O4    O     O_R   0.564280 0.935730 0.418570 -0.501610
O5    O     O_R   0.435720 0.935730 0.418570 -0.500944
O6    O     O_R   0.564280 0.064270 0.581430 -0.496752
O7    O     O_R   0.564280 0.064270 0.418570 -0.500674
O8    O     O_R   0.435720 0.935730 0.581430 -0.496498
O9    O     O_3   0.988742 0.612483 0.058582 -0.575646
O10   O     O_3   0.110226 0.477217 0.944266 -0.573195
O11   O     O_3   0.011266 0.387491 0.058751 -0.575690
O12   O     O_R   0.935720 0.564270 0.418570 -0.501610
O13   O     O_3   0.889769 0.522781 0.944320 -0.573808
O14   O     O_3   0.489412 0.112488 0.058553 -0.576132
O15   O     O_3   0.610167 0.976961 0.944250 -0.574282
O16   O     O_3   0.510494 0.887372 0.058706 -0.575652
O17   O     O_3   0.389773 0.022831 0.944300 -0.574075
O18   O     O_3   0.738399 0.313249 0.655992 -0.510388
O19   O     O_3   0.188642 0.760942 0.344178 -0.517295
O20   O     O_3   0.268082 0.680253 0.649254 -0.515968
O21   O     O_3   0.813291 0.238721 0.343190 -0.513355
O22   O     O_3   0.261589 0.313344 0.344035 -0.508564
O23   O     O_R   0.935720 0.564270 0.581430 -0.508277
O24   O     O_3   0.813036 0.760971 0.657157 -0.516301
O25   O     O_3   0.738460 0.686685 0.343983 -0.508597
O26   O     O_3   0.186825 0.238915 0.657122 -0.516259
O27   O     O_3   0.240662 0.809211 0.656316 -0.514848
O28   O     O_3   0.686794 0.261308 0.343150 -0.513373
O29   O     O_3   0.761539 0.186700 0.655994 -0.510380
O30   O     O_3   0.316822 0.732457 0.347674 -0.519293
O31   O     O_3   0.761465 0.813150 0.344008 -0.508713
O32   O     O_3   0.313242 0.261102 0.657138 -0.516291
O33   O     O_3   0.238576 0.186881 0.343982 -0.508525
O34   O     O_R   0.064280 0.435730 0.418570 -0.501266
O35   O     O_3   0.686616 0.738773 0.657072 -0.516294
O36   O     O_R   0.935720 0.435730 0.418570 -0.500760
O37   O     O_R   0.064280 0.564270 0.581430 -0.496519
O38   O     O_R   0.064280 0.564270 0.418570 -0.499761
O39   O     O_R   0.935720 0.435730 0.581430 -0.496788
O40   O     O_R   0.564280 0.935730 0.581430 -0.508072

loop_
_geom_bond_atom_site_label_1
_geom_bond_atom_site_label_2
_ccdc_geom_bond_type
C93   O26   S    
C79   O6    A    
C83   H39   S    
C93   H68   S    
Cu1   Cu2   S    
C80   H28   S    
C55   C59   S    
C29   C42   A    
C8    C26   A    
C31   H4    S    
C28   C41   A    
C91   H62   S    
C81   O14   S    
C3    H95   S    
C80   O13   S    
C85   H44   S    
C46   O40   A    
C96   H77   S    
C98   H86   S    
Cu3   O40   S    
C77   H21   S    
C15   C32   A    
C54   C60   S    
C84   H41   S    
C46   O4    A    
C14   C59   A    
C99   H90   S    
C11   O28   S    
C94   H72   S    
C13   O12   A    
C91   H63   S    
C78   H25   S    
Cu3   O3    S    
C97   H81   S    
C90   O18   S    
C52   C74   A    
C2    C55   A    
C50   C74   A    
C25   C40   A    
C99   H88   S    
C91   O24   S    
C84   H43   S    
C89   H59   S    
C7    O24   S    
C97   O30   S    
C53   O17   S    
C88   H57   S    
C47   O10   S    
C93   H70   S    
C3    H94   S    
C80   H30   S    
C76   H19   S    
C24   O39   A    
C82   H37   S    
C88   H55   S    
C89   O22   S    
Cu3   N4    S    
C2    O19   S    
C13   C40   S    
C82   H36   S    
C19   C37   A    
C8    C58   A    
C85   H46   S    
C76   O9    S    
C98   O31   S    
C92   H66   S    
C66   H13   S    
C36   H8    S    
C98   H84   S    
C96   O29   S    
C53   C75   A    
C88   H54   S    
C48   C65   A    
C21   H23   S    
C63   N1    A    
C50   C67   A    
C14   C31   A    
C89   H60   S    
C24   O36   A    
C94   H71   S    
C100  H93   S    
C58   C61   S    
C23   H45   S    
C48   O11   S    
C42   C79   S    
C45   C72   A    
C34   H7    S    
C65   H11   S    
C30   H3    S    
C12   O29   S    
C16   C62   A    
Cu4   O5    S    
C48   C72   A    
C98   H85   S    
C68   O5    A    
C83   O16   S    
Cu3   O6    S    
C67   H14   S    
C91   H61   S    
C77   O10   S    
C81   H31   S    
C41   C68   S    
C70   H16   S    
C100  H92   S    
C97   H82   S    
C63   H9    S    
C71   N4    A    
Cu2   O34   S    
C52   O16   S    
C32   H5    S    
C21   C38   A    
C2    C20   A    
C76   H20   S    
Cu4   N3    S    
C5    C54   A    
C35   C38   S    
C64   H10   S    
C95   O28   S    
C47   C73   A    
C24   C37   S    
C10   C28   A    
C49   C66   A    
C27   C39   A    
C47   C64   A    
C20   H12   S    
C51   O15   S    
C35   O38   A    
C4    O20   S    
C22   C37   A    
C57   O2    A    
C69   H15   S    
C80   H29   S    
C87   H53   S    
C49   O13   S    
C9    O26   S    
C94   H73   S    
C12   C60   A    
C78   O11   S    
C81   H33   S    
C78   H27   S    
C85   H47   S    
C82   H35   S    
C86   H48   S    
C17   C62   A    
C86   H49   S    
C8    O25   S    
C92   H64   S    
C95   H74   S    
C45   O9    S    
C88   O21   S    
C92   H65   S    
C25   H56   S    
C3    H96   S    
C15   C61   A    
C34   C44   A    
C100  O33   S    
C9    C56   A    
C17   O33   S    
C7    C58   A    
C82   O15   S    
C77   H24   S    
Cu1   O1    S    
C5    O21   S    
Cu2   O38   S    
C19   H1    S    
C95   H75   S    
C26   H67   S    
C35   O37   A    
Cu4   O2    S    
C4    C55   A    
C49   C73   A    
C29   H2    S    
C86   O19   S    
C96   H79   S    
C11   C60   A    
C53   C71   A    
C89   H58   S    
C14   O30   S    
Cu1   O37   S    
C18   O35   S    
C9    C27   A    
C81   H32   S    
C85   O18   S    
C100  H91   S    
Cu2   O12   S    
C70   N3    A    
C97   H83   S    
C64   N2    A    
C31   C41   A    
C12   C30   A    
Cu1   N2    S    
C96   H80   S    
C33   C44   A    
C71   H17   S    
C6    C56   A    
C72   C73   S    
C28   H89   S    
Cu3   O8    S    
C13   O23   A    
C83   H38   S    
C18   C61   A    
C54   C90   A    
C5    C22   A    
C87   H51   S    
C84   H42   S    
C1    O34   A    
C22   H34   S    
Cu2   O36   S    
C7    C25   A    
C51   C75   A    
Cu1   O23   S    
C84   O17   S    
Cu2   N1    S    
C87   O20   S    
C10   C59   A    
C78   H26   S    
C27   H78   S    
C76   H18   S    
C19   C90   A    
C99   H87   S    
C4    C21   A    
C26   C40   A    
C83   H40   S    
C45   C63   A    
C92   O25   S    
C23   C39   A    
C6    C23   A    
C6    O22   S    
C93   H69   S    
C10   O27   S    
C32   C43   A    
C50   O14   S    
C20   C38   A    
C56   C62   S    
C1    O1    A    
Cu4   O4    S    
C86   H50   S    
Cu1   O39   S    
C43   C46   S    
C99   O32   S    
C52   C70   A    
C1    C39   S    
C66   N2    A    
C95   H76   S    
C65   N1    A    
C74   C75   S    
C11   C29   A    
C69   N4    A    
C16   C33   A    
C17   C34   A    
C15   O31   S    
Cu3   Cu4   S    
C67   N3    A    
C16   O32   S    
C87   H52   S    
C30   C42   A    
C36   C43   A    
C33   H6    S    
C51   C69   A    
Cu4   O7    S    
C79   O7    A    
C57   O3    A    
C18   C36   A    
C44   C57   S    
C77   H22   S    
C3    O35   S    
C94   O27   S    
C68   O8    A    
