data_mof_unit_48174.cif
_audit_creation_date              2012-12-11T15:20:19-0500
_audit_creation_method            fapswitch 2.2
_symmetry_space_group_name_H-M    P1
_symmetry_Int_Tables_number       1
_space_group_crystal_system       triclinic
_cell_length_a                    13.070456
_cell_length_b                    13.040103
_cell_length_c                    15.430525
_cell_angle_alpha                 116.41941
_cell_angle_beta                  63.147082
_cell_angle_gamma                 97.560847
_cell_volume                      2093.39070506

loop_
_atom_site_label
_atom_site_type_symbol
_atom_type_description
_atom_site_fract_x
_atom_site_fract_y
_atom_site_fract_z
_atom_type_partial_charge
C1    C     C_R   0.020660 0.834499 0.033584 -0.147818
C2    C     C_R   0.708207 0.432405 0.307670 -0.217276
C3    C     C_R   0.639327 0.545442 0.004431 -0.041163
C4    C     C_R   0.974952 0.826293 0.322017 0.043914
C5    C     C_R   0.315205 0.589486 0.017413 0.774210
C6    C     C_R   0.902052 0.202254 0.794006 -0.112059
C7    C     C_R   0.221186 0.438115 0.685884 -0.069658
C8    C     C_R   0.092733 0.249942 0.047280 0.752535
C9    C     C_R   0.998647 0.167121 0.948661 -0.136873
C10   C     C_R   0.319432 0.518554 0.784299 -0.117858
C11   C     C_R   0.242651 0.487965 0.110667 -0.049480
C12   C     C_R   0.702801 0.403577 0.211883 0.611740
C13   C     C_R   0.989275 0.298575 0.695816 -0.073347
C14   C     C_R   0.331151 0.554679 0.080829 -0.213003
C15   C     C_R   0.929447 0.204926 0.698341 -0.013881
C16   C     C_R   0.330682 0.447870 0.681628 0.157891
C17   C     C_R   0.080223 0.144322 0.974019 -0.093291
C18   C     C_R   0.903321 0.025751 0.444691 -0.185278
C19   C     C_R   0.886389 0.121443 0.540695 -0.047093
C20   C     C_R   0.926692 0.110066 0.606836 -0.078532
C21   C     C_R   0.979937 0.007133 0.579858 -0.287496
C22   C     C_R   0.995421 0.913958 0.486124 0.821600
C23   C     C_R   0.742364 0.568907 0.937549 -0.052142
C24   C     C_R   0.957189 0.923790 0.419127 -0.133146
C25   C     C_R   0.613461 0.497953 0.503193 0.863049
C26   C     C_R   0.523239 0.497995 0.593969 -0.373322
C27   C     C_R   0.439830 0.420110 0.586096 -0.177160
C28   C     C_R   0.456029 0.331285 0.485467 0.764496
C29   C     C_R   0.550517 0.328080 0.392684 -0.287376
C30   C     C_R   0.626254 0.415085 0.401124 -0.125484
C31   C     C_2   0.433807 0.573117 0.094837 0.528834
C32   C     C_2   0.532760 0.562430 0.007938 0.547421
C33   C     C_2   0.884907 0.967348 0.040690 0.695611
C34   C     C_R   0.952354 0.718111 0.315218 0.010995
C35   C     C_2   0.877501 0.058963 0.130220 -0.114224
C36   C     C_R   0.660825 0.470241 0.035871 -0.126773
C37   C     C_R   0.041733 0.819656 0.220366 -0.085110
C38   C     C_R   0.805295 0.488480 0.302514 0.715756
C39   C     C_R   0.921900 0.750312 0.937464 -0.018565
C40   C     C_R   0.943608 0.855925 0.003061 -0.115120
H1    H     H_    0.062993 0.898378 0.076445 0.120773
H2    H     H_    0.199277 0.392166 0.619451 0.160473
H3    H     H_    0.972326 0.103625 0.890251 0.189027
H4    H     H_    0.386754 0.542863 0.810058 0.192056
H5    H     H_    0.222120 0.459213 0.172001 0.234295
H6    H     H_    0.015816 0.330643 0.635781 0.110104
H7    H     H_    0.874230 0.029425 0.390419 0.182603
H8    H     H_    0.013906 0.000203 0.629691 0.165124
H9    H     H_    0.512961 0.569070 0.669647 0.213466
H10   H     H_    0.560637 0.261287 0.315166 0.260407
H11   H     H_    0.917296 0.057657 0.178104 0.079947
H12   H     H_    0.754291 0.608797 0.886018 0.152802
H13   H     H_    0.908759 0.692995 0.380281 0.204331
H14   H     H_    0.085726 0.887841 0.200656 0.134993
H15   H     H_    0.872996 0.737396 0.893552 0.140607
N1    N     N_R   0.037310 0.720000 0.995790 -0.031824
N2    N     N_R   0.946240 0.290860 0.848040 -0.044580
N3    N     N_R   0.146140 0.501160 0.788590 -0.068283
N4    N     N_R   0.025760 0.332690 0.063610 -0.131063
N5    N     N_R   0.962690 0.280000 0.004210 -0.073410
N6    N     N_R   0.209210 0.553840 0.847990 -0.050429
N7    N     N_R   0.175110 0.482040 0.063580 -0.101723
N8    N     N_R   0.996790 0.351810 0.788620 -0.057730
N9    N     N_R   0.790790 0.446160 0.152010 -0.152646
N10   N     N_R   0.824890 0.517960 0.936420 -0.071761
N11   N     N_R   0.003210 0.648190 0.211380 -0.066656
N12   N     N_R   0.774330 0.457010 0.995840 -0.048662
N13   N     N_R   0.053760 0.709140 0.151960 -0.059695
N14   N     N_R   0.853860 0.498840 0.211410 -0.180166
N15   N     N_R   0.974240 0.667310 0.936390 -0.061886
N16   N     N_R   0.225670 0.542990 0.004160 -0.137392
Ni1   Ni    Ni4+2 0.130310 0.630310 0.999970 0.288697
Ni2   Ni    Ni4+2 0.869690 0.369690 0.000030 0.314038
Ni3   Ni    Ni4+2 0.985640 0.509470 0.863740 0.218727
Ni4   Ni    Ni4+2 0.014360 0.490530 0.136260 0.295516
C41   C     C_2   0.812845 0.135178 0.840780 0.620515
H16   H     H_    0.779223 0.066580 0.790803 0.036752
O1    O     O_2   0.773864 0.157470 0.936056 -0.454213
F1    F     F_    0.162025 0.266808 0.095353 -0.686011
C42   C     C_2   0.825904 0.229978 0.571692 0.594899
H17   H     H_    0.804674 0.301797 0.650195 0.022654
O2    O     O_2   0.798126 0.240277 0.510083 -0.548830
F2    F     F_    0.647807 0.314226 0.169654 -0.661543
F3    F     F_    0.052479 0.815976 0.458420 -0.666127
F4    F     F_    0.677801 0.589313 0.517090 -0.653309
F5    F     F_    0.378625 0.251705 0.476554 -0.674074
F6    F     F_    0.429928 0.590493 0.190056 -0.703912
F7    F     F_    0.537456 0.544101 0.911933 -0.686544
F8    F     F_    0.827722 0.974698 0.988566 -0.642509
C43   C     C_2   0.582883 0.385123 0.061693 0.700639
H18   H     H_    0.519078 0.406799 0.144013 0.109467
O3    O     O_2   0.585177 0.291971 0.989854 -0.537015
F9    F     F_    0.864709 0.493321 0.356956 -0.626488
F10   F     F_    0.358533 0.682255 0.999005 -0.659958

loop_
_geom_bond_atom_site_label_1
_geom_bond_atom_site_label_2
_ccdc_geom_bond_type
N11   N13   A    
C3    C23   A    
C19   C20   A    
C14   C31   S    
C11   N7    A    
C2    C12   A    
C18   H7    S    
C34   N11   A    
C5    F10   S    
C23   H12   S    
C36   N12   A    
C26   C27   A    
C18   C24   A    
C28   C29   A    
C1    N1    A    
C41   O1    D    
C8    N4    A    
C13   H6    S    
C4    C24   S    
C11   C14   A    
C36   C43   S    
C32   F7    S    
C37   N13   A    
N5    Ni2   S    
C18   C19   A    
C7    H2    S    
N2    Ni2   S    
C1    C40   A    
C6    C15   A    
C39   H15   S    
N10   N12   A    
N15   Ni3   S    
C8    F1    S    
N9    Ni2   S    
N12   Ni2   S    
C7    N3    A    
C21   H8    S    
N3    N6    A    
C38   N14   A    
N4    N5    A    
C21   C22   A    
C6    N2    A    
C3    C32   S    
N2    N8    A    
C29   H10   S    
C15   C20   S    
C4    C34   A    
C9    H3    S    
C33   C40   S    
C31   F6    S    
C10   H4    S    
C41   H16   S    
C42   O2    D    
C26   H9    S    
C39   C40   A    
N1    Ni1   S    
C25   C26   A    
N10   Ni3   S    
C12   F2    S    
C22   F3    S    
C29   C30   A    
C33   F8    S    
C2    C38   A    
C43   O3    D    
C31   C32   D    
C13   N8    A    
N13   Ni1   S    
C25   F4    S    
N9    N14   A    
C20   C21   A    
C5    C14   A    
C37   H14   S    
N6    Ni1   S    
C9    C17   A    
C7    C16   A    
N1    N15   A    
C13   C15   A    
C35   H11   S    
C22   C24   A    
N7    Ni4   S    
C11   H5    S    
C10   N6    A    
N4    Ni4   S    
N3    Ni3   S    
C1    H1    S    
C25   C30   A    
C42   H17   S    
C6    C41   S    
N8    Ni3   S    
C8    C17   A    
C2    C30   S    
C9    N5    A    
C23   N10   A    
N16   Ni1   S    
C5    N16   A    
C10   C16   A    
C28   F5    S    
C43   H18   S    
C3    C36   A    
C16   C27   S    
C12   N9    A    
N11   Ni4   S    
C38   F9    S    
C33   C35   D    
C39   N15   A    
N7    N16   A    
N14   Ni4   S    
C19   C42   S    
C4    C37   A    
C34   H13   S    
C27   C28   A    
