data_mof_unit_37548.cif
_audit_creation_date              2012-12-10T17:18:15-0500
_audit_creation_method            fapswitch 2.2
_symmetry_space_group_name_H-M    P1
_symmetry_Int_Tables_number       1
_space_group_crystal_system       triclinic
_cell_length_a                    10.182949
_cell_length_b                    10.528011
_cell_length_c                    15.021896
_cell_angle_alpha                 90.959572
_cell_angle_beta                  81.018663
_cell_angle_gamma                 95.219721
_cell_volume                      1584.09347281

loop_
_atom_site_label
_atom_site_type_symbol
_atom_type_description
_atom_site_fract_x
_atom_site_fract_y
_atom_site_fract_z
_atom_type_partial_charge
C1    C     C_R   0.554821 0.734364 0.499535 0.861083
C2    C     C_R   0.445421 0.265655 0.510457 0.865780
C3    C     C_R   0.603862 0.729691 0.943900 -0.218174
C4    C     C_R   0.459770 0.278691 0.047195 -0.230320
C5    C     C_2   0.582119 0.870650 0.511575 -0.071779
C6    C     C_2   0.419865 0.130133 0.529459 -0.074785
C7    C     C_2   0.499950 0.933929 0.573035 0.138437
C8    C     C_2   0.506535 0.071499 0.571255 0.139398
C9    C     C_2   0.928777 0.519728 0.501178 -0.013803
C10   C     C_2   0.077285 0.512129 0.481049 -0.005393
C11   C     C_R   0.498836 0.497479 0.673259 0.872916
C12   C     C_R   0.501555 0.503914 0.327136 0.858880
C13   C     C_R   0.457180 0.397400 0.188104 0.031943
C14   C     C_R   0.567209 0.613577 0.805517 0.047539
C15   C     C_R   0.506655 0.507392 0.231057 -0.102358
C16   C     C_R   0.500009 0.505957 0.769052 -0.080662
C17   C     C_R   0.575212 0.613996 0.181684 0.013932
C18   C     C_R   0.435896 0.404899 0.824393 0.028705
C19   C     C_R   0.566007 0.621069 0.088674 0.044100
C20   C     C_R   0.474573 0.394094 0.908956 0.028536
C21   C     C_R   0.525583 0.506853 0.044448 -0.005418
C22   C     C_R   0.524688 0.505721 0.950697 -0.005107
C23   C     C_R   0.481492 0.393506 0.093728 0.064537
C24   C     C_R   0.567240 0.617063 0.899527 0.070369
C25   C     C_R   0.597494 0.734939 0.036791 0.146442
C26   C     C_R   0.455188 0.277990 0.956058 0.173837
H1    H     H_    0.631021 0.818188 0.907792 0.198073
H2    H     H_    0.441392 0.187860 0.081143 0.203751
H3    H     H_    0.120755 0.476645 0.416013 0.148727
H4    H     H_    0.890722 0.589935 0.549636 0.150761
N1    N     N_2   0.842700 0.448880 0.462930 -0.019060
N2    N     N_2   0.157300 0.551120 0.537070 -0.019965
O1    O     O_R   0.431060 0.692470 0.507460 -0.556002
O2    O     O_R   0.568940 0.307530 0.492540 -0.546149
O3    O     O_R   0.651120 0.659650 0.483670 -0.624458
O4    O     O_R   0.348880 0.340350 0.516330 -0.610223
O5    O     O_R   0.389960 0.516440 0.644050 -0.590835
O6    O     O_R   0.610040 0.483560 0.355950 -0.591333
O7    O     O_R   0.610030 0.483620 0.620260 -0.605524
O8    O     O_R   0.389970 0.516380 0.379740 -0.623382
Zn1   Zn    Zn3+2 0.353060 0.521920 0.515880 1.019293
Zn2   Zn    Zn3+2 0.646940 0.478080 0.484120 1.020801
C27   C     C_3   0.379015 0.284171 0.241567 -0.402027
C28   C     C_3   0.234328 0.266380 0.222136 -0.360855
C29   C     C_3   0.165291 0.136643 0.253503 -0.740092
H5    H     H_    0.226392 0.058636 0.225954 0.264778
H6    H     H_    0.147626 0.132877 0.327983 0.298522
H7    H     H_    0.067194 0.121908 0.229582 0.263428
H8    H     H_    0.178199 0.343352 0.256768 0.241330
H9    H     H_    0.229587 0.274585 0.149259 0.234292
H10   H     H_    0.431261 0.196690 0.225385 0.223167
H11   H     H_    0.374149 0.294362 0.315432 0.214898
C30   C     C_3   0.630375 0.726220 0.745804 -0.407528
C31   C     C_3   0.782438 0.735232 0.736087 -0.368574
C32   C     C_3   0.846671 0.847293 0.676639 -0.748792
H12   H     H_    0.818445 0.836860 0.608241 0.273523
H13   H     H_    0.814533 0.938376 0.707166 0.282884
H14   H     H_    0.957018 0.850302 0.670304 0.278605
H15   H     H_    0.816048 0.745762 0.802879 0.244323
H16   H     H_    0.815522 0.645337 0.704906 0.255682
H17   H     H_    0.603957 0.718012 0.677270 0.204351
H18   H     H_    0.591496 0.816683 0.772289 0.239377
C33   C     C_3   0.671430 0.707144 0.225496 -0.369757
C34   C     C_3   0.816179 0.702769 0.177747 -0.332544
C35   C     C_3   0.913847 0.791002 0.222660 -0.777549
H19   H     H_    0.888598 0.891238 0.220536 0.288430
H20   H     H_    0.911203 0.761988 0.293734 0.275972
H21   H     H_    0.016742 0.785231 0.186173 0.248030
H22   H     H_    0.844988 0.603559 0.179613 0.236585
H23   H     H_    0.825758 0.731223 0.106087 0.242012
H24   H     H_    0.639252 0.803947 0.230392 0.239233
H25   H     H_    0.672002 0.686953 0.297093 0.220259
C36   C     C_3   0.295393 0.348562 0.813182 -0.388350
C37   C     C_3   0.288022 0.249683 0.737678 -0.338515
C38   C     C_3   0.157995 0.162858 0.753521 -0.741955
H26   H     H_    0.152163 0.105783 0.815730 0.279076
H27   H     H_    0.070874 0.220520 0.759797 0.268632
H28   H     H_    0.153729 0.096374 0.695698 0.278031
H29   H     H_    0.289980 0.299535 0.673937 0.256349
H30   H     H_    0.373537 0.190948 0.730274 0.261530
H31   H     H_    0.243331 0.306011 0.877904 0.221212
H32   H     H_    0.235580 0.427849 0.801110 0.231610
I1    I     I_    0.610314 0.928009 0.083801 -0.397427
I2    I     I_    0.433292 0.094401 0.896295 -0.361949
I3    I     I_    0.657424 0.164440 0.640754 -0.289951
I4    I     I_    0.350920 0.850002 0.676593 -0.309182
I5    I     I_    0.256574 0.029383 0.478637 -0.343169
I6    I     I_    0.739700 0.963815 0.419824 -0.333501
I7    I     I_    0.080764 0.566427 0.673282 -0.316946
I8    I     I_    0.898418 0.316442 0.363800 -0.270567

loop_
_geom_bond_atom_site_label_1
_geom_bond_atom_site_label_2
_ccdc_geom_bond_type
C28   H8    S    
C32   H12   S    
N1    Zn2   S    
C36   C37   S    
O2    Zn2   S    
C27   C28   S    
O4    Zn1   S    
C1    O1    A    
C7    C8    S    
C31   H16   S    
C30   C31   S    
C1    C5    S    
C19   C21   A    
O6    Zn2   S    
C27   H11   S    
C7    I4    S    
C28   H9    S    
C13   C23   A    
C8    I3    S    
C11   C16   S    
C14   C24   A    
C11   O5    A    
O3    Zn2   S    
C5    I6    S    
C30   H17   S    
C35   H20   S    
N2    Zn1   S    
C34   H23   S    
C9    C10   S    
C18   C20   A    
C2    O2    A    
C37   H30   S    
C21   C22   A    
C12   O6    A    
C3    C24   A    
C2    C6    S    
C36   H31   S    
C4    H2    S    
O7    Zn2   S    
C31   H15   S    
C29   H6    S    
C37   C38   S    
C3    C25   A    
C5    C7    D    
C4    C23   A    
C6    C8    D    
C29   H5    S    
C6    I5    S    
C12   O8    A    
C38   H26   S    
C30   H18   S    
N2    I7    S    
C12   C15   S    
C35   H21   S    
C32   H13   S    
C34   H22   S    
C11   O7    A    
C38   H27   S    
C9    H4    S    
O8    Zn1   S    
C20   C22   A    
C18   C36   S    
C37   H29   S    
C21   C23   A    
C13   C15   A    
C22   C24   A    
C36   H32   S    
C13   C27   S    
C28   C29   S    
C1    O3    A    
C29   H7    S    
C2    O4    A    
C15   C17   A    
C31   C32   S    
C26   I2    S    
N1    I8    S    
C33   H24   S    
C4    C26   A    
O1    Zn1   S    
C34   C35   S    
C3    H1    S    
C17   C33   S    
C10   H3    S    
C27   H10   S    
C20   C26   A    
C17   C19   A    
C14   C16   A    
O5    Zn1   S    
C19   C25   A    
C38   H28   S    
C9    N1    D    
C33   C34   S    
C10   N2    D    
C14   C30   S    
C33   H25   S    
C16   C18   A    
C35   H19   S    
C32   H14   S    
C25   I1    S    
