data_mof_unit_60835.cif
_audit_creation_date              2012-12-10T16:46:22-0500
_audit_creation_method            fapswitch 2.2
_symmetry_space_group_name_H-M    P1
_symmetry_Int_Tables_number       1
_space_group_crystal_system       triclinic
_cell_length_a                    19.078683
_cell_length_b                    18.590648
_cell_length_c                    19.214709
_cell_angle_alpha                 108.758493
_cell_angle_beta                  110.537069
_cell_angle_gamma                 108.87735
_cell_volume                      5260.65552243

loop_
_atom_site_label
_atom_site_type_symbol
_atom_type_description
_atom_site_fract_x
_atom_site_fract_y
_atom_site_fract_z
_atom_type_partial_charge
C1    C     C_R   0.384462 0.381614 0.501012 0.831528
C2    C     C_2   0.178388 0.512301 0.192888 -0.431277
C3    C     C_2   0.236852 0.487044 0.311915 0.275846
C4    C     C_R   0.618257 0.499395 0.618041 0.811009
C5    C     C_2   0.308993 0.491775 0.312432 -0.413358
C6    C     C_2   0.743146 0.750745 0.428023 -0.160108
C7    C     C_2   0.819834 0.810689 0.498104 -0.314752
C8    C     C_2   0.682283 0.677931 0.428170 -0.157102
C9    C     C_2   0.677678 0.688267 0.498447 -0.318640
C10   C     C_R   0.997029 0.381758 0.880995 0.831821
C11   C     C_R   0.875311 0.502216 0.877417 0.748877
C12   C     C_3   0.805666 0.500380 0.808470 0.045373
C13   C     C_R   0.992220 0.618361 0.108307 0.813820
C14   C     C_R   0.112632 0.501947 0.115525 0.841829
C15   C     C_R   0.002246 0.120875 0.615371 0.849555
C16   C     C_R   0.615733 0.618385 0.499171 0.860641
C17   C     C_R   0.116893 0.119167 0.501126 0.840958
C18   C     C_R   0.999408 0.880519 0.384959 0.851923
C19   C     C_R   0.883135 0.880881 0.498926 0.843491
C20   C     C_2   0.954745 0.221913 0.670381 -0.172699
C21   C     C_2   0.015200 0.198632 0.680197 -0.323668
C22   C     C_2   0.967539 0.296552 0.740895 -0.191907
C23   C     C_3   0.844759 0.583978 0.801050 -0.460921
C24   C     C_2   0.999443 0.311566 0.822105 -0.020239
C25   C     C_2   0.059345 0.818909 0.307586 -0.165258
C26   C     C_2   0.994775 0.807574 0.322841 -0.348093
C27   C     C_2   0.057924 0.744488 0.247383 0.086916
C28   C     C_R   0.379864 0.498488 0.381338 0.846051
C29   C     C_2   0.988944 0.688790 0.166458 -0.061267
C30   C     C_3   0.701550 0.422167 0.647513 -0.363009
C31   C     C_3   0.770120 0.420408 0.719266 -0.061430
C32   C     C_3   0.771820 0.587969 0.735594 0.122671
C33   C     C_3   0.656471 0.485646 0.747506 -0.475274
C34   C     C_3   0.731945 0.503540 0.828095 -0.075647
C35   C     C_3   0.686504 0.499260 0.685309 0.074815
C36   C     C_3   0.077166 0.381144 0.188934 -0.324032
C37   C     C_3   0.077423 0.320649 0.227912 -0.364930
C38   C     C_3   0.993309 0.233912 0.172262 -0.875398
C39   C     C_3   0.211951 0.564021 0.421249 -0.677754
C40   C     C_3   0.025574 0.251713 0.850984 -0.415250
C41   C     C_3   0.030128 0.260261 0.935087 -0.344146
C42   C     C_3   0.061887 0.202186 0.960691 -0.873560
C43   C     C_3   0.736134 0.328575 0.711875 -0.399389
C44   C     C_3   0.724449 0.259562 0.631722 -0.386930
C45   C     C_2   0.257260 0.248972 0.572148 -0.159595
C46   C     C_3   0.700751 0.172345 0.630581 -0.835761
C47   C     C_3   0.136720 0.731935 0.276242 -0.392554
C48   C     C_3   0.205021 0.790509 0.371551 -0.348415
C49   C     C_3   0.279787 0.771665 0.392923 -0.857592
C50   C     C_3   0.913222 0.702469 0.125694 -0.442170
C51   C     C_3   0.911916 0.720044 0.052610 -0.336187
C52   C     C_3   0.841560 0.742255 0.017307 -0.888651
C53   C     C_3   0.851922 0.601706 0.654100 -0.681369
C54   C     C_3   0.700600 0.449940 0.869148 -0.355941
C55   C     C_3   0.627014 0.456982 0.881358 -0.390626
C56   C     C_2   0.180309 0.189489 0.502152 -0.313196
C57   C     C_3   0.607813 0.415043 0.933679 -0.850155
C58   C     C_2   0.318338 0.321824 0.572200 -0.162381
C59   C     C_2   0.322646 0.311692 0.501821 -0.318347
C60   C     C_2   0.163659 0.462801 0.230487 0.089750
Cu1   Cu    Cu3+1 0.500730 0.439000 0.439690 0.937313
Cu2   Cu    Cu3+1 0.499270 0.561000 0.560310 0.928555
Cu3   Cu    Cu3+1 0.933160 0.439090 0.994150 0.893987
Cu4   Cu    Cu3+1 0.055180 0.561040 0.994050 0.924139
Cu5   Cu    Cu3+1 0.061740 0.000000 0.561740 0.937586
Cu6   Cu    Cu3+1 0.938260 0.000000 0.438260 0.939113
H1    H     H_    0.721420 0.426059 0.600487 0.173353
H2    H     H_    0.639110 0.360404 0.610798 0.162129
H3    H     H_    0.311067 0.478247 0.253946 0.136133
H4    H     H_    0.726656 0.752042 0.368443 0.160674
H5    H     H_    0.840110 0.804052 0.554986 0.152447
H6    H     H_    0.637831 0.616716 0.368648 0.160436
H7    H     H_    0.715458 0.751990 0.555363 0.149601
H8    H     H_    0.894855 0.186330 0.609829 0.172133
H9    H     H_    0.077534 0.238210 0.737948 0.151806
H10   H     H_    0.941917 0.336519 0.723504 0.124496
H11   H     H_    0.116070 0.882987 0.343231 0.142490
H12   H     H_    0.758807 0.572143 0.876511 0.153385
H13   H     H_    0.938345 0.743763 0.290162 0.139483
H14   H     H_    0.825462 0.431007 0.708413 0.131250
H15   H     H_    0.894817 0.584255 0.784440 0.202325
H16   H     H_    0.631335 0.530065 0.767411 0.169858
H17   H     H_    0.602728 0.417632 0.714242 0.174026
H18   H     H_    0.937999 0.245169 0.164830 0.257226
H19   H     H_    0.984554 0.198779 0.108307 0.253162
H20   H     H_    0.994675 0.192361 0.202726 0.249053
H21   H     H_    0.131424 0.307213 0.234304 0.223500
H22   H     H_    0.084600 0.351693 0.291730 0.250346
H23   H     H_    0.760501 0.637585 0.774054 0.107187
H24   H     H_    0.028801 0.401096 0.191746 0.208954
H25   H     H_    0.057023 0.341791 0.121085 0.208985
H26   H     H_    0.261072 0.478881 0.424559 0.266162
H27   H     H_    0.193563 0.556659 0.468357 0.222542
H28   H     H_    0.159624 0.564766 0.372515 0.231764
H29   H     H_    0.272691 0.626654 0.454987 0.232426
H30   H     H_    0.017583 0.132640 0.910622 0.257179
H31   H     H_    0.127461 0.221124 0.970329 0.258347
H32   H     H_    0.064421 0.209702 0.021377 0.243377
H33   H     H_    0.075161 0.328916 0.987230 0.213801
H34   H     H_    0.878703 0.643884 0.863887 0.147335
H35   H     H_    0.965283 0.240399 0.927685 0.239382
H36   H     H_    0.979202 0.182491 0.800706 0.223510
H37   H     H_    0.090713 0.267646 0.860780 0.200824
H38   H     H_    0.752966 0.179630 0.686556 0.257767
H39   H     H_    0.640000 0.147908 0.631729 0.252640
H40   H     H_    0.691655 0.123720 0.571608 0.241863
H41   H     H_    0.672935 0.249334 0.573194 0.223244
H42   H     H_    0.785077 0.281836 0.630072 0.211427
H43   H     H_    0.782250 0.329556 0.767033 0.233952
H44   H     H_    0.673637 0.307500 0.709775 0.203588
H45   H     H_    0.273868 0.247264 0.631546 0.160497
H46   H     H_    0.256114 0.701436 0.372920 0.258025
H47   H     H_    0.314032 0.789455 0.359655 0.255217
H48   H     H_    0.325801 0.810674 0.462755 0.244172
H49   H     H_    0.231206 0.860338 0.388687 0.217004
H50   H     H_    0.175719 0.778646 0.410371 0.232708
H51   H     H_    0.114645 0.662965 0.261854 0.185405
H52   H     H_    0.167729 0.744005 0.238778 0.212740
H53   H     H_    0.777986 0.689730 0.997002 0.248948
H54   H     H_    0.855441 0.804714 0.066628 0.264249
H55   H     H_    0.838886 0.749299 0.961325 0.236482
H56   H     H_    0.160018 0.196530 0.445509 0.153238
H57   H     H_    0.975097 0.775436 0.075827 0.231036
H58   H     H_    0.900453 0.661496 0.000445 0.201792
H59   H     H_    0.852496 0.642896 0.100667 0.193201
H60   H     H_    0.913953 0.758004 0.170331 0.235629
H61   H     H_    0.793151 0.674149 0.685734 0.240993
H62   H     H_    0.839938 0.606547 0.595347 0.230387
H63   H     H_    0.844148 0.536194 0.640410 0.220740
H64   H     H_    0.918955 0.652480 0.705297 0.218119
H65   H     H_    0.589354 0.345019 0.901427 0.253703
H66   H     H_    0.665052 0.449028 0.998426 0.251129
H67   H     H_    0.363103 0.382861 0.631855 0.158226
H68   H     H_    0.553766 0.419940 0.940297 0.243026
H69   H     H_    0.644955 0.526776 0.914910 0.217058
H70   H     H_    0.567299 0.423578 0.818679 0.222586
H71   H     H_    0.680156 0.380330 0.831255 0.209338
H72   H     H_    0.754384 0.477225 0.934328 0.227252
H73   H     H_    0.284618 0.248052 0.444774 0.152469
H74   H     H_    0.242387 0.567325 0.223682 0.153412
N1    N     N_2   0.224318 0.492226 0.382111 -0.434920
N2    N     N_2   0.792200 0.616415 0.678906 -0.424670
O1    O     O_R   0.411600 0.359460 0.449080 -0.590807
O2    O     O_R   0.946790 0.089000 0.535860 -0.583197
O3    O     O_R   0.141150 0.089030 0.552120 -0.585914
O4    O     O_R   0.410370 0.462480 0.550940 -0.587734
O5    O     O_R   0.036880 0.089030 0.447850 -0.588712
O6    O     O_R   0.053210 0.911000 0.464140 -0.579948
O7    O     O_R   0.948930 0.911000 0.359870 -0.588258
O8    O     O_R   0.963120 0.910970 0.552150 -0.589374
O9    O     O_R   0.858850 0.910970 0.447880 -0.583657
O10   O     O_R   0.590700 0.448490 0.539150 -0.588398
O11   O     O_R   0.589460 0.551510 0.641010 -0.608878
O12   O     O_R   0.046690 0.462500 0.906070 -0.583819
O13   O     O_R   0.589630 0.537520 0.449060 -0.576489
O14   O     O_R   0.588400 0.640540 0.550920 -0.590314
O15   O     O_R   0.410540 0.448490 0.358990 -0.588719
O16   O     O_R   0.409300 0.551510 0.460850 -0.577797
O17   O     O_R   0.943650 0.359510 0.906150 -0.601410
O18   O     O_R   0.852560 0.448570 0.904070 -0.610891
O19   O     O_R   0.955610 0.551560 0.903980 -0.592322
O20   O     O_R   0.941640 0.537630 0.082140 -0.593278
O21   O     O_R   0.044680 0.640620 0.082050 -0.597204
O22   O     O_R   0.032730 0.448570 0.084230 -0.602101
O23   O     O_R   0.135770 0.551560 0.084140 -0.580693
O24   O     O_R   0.051070 0.089000 0.640130 -0.593434

loop_
_geom_bond_atom_site_label_1
_geom_bond_atom_site_label_2
_ccdc_geom_bond_type
Cu3   O20   S    
C49   H47   S    
C27   C29   D    
C51   H57   S    
C41   C42   S    
C57   H66   S    
C18   C26   S    
Cu3   O17   S    
C10   O12   A    
C31   H14   S    
C12   C23   S    
C37   C38   S    
C31   C43   S    
C30   C35   S    
C38   H20   S    
C42   H30   S    
C13   C29   S    
C36   C37   S    
C17   O5    A    
C9    C16   S    
C18   O6    A    
C1    C59   S    
C7    H5    S    
C30   C31   S    
C2    C60   D    
C54   H71   S    
Cu6   O2    S    
C27   C47   S    
C55   H70   S    
C46   H39   S    
Cu4   O12   S    
C11   O19   A    
C19   O8    A    
C53   N2    S    
Cu5   O8    S    
C39   H27   S    
C5    H3    S    
C37   H22   S    
C33   C35   S    
C47   H51   S    
Cu1   O1    S    
C47   H52   S    
C39   N1    S    
C45   C56   D    
C41   H35   S    
C8    C9    D    
C3    N1    S    
C16   O14   A    
C19   O9    A    
Cu2   O16   S    
C15   O24   A    
C50   H60   S    
C43   H44   S    
C22   H10   S    
C18   O7    A    
C33   H16   S    
C32   N2    S    
C30   H1    S    
C48   H50   S    
C3    C60   S    
C23   H34   S    
C4    C35   S    
C51   H58   S    
C1    O4    A    
C9    H7    S    
Cu3   O18   S    
Cu4   O21   S    
Cu1   O13   S    
C44   C46   S    
C11   O18   A    
C13   O21   A    
C29   C50   S    
C44   H42   S    
C58   H67   S    
Cu3   O22   S    
C4    O10   A    
C45   C58   S    
C8    H6    S    
C38   H19   S    
C51   C52   S    
C32   C35   S    
C13   O20   A    
Cu6   O7    S    
C42   H31   S    
C6    C8    S    
C50   C51   S    
C58   C59   D    
C46   H38   S    
Cu5   O24   S    
C15   O2    A    
C14   O23   A    
H61   N2    S    
C56   H56   S    
C17   O3    A    
C43   C44   S    
C39   H28   S    
Cu4   O23   S    
C1    O1    A    
C53   H62   S    
Cu1   O15   S    
C5    C28   S    
C52   H55   S    
C47   C48   S    
C59   H73   S    
C16   O13   A    
C28   O16   A    
C33   C34   S    
C20   H8    S    
C50   H59   S    
Cu5   O6    S    
H26   N1    S    
C33   H17   S    
C17   C56   S    
C39   H29   S    
Cu6   O5    S    
C49   H46   S    
C52   H54   S    
C36   H25   S    
C40   C41   S    
C20   C22   S    
C34   C54   S    
C7    C19   S    
C48   H49   S    
C32   H23   S    
C25   H11   S    
C57   H68   S    
C53   H63   S    
Cu5   O3    S    
C3    C5    D    
C44   H41   S    
C36   H24   S    
C6    H4    S    
C54   C55   S    
C48   C49   S    
C23   H15   S    
C38   H18   S    
C57   H65   S    
C37   H21   S    
Cu4   O19   S    
C36   C60   S    
C42   H32   S    
C41   H33   S    
C11   C12   S    
C45   H45   S    
C6    C7    D    
C25   C27   S    
C21   H9    S    
C26   H13   S    
Cu2   O11   S    
C2    H74   S    
C23   C32   S    
C55   C57   S    
C25   C26   D    
Cu6   O9    S    
C12   C31   S    
C34   H12   S    
C40   H37   S    
C49   H48   S    
C54   H72   S    
C55   H69   S    
C46   H40   S    
C28   O15   A    
C24   C40   S    
Cu2   O14   S    
C4    O11   A    
C22   C24   D    
C14   O22   A    
Cu1   Cu2   S    
C2    C14   S    
Cu1   O10   S    
C40   H36   S    
Cu3   Cu4   S    
C52   H53   S    
C15   C21   S    
C20   C21   D    
C10   C24   S    
Cu5   Cu6   S    
Cu2   O4    S    
C53   H64   S    
C43   H43   S    
C12   C34   S    
C10   O17   A    
C30   H2    S    
