data_mof_unit_62120.cif
_audit_creation_date              2012-12-10T19:40:20-0500
_audit_creation_method            fapswitch 2.2
_symmetry_space_group_name_H-M    P1
_symmetry_Int_Tables_number       1
_space_group_crystal_system       triclinic
_cell_length_a                    15.86514
_cell_length_b                    17.033612
_cell_length_c                    23.522454
_cell_angle_alpha                 92.205014
_cell_angle_beta                  91.253315
_cell_angle_gamma                 95.772853
_cell_volume                      6317.68287001

loop_
_atom_site_label
_atom_site_type_symbol
_atom_type_description
_atom_site_fract_x
_atom_site_fract_y
_atom_site_fract_z
_atom_type_partial_charge
C1    C     C_R   0.489828 0.348235 0.498981 0.859265
C2    C     C_R   0.510172 0.651765 0.501018 0.859309
C3    C     C_R   0.582477 0.504167 0.241481 -0.134874
C4    C     C_R   0.574091 0.504247 0.762383 -0.149372
C5    C     C_R   0.580619 0.504293 0.300620 -0.192630
C6    C     C_R   0.574408 0.503940 0.703308 -0.182514
C7    C     C_R   0.502921 0.499256 0.328303 -0.128312
C8    C     C_R   0.497962 0.500790 0.671732 -0.127697
C9    C     C_R   0.427066 0.493756 0.295733 -0.168335
C10   C     C_R   0.421040 0.498208 0.700459 -0.177638
C11   C     C_R   0.428072 0.493467 0.236343 0.474973
C12   C     C_R   0.419905 0.498533 0.759949 0.486152
C13   C     C_R   0.506981 0.498894 0.209034 0.232282
C14   C     C_R   0.497682 0.501516 0.791095 0.231675
C15   C     C_R   0.485083 0.261226 0.495136 -0.117190
C16   C     C_R   0.514919 0.738773 0.504865 -0.117054
C17   C     C_R   0.559752 0.225312 0.485625 -0.312831
C18   C     C_R   0.440255 0.774688 0.514398 -0.311273
C19   C     C_R   0.558284 0.143589 0.480009 0.184582
C20   C     C_R   0.441728 0.856411 0.520018 0.185057
C21   C     C_R   0.481134 0.096111 0.484882 0.300297
C22   C     C_R   0.518874 0.903887 0.515128 0.299927
C23   C     C_R   0.500867 0.499675 0.390893 0.819495
C24   C     C_R   0.499201 0.500323 0.609112 0.819307
C25   C     C_R   0.406268 0.131136 0.492962 -0.291841
C26   C     C_R   0.593735 0.868861 0.507026 -0.292879
C27   C     C_R   0.407181 0.213595 0.498666 0.411628
C28   C     C_R   0.592817 0.786403 0.501317 0.410617
C29   C     C_R   0.755064 0.454560 0.477572 0.469056
C30   C     C_R   0.244933 0.545433 0.522434 0.473259
C31   C     C_R   0.843336 0.457144 0.481470 -0.314804
C32   C     C_R   0.156661 0.542847 0.518536 -0.309708
C33   C     C_R   0.891586 0.517956 0.512682 0.248032
C34   C     C_R   0.108413 0.482042 0.487315 0.247374
C35   C     C_R   0.848169 0.574399 0.542121 0.198272
C36   C     C_R   0.151833 0.425607 0.457869 0.201928
C37   C     C_R   0.757127 0.566973 0.540890 0.449558
C38   C     C_R   0.242875 0.433034 0.459103 0.452859
C39   C     C_R   0.508161 0.572121 0.882251 0.585023
C40   C     C_R   0.512156 0.429428 0.118065 0.584873
C41   C     C_R   0.500374 0.431513 0.877962 0.566661
C42   C     C_R   0.515259 0.569764 0.122384 0.566008
C43   C     C_R   0.511604 0.429809 0.937487 -0.132167
C44   C     C_R   0.522267 0.572593 0.062852 -0.133008
C45   C     C_R   0.515455 0.501763 0.970047 -0.089430
C46   C     C_R   0.518079 0.500631 0.030285 -0.089732
C47   C     C_R   0.515463 0.574603 0.942370 -0.139919
C48   C     C_R   0.515242 0.427620 0.057968 -0.140099
C49   C     C_R   0.517702 0.358170 0.965206 0.368097
C50   C     C_R   0.531036 0.645169 0.035091 0.368833
C51   C     C_R   0.516435 0.356343 0.024631 0.195711
C52   C     C_R   0.524381 0.646524 0.975700 0.195639
Cu1   Cu    Cu3+1 0.415220 0.496180 0.497250 1.025970
Cu2   Cu    Cu3+1 0.584780 0.503820 0.502750 1.022764
H1    H     H_    0.126184 0.587891 0.541691 0.235671
H2    H     H_    0.873812 0.412093 0.458320 0.235234
H3    H     H_    0.642855 0.508268 0.220628 0.164497
H4    H     H_    0.633587 0.506579 0.786162 0.162208
H5    H     H_    0.640059 0.508481 0.324611 0.183376
H6    H     H_    0.634717 0.506114 0.682424 0.184959
H7    H     H_    0.366445 0.489606 0.316326 0.192403
H8    H     H_    0.361442 0.495908 0.676773 0.190190
H9    H     H_    0.380312 0.739235 0.518474 0.237293
H10   H     H_    0.619698 0.260765 0.481563 0.237281
H11   H     H_    0.347265 0.093714 0.495960 0.180801
H12   H     H_    0.652735 0.906283 0.504014 0.180594
N1    N     N_R   0.500696 0.501673 0.852108 -0.481563
N2    N     N_R   0.511541 0.499361 0.148192 -0.481443
N3    N     N_2   0.476743 0.012987 0.481683 -0.185131
N4    N     N_2   0.523265 0.987011 0.518329 -0.185618
N5    N     N_R   0.712130 0.509560 0.506880 -0.245260
N6    N     N_R   0.287870 0.490440 0.493120 -0.245619
N7    N     N_2   0.982972 0.525331 0.514679 -0.145402
N8    N     N_2   0.017027 0.474666 0.485316 -0.145967
O1    O     O_R   0.420530 0.382500 0.497430 -0.467995
O2    O     O_R   0.579470 0.617500 0.502570 -0.468408
O3    O     O_R   0.563720 0.388950 0.502070 -0.607051
O4    O     O_R   0.436280 0.611050 0.497930 -0.606673
O5    O     O_R   0.428390 0.496750 0.415560 -0.545163
O6    O     O_R   0.571610 0.503250 0.584440 -0.543237
O7    O     O_R   0.571580 0.503200 0.420200 -0.619952
O8    O     O_R   0.428420 0.496800 0.579800 -0.621746
O9    O     O_2   0.507712 0.638735 0.853383 -0.481854
O10   O     O_2   0.508274 0.362517 0.146884 -0.481820
O11   O     O_2   0.487108 0.363883 0.845804 -0.478561
O12   O     O_2   0.509350 0.636229 0.154530 -0.478837
O13   O     O_3   0.526710 0.288565 0.935199 -0.633860
H13   H     H_    0.573843 0.299717 0.908737 0.355479
O14   O     O_3   0.547711 0.716391 0.065012 -0.634148
H14   H     H_    0.596241 0.711134 0.091409 0.356092
O15   O     O_3   0.333302 0.248088 0.508242 -0.674073
H15   H     H_    0.285152 0.206299 0.509264 0.333799
O16   O     O_3   0.666689 0.751909 0.491717 -0.675800
H16   H     H_    0.714839 0.793697 0.490683 0.332940
O17   O     O_3   0.285242 0.606598 0.555709 -0.709440
H17   H     H_    0.338802 0.590515 0.570322 0.365932
O18   O     O_3   0.714751 0.393390 0.444303 -0.712683
H18   H     H_    0.661204 0.409485 0.429676 0.365780
O19   O     O_3   0.896154 0.636388 0.570627 -0.682137
H19   H     H_    0.862600 0.682309 0.573084 0.343322
O20   O     O_3   0.103851 0.363625 0.429353 -0.680374
H20   H     H_    0.137407 0.317706 0.426887 0.343822
O21   O     O_3   0.712404 0.615451 0.574407 -0.662967
H21   H     H_    0.747052 0.633016 0.608939 0.314826
O22   O     O_3   0.287600 0.384564 0.425580 -0.662263
H22   H     H_    0.252958 0.367014 0.391043 0.319215
I1    I     I_    0.521400 0.241002 0.057947 -0.067038
I2    I     I_    0.533245 0.762867 0.942437 -0.067892
O23   O     O_3   0.351162 0.487915 0.207050 -0.691540
H23   H     H_    0.360670 0.488023 0.165628 0.342580
O24   O     O_3   0.342215 0.495808 0.785537 -0.687017
H24   H     H_    0.350440 0.496323 0.827373 0.343703
I3    I     I_    0.326365 0.903550 0.539456 -0.239582
I4    I     I_    0.673660 0.096456 0.460600 -0.245054

loop_
_geom_bond_atom_site_label_1
_geom_bond_atom_site_label_2
_ccdc_geom_bond_type
C16   C28   A    
O13   H13   S    
O16   H16   S    
C11   O23   S    
C1    O3    A    
N7    N8    D    
C40   O10   S    
O24   H24   S    
O18   H18   S    
C41   N1    A    
C10   H8    S    
C45   C46   A    
O20   H20   S    
C9    H7    S    
C35   C37   A    
C17   H10   S    
C20   I3    S    
C33   C35   A    
C18   H9    S    
Cu1   O8    S    
Cu1   O5    S    
C40   C48   A    
C49   O13   S    
C24   O8    A    
C8    C24   S    
C24   O6    A    
C48   C51   A    
Cu2   N5    S    
O17   H17   S    
C49   C51   A    
C50   C52   A    
C14   N1    S    
C31   C33   A    
C27   O15   S    
C42   O12   S    
C31   H2    S    
C2    C16   S    
C32   H1    S    
C18   C20   A    
C3    C13   A    
Cu2   O3    S    
C42   N2    A    
C41   C43   A    
Cu1   O1    S    
C42   C44   A    
C51   I1    S    
C35   O19   S    
C44   C46   A    
Cu2   O6    S    
C45   C47   A    
C38   N6    A    
C5    H5    S    
C1    O1    A    
C6    H6    S    
C25   H11   S    
C4    C6    A    
O15   H15   S    
C5    C7    A    
C43   C49   A    
C6    C8    A    
C19   I4    S    
Cu1   Cu2   S    
C21   N3    S    
C36   O20   S    
C26   H12   S    
C30   O17   S    
C2    O4    A    
C9    C11   A    
C50   O14   S    
C15   C27   A    
O19   H19   S    
C43   C45   A    
C10   C12   A    
C34   N8    S    
C1    C15   S    
C3    H3    S    
C33   N7    S    
C12   C14   A    
C37   N5    A    
C40   N2    A    
Cu2   O2    S    
C2    O2    A    
C39   C47   A    
C44   C50   A    
C15   C17   A    
C21   C25   A    
C23   O7    A    
C19   C21   A    
C39   N1    A    
C8    C10   A    
C20   C22   A    
C30   N6    A    
C3    C5    A    
C37   O21   S    
C47   C52   A    
C25   C27   A    
C41   O11   S    
O22   H22   S    
C26   C28   A    
C29   O18   S    
C38   O22   S    
C36   C38   A    
Cu1   O4    S    
C39   O9    S    
C29   C31   A    
O23   H23   S    
C30   C32   A    
C11   C13   A    
C7    C23   S    
C17   C19   A    
C34   C36   A    
C12   O24   S    
C4    C14   A    
N3    N4    D    
C46   C48   A    
C7    C9    A    
C52   I2    S    
C16   C18   A    
C22   C26   A    
C4    H4    S    
O21   H21   S    
C28   O16   S    
C23   O5    A    
O14   H14   S    
Cu1   N6    S    
C22   N4    S    
Cu2   O7    S    
C32   C34   A    
C29   N5    A    
C13   N2    S    
