data_mof_unit_25419.cif
_audit_creation_date              2013-03-05T15:50:26-0500
_audit_creation_method            fapswitch 2.2
_symmetry_space_group_name_H-M    P1
_symmetry_Int_Tables_number       1
_space_group_crystal_system       triclinic
_cell_length_a                    18.315731
_cell_length_b                    25.839386
_cell_length_c                    18.244104
_cell_angle_alpha                 90.18566
_cell_angle_beta                  89.918854
_cell_angle_gamma                 90.044261
_cell_volume                      8634.28026879

loop_
_atom_site_label
_atom_site_type_symbol
_atom_site_description
_atom_site_fract_x
_atom_site_fract_y
_atom_site_fract_z
_atom_type_partial_charge
Zn1   Zn    Zn3+2 0.249990 0.293780 0.913250 0.974878
Zn2   Zn    Zn3+2 0.249990 0.706220 0.086750 0.983073
Zn3   Zn    Zn3+2 0.249990 0.706220 0.913250 0.944848
Zn4   Zn    Zn3+2 0.249990 0.293780 0.086750 0.978621
Zn5   Zn    Zn3+2 0.749990 0.793780 0.413250 0.976139
Zn6   Zn    Zn3+2 0.749990 0.206220 0.586750 0.975739
Zn7   Zn    Zn3+2 0.749990 0.206220 0.413250 0.993748
Zn8   Zn    Zn3+2 0.749990 0.793780 0.586750 0.970587
Zn9   Zn    Zn3+2 0.336760 0.206240 0.000000 1.016310
Zn10  Zn    Zn3+2 0.336760 0.793760 0.000000 1.015741
Zn11  Zn    Zn3+2 0.836760 0.706240 0.500000 1.013603
Zn12  Zn    Zn3+2 0.836760 0.293760 0.500000 1.016980
Zn13  Zn    Zn3+2 0.163250 0.206230 0.000000 0.988615
Zn14  Zn    Zn3+2 0.163250 0.793770 0.000000 0.986618
Zn15  Zn    Zn3+2 0.663250 0.706230 0.500000 0.974697
Zn16  Zn    Zn3+2 0.663250 0.293770 0.500000 0.976970
O1    O     O_3   0.249990 0.250010 0.000000 -0.495295
O2    O     O_3   0.249990 0.749990 0.000000 -0.491762
O3    O     O_3   0.749990 0.750010 0.500000 -0.488800
O4    O     O_3   0.749990 0.249990 0.500000 -0.495395
O5    O     O_R   0.335430 0.280650 0.146160 -0.622178
O6    O     O_R   0.335430 0.719350 0.853840 -0.670586
O7    O     O_R   0.335430 0.719350 0.146160 -0.621610
O8    O     O_R   0.335430 0.280650 0.853840 -0.630067
O9    O     O_R   0.835430 0.780650 0.646160 -0.612264
O10   O     O_R   0.835430 0.219350 0.353840 -0.627135
O11   O     O_R   0.835430 0.219350 0.646160 -0.630594
O12   O     O_R   0.835430 0.780650 0.353840 -0.626099
O13   O     O_R   0.164550 0.280640 0.853840 -0.631442
O14   O     O_R   0.164550 0.719360 0.146160 -0.625405
O15   O     O_R   0.164550 0.719360 0.853840 -0.655119
O16   O     O_R   0.164550 0.280640 0.146160 -0.625355
O17   O     O_R   0.664550 0.780640 0.353840 -0.625868
O18   O     O_R   0.664550 0.219360 0.646160 -0.646801
O19   O     O_R   0.664550 0.219360 0.353840 -0.629578
O20   O     O_R   0.664550 0.780640 0.646160 -0.636194
O21   O     O_R   0.396160 0.219380 0.914560 -0.624581
O22   O     O_R   0.396160 0.780620 0.085440 -0.631400
O23   O     O_R   0.396160 0.780620 0.914560 -0.591934
O24   O     O_R   0.396160 0.219380 0.085440 -0.633892
O25   O     O_R   0.896160 0.719380 0.414560 -0.633669
O26   O     O_R   0.896160 0.280620 0.585440 -0.621768
O27   O     O_R   0.896160 0.280620 0.414560 -0.613261
O28   O     O_R   0.896160 0.719380 0.585440 -0.638326
O29   O     O_R   0.103840 0.219370 0.085450 -0.637584
O30   O     O_R   0.103840 0.780630 0.914550 -0.629892
O31   O     O_R   0.103840 0.780630 0.085450 -0.637378
O32   O     O_R   0.103840 0.219370 0.914550 -0.634928
O33   O     O_R   0.603840 0.719370 0.585450 -0.650259
O34   O     O_R   0.603840 0.280630 0.414550 -0.632861
O35   O     O_R   0.603840 0.280630 0.585450 -0.632231
O36   O     O_R   0.603840 0.719370 0.414550 -0.650722
O37   O     O_R   0.310730 0.133160 0.000000 -0.618841
O38   O     O_R   0.310730 0.866840 0.000000 -0.617461
O39   O     O_R   0.810730 0.633160 0.500000 -0.625181
O40   O     O_R   0.810730 0.366840 0.500000 -0.639661
O41   O     O_R   0.249970 0.366860 0.060720 -0.655444
O42   O     O_R   0.249970 0.633140 0.939280 -0.644390
O43   O     O_R   0.249970 0.633140 0.060720 -0.654057
O44   O     O_R   0.249970 0.366860 0.939280 -0.649582
O45   O     O_R   0.749970 0.866860 0.560720 -0.663952
O46   O     O_R   0.749970 0.133140 0.439280 -0.654051
O47   O     O_R   0.749970 0.133140 0.560720 -0.636602
O48   O     O_R   0.749970 0.866860 0.439280 -0.652116
O49   O     O_R   0.189290 0.133150 0.000000 -0.636715
O50   O     O_R   0.189290 0.866850 0.000000 -0.635656
O51   O     O_R   0.689290 0.633150 0.500000 -0.635302
O52   O     O_R   0.689290 0.366850 0.500000 -0.636582
C1    C     C_R   0.389488 0.249798 0.140175 0.927078
C2    C     C_R   0.384382 0.754995 0.854827 0.857673
C3    C     C_R   0.389548 0.750315 0.140087 0.926364
C4    C     C_R   0.389484 0.249703 0.859940 0.926611
C5    C     C_R   0.889633 0.749898 0.640038 0.926069
C6    C     C_R   0.889266 0.250321 0.359577 0.944685
C7    C     C_R   0.889764 0.249886 0.639884 0.923549
C8    C     C_R   0.889384 0.749674 0.359818 0.926540
C9    C     C_R   0.110238 0.250051 0.860154 0.787155
C10   C     C_R   0.110278 0.750052 0.139835 0.796135
C11   C     C_R   0.110240 0.749943 0.860090 0.785597
C12   C     C_R   0.110262 0.250054 0.139839 0.797459
C13   C     C_R   0.610151 0.750014 0.360240 0.791079
C14   C     C_R   0.610350 0.250064 0.639930 0.777443
C15   C     C_R   0.610225 0.249914 0.360120 0.793867
C16   C     C_R   0.605463 0.754607 0.635928 0.805604
C17   C     C_R   0.249960 0.109339 0.999647 0.807820
C18   C     C_R   0.250067 0.890611 0.000132 0.802621
C19   C     C_R   0.750046 0.609380 0.499849 0.808930
C20   C     C_R   0.750011 0.390671 0.500507 0.782826
C21   C     C_R   0.249936 0.391411 0.000175 0.731889
C22   C     C_R   0.249929 0.608578 0.000021 0.741204
C23   C     C_R   0.749941 0.891420 0.499989 0.731920
C24   C     C_R   0.749945 0.108588 0.499833 0.750055
C25   C     C_3   0.249913 0.470455 0.080265 -0.378935
C26   C     C_3   0.181051 0.529771 0.960831 -0.395038
C27   C     C_3   0.249905 0.529903 0.080151 -0.378229
C28   C     C_3   0.181042 0.469911 0.960967 -0.392454
C29   C     C_3   0.681319 0.970145 0.539872 -0.396452
C30   C     C_3   0.749441 0.029539 0.419784 -0.381420
C31   C     C_3   0.681300 0.030006 0.539716 -0.394409
C32   C     C_3   0.749433 0.970095 0.419901 -0.374919
H1    H     H_    0.298961 0.456382 0.110154 0.180950
H2    H     H_    0.179579 0.543841 0.903259 0.185986
H3    H     H_    0.298945 0.544198 0.110027 0.180888
H4    H     H_    0.179532 0.455473 0.903448 0.186786
H5    H     H_    0.680207 0.956071 0.597465 0.176902
H6    H     H_    0.798313 0.043659 0.389458 0.181912
H7    H     H_    0.680149 0.044445 0.597247 0.185199
H8    H     H_    0.798295 0.955857 0.389587 0.181474
H9    H     H_    0.200871 0.456321 0.110301 0.181544
H10   H     H_    0.130942 0.544281 0.988677 0.152975
H11   H     H_    0.200861 0.544142 0.110165 0.181414
H12   H     H_    0.130927 0.455545 0.988878 0.152062
H13   H     H_    0.631034 0.955577 0.512504 0.154397
H14   H     H_    0.700223 0.043623 0.390186 0.181586
H15   H     H_    0.631007 0.044315 0.512273 0.152949
H16   H     H_    0.700211 0.955801 0.390328 0.181887
H17   H     H_    0.221292 0.903589 0.865755 0.177568
H18   H     H_    0.216335 0.094929 0.866551 0.149000
H19   H     H_    0.691185 0.405169 0.626018 0.170449
H20   H     H_    0.696726 0.596271 0.626558 0.160398
H21   H     H_    0.368879 0.455676 0.988481 0.153343
H22   H     H_    0.320161 0.543902 0.903018 0.188583
H23   H     H_    0.368848 0.544400 0.988271 0.156164
H24   H     H_    0.320237 0.455546 0.903216 0.189037
H25   H     H_    0.820775 0.956159 0.596389 0.186084
H26   H     H_    0.868967 0.044452 0.510483 0.157815
H27   H     H_    0.820848 0.044533 0.596183 0.190540
H28   H     H_    0.868941 0.955712 0.510702 0.154288
C33   C     C_3   0.318748 0.469985 0.960740 -0.392085
C34   C     C_3   0.318726 0.529837 0.960598 -0.389048
C35   C     C_3   0.818988 0.970227 0.538824 -0.397876
C36   C     C_3   0.819008 0.030087 0.538678 -0.379773
C37   C     C_3   0.249907 0.449128 0.000552 0.195473
C38   C     C_3   0.249901 0.550840 0.000342 0.190525
C39   C     C_3   0.749917 0.949155 0.499705 0.198730
C40   C     C_3   0.749919 0.050868 0.499488 0.184047
H29   H     H_    0.894610 0.340114 0.952051 0.132419
H30   H     H_    0.162770 0.884375 0.320443 0.119343
H31   H     H_    0.202286 0.836244 0.641157 0.153541
H32   H     H_    0.158751 0.112488 0.315210 0.120755
H33   H     H_    0.696106 0.654158 0.146318 0.129964
H34   H     H_    0.677283 0.369949 0.835913 0.145175
H35   H     H_    0.681737 0.365510 0.161930 0.123252
H36   H     H_    0.376317 0.680974 0.526044 0.149411
C41   C     C_R   0.138064 0.203295 0.720987 -0.174602
C42   C     C_R   0.992401 0.678488 0.130180 -0.152274
C43   C     C_R   0.972035 0.703257 0.888984 -0.150927
C44   C     C_R   0.993634 0.322539 0.131734 -0.152906
C45   C     C_R   0.474480 0.800729 0.387225 -0.170996
C46   C     C_R   0.487652 0.182951 0.625732 -0.149156
C47   C     C_R   0.483437 0.187213 0.377843 -0.150569
C48   C     C_R   0.586442 0.849195 0.734819 -0.151808
C49   C     C_R   0.152063 0.178050 0.655259 -0.179742
C50   C     C_R   0.935154 0.643681 0.123328 -0.203317
C51   C     C_R   0.905888 0.679481 0.904311 -0.194209
C52   C     C_R   0.936427 0.357307 0.125098 -0.202866
C53   C     C_R   0.410331 0.827575 0.400876 -0.198192
C54   C     C_R   0.429634 0.148824 0.618275 -0.193352
C55   C     C_R   0.422555 0.156100 0.387954 -0.188599
C56   C     C_R   0.579315 0.890277 0.783615 -0.210718
C57   C     C_R   0.357818 0.831728 0.346682 -0.235758
C58   C     C_R   0.376011 0.146508 0.671744 -0.235264
C59   C     C_R   0.367930 0.154856 0.335617 -0.233858
C60   C     C_R   0.517963 0.894294 0.827493 -0.237684
C61   C     C_R   0.097393 0.172950 0.603408 -0.206262
C62   C     C_R   0.879358 0.643385 0.174596 -0.248805
C63   C     C_R   0.852064 0.676898 0.851222 -0.228607
C64   C     C_R   0.880168 0.357201 0.175866 -0.244014
C65   C     C_R   0.367954 0.808141 0.277765 0.467917
C66   C     C_R   0.379106 0.178743 0.733980 0.463971
C67   C     C_R   0.373116 0.184938 0.271631 0.468254
C68   C     C_R   0.463677 0.856046 0.824945 0.498081
C69   C     C_R   0.027761 0.194300 0.615650 0.464192
C70   C     C_R   0.880093 0.677772 0.234591 0.464089
C71   C     C_R   0.863106 0.698635 0.781462 0.468319
C72   C     C_R   0.880432 0.322478 0.235172 0.463539
C73   C     C_R   0.432456 0.778314 0.263885 0.029456
C74   C     C_R   0.438360 0.214578 0.742249 0.028182
C75   C     C_R   0.435542 0.217482 0.260371 0.029099
C76   C     C_R   0.475957 0.809711 0.784035 0.028619
C77   C     C_R   0.013814 0.223202 0.681346 0.031005
C78   C     C_R   0.939381 0.713526 0.243096 0.033494
C79   C     C_R   0.930368 0.724822 0.765436 0.025054
C80   C     C_R   0.939638 0.286749 0.243415 0.031898
C81   C     C_R   0.069138 0.225828 0.735444 0.011007
C82   C     C_R   0.995497 0.713848 0.189504 0.010249
C83   C     C_R   0.985539 0.726151 0.819880 0.009400
C84   C     C_R   0.996097 0.286715 0.190198 0.011874
C85   C     C_R   0.486938 0.776132 0.318912 0.010023
C86   C     C_R   0.493425 0.215879 0.687589 0.010915
C87   C     C_R   0.491124 0.218148 0.314414 0.008219
C88   C     C_R   0.535641 0.807604 0.733768 0.017650
C89   C     C_R   0.445109 0.751450 0.196721 -0.164329
C90   C     C_R   0.445041 0.248711 0.803350 -0.155544
C91   C     C_R   0.444723 0.249056 0.197076 -0.159635
C92   C     C_R   0.426107 0.767613 0.786129 -0.184977
C93   C     C_R   0.946253 0.248574 0.695573 -0.160467
C94   C     C_R   0.944602 0.749014 0.302853 -0.160985
C95   C     C_R   0.944969 0.748958 0.696824 -0.162938
C96   C     C_R   0.944061 0.250630 0.302118 -0.169918
C97   C     C_R   0.511642 0.725284 0.182979 0.045813
C98   C     C_R   0.506243 0.281620 0.811831 0.044693
C99   C     C_R   0.507710 0.280064 0.187196 0.046418
C100  C     C_R   0.414507 0.740648 0.719113 0.071561
C101  C     C_R   0.932163 0.273174 0.763629 0.044278
C102  C     C_R   0.003030 0.784665 0.308550 0.047091
C103  C     C_R   0.013389 0.772210 0.681558 0.046599
C104  C     C_R   0.001005 0.213741 0.305964 0.049756
C105  C     C_R   0.986490 0.273342 0.818297 0.082578
C106  C     C_R   0.057235 0.785482 0.253748 0.084289
C107  C     C_R   0.068298 0.772134 0.735594 0.070617
C108  C     C_R   0.056144 0.213714 0.252147 0.084687
C109  C     C_R   0.566451 0.725206 0.237083 0.079195
C110  C     C_R   0.561363 0.281663 0.757877 0.068560
C111  C     C_R   0.562514 0.280200 0.241307 0.079702
C112  C     C_R   0.470186 0.741445 0.664607 0.078707
C113  C     C_R   0.054494 0.249953 0.803584 -0.124761
C114  C     C_R   0.053522 0.749683 0.195421 -0.128112
C115  C     C_R   0.053752 0.749425 0.804268 -0.121113
C116  C     C_R   0.053644 0.250529 0.195429 -0.126989
C117  C     C_R   0.553495 0.750310 0.304578 -0.128149
C118  C     C_R   0.553868 0.249467 0.695810 -0.113281
C119  C     C_R   0.553722 0.249369 0.304310 -0.125364
C120  C     C_R   0.537809 0.766876 0.680048 -0.198459
C121  C     C_R   0.524773 0.698845 0.115942 -0.153421
C122  C     C_R   0.513988 0.314469 0.873827 -0.151155
C123  C     C_R   0.517249 0.311321 0.124056 -0.151726
C124  C     C_R   0.346255 0.717696 0.701609 -0.135403
C125  C     C_R   0.864611 0.297976 0.778431 -0.148057
C126  C     C_R   0.008521 0.819933 0.368107 -0.154136
C127  C     C_R   0.028171 0.796140 0.613176 -0.152834
C128  C     C_R   0.003889 0.176336 0.362568 -0.151223
C129  C     C_R   0.590789 0.673595 0.103063 -0.127612
C130  C     C_R   0.575241 0.345893 0.882108 -0.136456
C131  C     C_R   0.579544 0.341712 0.115280 -0.126054
C132  C     C_R   0.334094 0.694550 0.633807 -0.150461
C133  C     C_R   0.851475 0.321670 0.845888 -0.119465
C134  C     C_R   0.065853 0.855314 0.372267 -0.134811
C135  C     C_R   0.095787 0.818758 0.598938 -0.138339
C136  C     C_R   0.060503 0.140413 0.365914 -0.138619
C137  C     C_R   0.904935 0.321575 0.899765 -0.136059
C138  C     C_R   0.118546 0.856622 0.317456 -0.142773
C139  C     C_R   0.149867 0.818496 0.652212 -0.089986
C140  C     C_R   0.114941 0.140544 0.312823 -0.133646
C141  C     C_R   0.644873 0.673830 0.156344 -0.134924
C142  C     C_R   0.629875 0.345407 0.829304 -0.069379
C143  C     C_R   0.633427 0.341816 0.168772 -0.132354
C144  C     C_R   0.387527 0.696357 0.580150 -0.137987
C145  C     C_R   0.971921 0.297911 0.886365 -0.147288
C146  C     C_R   0.114405 0.822248 0.258632 -0.138396
C147  C     C_R   0.136516 0.795694 0.719990 -0.132516
C148  C     C_R   0.112841 0.176570 0.256238 -0.137697
C149  C     C_R   0.633011 0.699169 0.222783 -0.146283
C150  C     C_R   0.623180 0.313985 0.767484 -0.105108
C151  C     C_R   0.625183 0.311542 0.231274 -0.140870
C152  C     C_R   0.453747 0.720766 0.594298 -0.133699
H37   H     H_    0.182012 0.204813 0.760382 0.165606
H38   H     H_    0.034153 0.677356 0.088169 0.119578
H39   H     H_    0.012540 0.703179 0.932090 0.132553
H40   H     H_    0.035709 0.323932 0.090074 0.119863
H41   H     H_    0.514277 0.799720 0.430968 0.124316
H42   H     H_    0.528237 0.182871 0.582553 0.121961
H43   H     H_    0.524527 0.186539 0.420406 0.121138
H44   H     H_    0.629236 0.854206 0.695317 0.186997
H45   H     H_    0.205294 0.161320 0.645112 0.159609
H46   H     H_    0.933861 0.616863 0.077635 0.143124
H47   H     H_    0.896590 0.662349 0.957569 0.154828
H48   H     H_    0.935419 0.384291 0.079835 0.142830
H49   H     H_    0.401788 0.846017 0.453567 0.154464
H50   H     H_    0.426565 0.123577 0.570950 0.143443
H51   H     H_    0.417780 0.132576 0.436687 0.143256
H52   H     H_    0.618925 0.921418 0.783152 0.162789
H53   H     H_    0.308935 0.853859 0.358349 0.125601
H54   H     H_    0.331769 0.119108 0.664733 0.144618
H55   H     H_    0.321094 0.130107 0.345011 0.121245
H56   H     H_    0.510479 0.929052 0.859970 0.143893
H57   H     H_    0.109217 0.151767 0.553458 0.131820
H58   H     H_    0.835010 0.616101 0.167383 0.118955
H59   H     H_    0.801442 0.657317 0.864417 0.138803
H60   H     H_    0.835712 0.384319 0.168670 0.118390
H61   H     H_    0.484391 0.697323 0.072763 0.109788
H62   H     H_    0.473148 0.316130 0.916695 0.098103
H63   H     H_    0.476862 0.312723 0.080870 0.097445
H64   H     H_    0.298955 0.720871 0.736423 0.173372
H65   H     H_    0.821230 0.299398 0.738295 0.105106
H66   H     H_    0.968733 0.820652 0.412008 0.096626
H67   H     H_    0.987833 0.797814 0.569987 0.106312
H68   H     H_    0.962150 0.174161 0.404338 0.118664
H69   H     H_    0.799665 0.340287 0.856392 0.124750
H70   H     H_    0.069151 0.881991 0.418019 0.123673
H71   H     H_    0.106145 0.836694 0.546398 0.131314
H72   H     H_    0.061868 0.112214 0.409648 0.121133
H73   H     H_    0.599942 0.653724 0.051539 0.134443
H74   H     H_    0.580310 0.370755 0.929667 0.120608
H75   H     H_    0.585924 0.365389 0.066874 0.120637
H76   H     H_    0.281371 0.677685 0.621464 0.148686
H77   H     H_    0.012068 0.299374 0.929784 0.116240
H78   H     H_    0.156096 0.824929 0.216862 0.125771
H79   H     H_    0.180136 0.796991 0.759895 0.126885
H80   H     H_    0.155767 0.174859 0.215607 0.125649
H81   H     H_    0.676327 0.698001 0.262847 0.148936
H82   H     H_    0.666933 0.315275 0.727588 0.105134
H83   H     H_    0.668214 0.313019 0.271667 0.137540
H84   H     H_    0.488230 0.726580 0.547185 0.168277
C153  C     C_R   0.280301 0.054258 0.131649 -0.153501
C154  C     C_R   0.280321 0.946532 0.131972 -0.153724
C155  C     C_R   0.807646 0.553387 0.377340 -0.157005
C156  C     C_R   0.807687 0.445884 0.377687 -0.155462
C157  C     C_R   0.294802 0.027543 0.196254 -0.135785
C158  C     C_R   0.294784 0.973746 0.196421 -0.134267
C159  C     C_R   0.835817 0.526287 0.317584 -0.138449
C160  C     C_R   0.835862 0.472585 0.317774 -0.142805
C161  C     C_R   0.265683 0.972962 0.065632 0.069845
C162  C     C_R   0.265617 0.027361 0.065472 0.064824
C163  C     C_R   0.779487 0.472670 0.439507 0.073332
C164  C     C_R   0.779490 0.527017 0.439314 0.062885
C165  C     C_R   0.250231 0.946222 0.999895 -0.111033
C166  C     C_R   0.249778 0.053641 0.999650 -0.105505
C167  C     C_R   0.750025 0.446365 0.500576 -0.104279
C168  C     C_R   0.750297 0.553763 0.500281 -0.112386
C169  C     C_R   0.234450 0.972477 0.934048 -0.030128
C170  C     C_R   0.233653 0.026782 0.933996 0.034562
C171  C     C_R   0.720702 0.473218 0.561591 -0.017193
C172  C     C_R   0.721419 0.527509 0.561656 0.031036
C173  C     C_R   0.220101 0.945455 0.868011 -0.239400
C174  C     C_R   0.217366 0.053086 0.868068 -0.318355
C175  C     C_R   0.691833 0.446976 0.623236 -0.253289
C176  C     C_R   0.694574 0.554492 0.623826 -0.311724
C177  C     C_R   0.204031 0.971444 0.803095 0.490554
C178  C     C_R   0.202124 0.025936 0.802868 0.378034
C179  C     C_R   0.663056 0.473758 0.683253 0.480171
C180  C     C_R   0.664857 0.528184 0.684144 0.385510
H85   H     H_    0.280305 0.096049 0.134201 0.144731
H86   H     H_    0.280398 0.904731 0.134816 0.143672
H87   H     H_    0.808021 0.595068 0.374167 0.163844
H88   H     H_    0.808024 0.404188 0.374695 0.165776
H89   H     H_    0.305825 0.048679 0.246369 0.126953
H90   H     H_    0.305792 0.952989 0.246664 0.129756
H91   H     H_    0.857406 0.547034 0.270889 0.139197
H92   H     H_    0.857513 0.451534 0.271232 0.139150
O53   O     O_3   0.185455 0.051736 0.738849 -0.798917
H93   H     H_    0.184403 0.089454 0.748721 0.329051
O54   O     O_3   0.190381 0.941945 0.741313 -0.775922
H94   H     H_    0.179951 0.964873 0.699256 0.374626
O55   O     O_3   0.637900 0.554754 0.744217 -0.793105
H95   H     H_    0.643301 0.592489 0.736006 0.333838
O56   O     O_3   0.633963 0.445087 0.739930 -0.787181
H96   H     H_    0.614861 0.468491 0.778503 0.375905
O57   O     O_3   0.316242 0.815269 0.223703 -0.810218
H97   H     H_    0.278875 0.840145 0.241133 0.302615
O58   O     O_3   0.325386 0.174732 0.786932 -0.810318
H98   H     H_    0.290609 0.146926 0.773338 0.307017
O59   O     O_3   0.317814 0.182423 0.220333 -0.809272
H99   H     H_    0.280165 0.157443 0.236746 0.302014
O60   O     O_3   0.395142 0.866493 0.853256 -0.767367
H100  H     H_    0.395329 0.900930 0.877457 0.332541
O61   O     O_3   0.973004 0.185591 0.565080 -0.803276
H101  H     H_    0.990468 0.160891 0.527302 0.308088
O62   O     O_3   0.823031 0.676851 0.284151 -0.819826
H102  H     H_    0.787414 0.649797 0.269640 0.300999
O63   O     O_3   0.809335 0.693352 0.728829 -0.790389
H103  H     H_    0.767186 0.674055 0.749308 0.318491
O64   O     O_3   0.822632 0.322681 0.283877 -0.819846
H104  H     H_    0.787099 0.349725 0.269554 0.301642

loop_
_geom_bond_atom_site_label_1
_geom_bond_atom_site_label_2
_geom_bond_distance
_ccdc_geom_bond_type
C162  C166  1.412060 A    
O61   H101  0.990723 S    
C87   C119  1.413596 A    
C94   C102  1.415208 A    
C70   O62   1.381238 S    
C109  C149  1.416363 A    
C148  H80   1.080644 S    
C176  C180  1.404252 A    
C149  H81   1.079999 S    
C99   C123  1.419517 A    
C75   C91   1.425737 A    
C97   C121  1.419292 A    
O26   C7    1.278923 A    
C154  C158  1.393716 A    
C73   C89   1.425115 A    
C66   C74   1.433864 A    
C130  H74   1.081987 S    
C99   C111  1.408869 A    
C4    C90   1.448773 S    
O30   C11   1.274515 A    
C22   C38   1.491934 S    
C30   H14   1.113481 S    
C91   C99   1.415732 A    
C136  C140  1.389116 A    
C89   C97   1.415725 A    
C157  H89   1.082640 S    
Zn12  O26   1.933262 S    
C110  C118  1.409728 A    
C51   C63   1.384420 A    
C19   C168  1.437167 S    
H34   C142  1.081481 S    
C20   C167  1.439111 S    
C173  C177  1.395233 A    
C92   C100  1.421427 A    
C43   C51   1.386518 A    
C76   C92   1.420200 A    
C32   C39   1.554917 S    
H29   C137  1.082515 S    
C96   C104  1.415424 A    
C34   C38   1.550881 S    
C44   H40   1.082270 S    
O11   C7    1.274791 A    
C154  H86   1.081512 S    
C45   H41   1.081978 S    
C42   C82   1.415297 A    
O34   C15   1.274527 A    
C55   H51   1.082039 S    
C136  H72   1.082606 S    
C167  C171  1.415247 A    
C62   C70   1.407642 A    
C41   H37   1.080493 S    
C171  C172  1.402884 A    
C72   O64   1.381182 S    
C137  C145  1.392220 A    
Zn14  O30   1.931445 S    
Zn1   O44   1.945649 S    
C25   H1    1.113478 S    
Zn2   O43   1.945649 S    
C18   C165  1.436978 S    
C108  C116  1.408669 A    
C141  C149  1.392640 A    
C153  C162  1.417131 A    
Zn5   O48   1.945649 S    
C71   O63   1.382853 S    
Zn6   O47   1.945649 S    
C122  H62   1.082229 S    
Zn7   O46   1.948633 S    
O16   C12   1.274806 A    
C11   C115  1.452816 S    
O60   H100  0.992065 S    
C42   C50   1.386399 A    
Zn16  O4    1.951021 S    
Zn12  O4    1.949898 S    
Zn1   O13   1.934057 S    
C98   C110  1.409009 A    
C26   C28   1.546750 S    
Zn4   O16   1.932806 S    
C57   H53   1.083233 S    
C104  C128  1.417788 A    
C9    C113  1.452767 S    
C33   C37   1.551359 S    
C6    C96   1.450272 S    
C28   H4    1.112965 S    
C125  C133  1.393506 A    
C66   O58   1.381984 S    
C63   H59   1.083067 S    
C31   H7    1.112977 S    
C64   H60   1.083055 S    
C71   C79   1.435286 A    
C72   C80   1.433107 A    
C14   C118  1.451509 S    
C44   C84   1.415345 A    
C45   C85   1.415490 A    
C30   H6    1.113510 S    
Zn10  O22   1.933262 S    
C105  C113  1.409917 A    
C132  H76   1.082798 S    
C48   C88   1.421073 A    
C133  H69   1.080832 S    
O25   C8    1.277165 A    
Zn13  O29   1.929250 S    
C129  C141  1.388846 A    
C15   C119  1.452868 S    
Zn10  O2    1.949898 S    
C31   C40   1.551669 S    
O29   C12   1.273636 A    
C171  C175  1.416669 A    
Zn15  O33   1.929250 S    
C151  H83   1.080332 S    
C152  H84   1.076750 S    
C75   C87   1.418277 A    
C26   H2    1.112974 S    
C169  C170  1.403291 A    
C41   C81   1.414748 A    
O62   H102  0.991431 S    
C135  C139  1.388750 A    
O48   C23   1.274720 A    
C156  H88   1.078639 S    
C130  C142  1.388083 A    
C67   O59   1.381396 S    
C175  C179  1.396293 A    
O57   H97   0.990674 S    
C132  C144  1.384102 A    
C101  C125  1.419021 A    
O58   H98   0.990969 S    
C168  C172  1.412956 A    
Zn16  O35   1.930731 S    
C77   C93   1.423956 A    
C70   C78   1.433463 A    
C82   C114  1.413049 A    
Zn7   O10   1.932762 S    
O33   C16   1.293297 A    
C25   C37   1.553537 S    
C86   C118  1.414007 A    
C78   C82   1.417605 A    
O40   C20   1.271638 A    
C52   C64   1.384540 A    
C1    C91   1.450731 S    
C102  C106  1.408202 A    
H35   C143  1.082909 S    
C80   C96   1.425302 A    
Zn5   O17   1.934057 S    
H33   C141  1.082608 S    
H31   C139  1.082646 S    
C150  H82   1.082396 S    
C57   C65   1.407595 A    
C53   H49   1.082760 S    
C25   C27   1.536108 S    
C103  C107  1.409307 A    
C67   C75   1.433722 A    
C61   H57   1.083211 S    
C65   C73   1.432886 A    
C27   H3    1.113487 S    
C32   H8    1.113518 S    
Zn8   O3    1.942266 S    
C21   C37   1.491361 S    
O38   C18   1.269972 A    
C146  H78   1.080398 S    
H22   C34   1.112975 S    
O5    C1    1.275983 A    
C47   C55   1.386649 A    
O32   C9    1.277388 A    
C156  C163  1.418343 A    
H25   C35   1.112989 S    
C52   H48   1.082701 S    
H26   C36   1.113132 S    
C36   C40   1.551422 S    
Zn15  O51   1.947999 S    
C111  C151  1.416282 A    
Zn11  O28   1.931192 S    
H23   C34   1.113019 S    
C42   H38   1.082275 S    
C29   C39   1.551021 S    
C159  H91   1.082208 S    
H28   C35   1.113074 S    
C153  H85   1.080688 S    
O8    C4    1.278325 A    
C63   C71   1.407085 A    
C33   C34   1.546558 S    
C64   C72   1.407839 A    
C49   C61   1.384413 A    
C123  H63   1.082197 S    
O50   C18   1.270847 A    
O37   C17   1.271513 A    
C161  C165  1.411084 A    
C180  O55   1.382175 S    
C107  C115  1.410196 A    
C100  C112  1.423561 A    
Zn1   O1    1.948230 S    
C122  C130  1.392496 A    
C133  C137  1.388404 A    
Zn2   O14   1.931996 S    
C29   H5    1.113152 S    
C58   H54   1.083079 S    
C68   C76   1.426626 A    
C170  C174  1.415729 A    
C69   O61   1.381523 S    
C153  C157  1.393828 A    
O9    C5    1.276634 A    
C43   H39   1.081905 S    
O36   C13   1.275441 A    
C60   C68   1.402073 A    
O13   C9    1.275396 A    
Zn1   O8    1.931953 S    
C2    C92   1.503581 S    
Zn2   O7    1.934014 S    
Zn3   O6    1.932762 S    
O18   C14   1.276707 A    
O31   C10   1.276009 A    
C106  C146  1.415998 A    
C156  C160  1.392791 A    
C25   H9    1.113502 S    
C110  C150  1.417171 A    
C93   C101  1.416507 A    
C32   H16   1.113492 S    
C159  C160  1.387638 A    
O59   H99   0.990855 S    
C134  H70   1.082546 S    
C98   C122  1.419126 A    
C59   H55   1.083350 S    
Zn15  O3    1.949597 S    
C74   C90   1.424546 A    
Zn11  O3    1.951322 S    
O41   C21   1.275579 A    
C56   C60   1.382532 A    
Zn16  O34   1.931445 S    
C31   H15   1.113078 S    
C74   C86   1.417790 A    
C3    C89   1.451470 S    
Zn2   O2    1.948229 S    
C90   C98   1.414832 A    
Zn8   O20   1.932806 S    
C109  C117  1.409846 A    
C174  C178  1.407219 A    
O64   H104  0.991222 S    
C121  H61   1.081918 S    
C108  C148  1.416807 A    
C59   C67   1.407637 A    
C47   H43   1.082334 S    
C48   H44   1.072080 S    
C84   C116  1.413055 A    
C69   C77   1.432889 A    
C163  C164  1.404319 A    
C112  C152  1.420543 A    
Zn8   O9    1.935670 S    
C127  H67   1.081898 S    
C24   C40   1.491437 S    
C128  H68   1.080230 S    
C7    C93   1.451596 S    
C56   H52   1.083071 S    
C166  C170  1.413834 A    
C138  C146  1.392960 A    
O7    C3    1.278280 A    
C88   C120  1.436259 A    
C95   C103  1.417013 A    
C16   C120  1.509976 S    
O56   H96   0.990069 S    
O19   C15   1.275445 A    
Zn13  O49   1.947999 S    
C142  C150  1.393051 A    
C43   C83   1.415730 A    
O53   H93   0.990722 S    
C26   H10   1.113085 S    
C27   C38   1.554953 S    
C65   O57   1.381276 S    
Zn6   O18   1.931996 S    
H18   C174  1.081832 S    
Zn10  O23   1.929000 S    
C49   H45   1.082271 S    
C179  C180  1.406738 A    
C79   C83   1.418261 A    
C58   C66   1.407204 A    
C172  C176  1.417105 A    
Zn15  O36   1.933515 S    
O15   C11   1.275653 A    
O42   C22   1.278830 A    
C97   C109  1.408864 A    
C28   C37   1.551462 S    
C46   H42   1.082337 S    
Zn4   O1    1.942266 S    
C30   C32   1.536000 S    
Zn9   O37   1.947243 S    
C35   C36   1.546756 S    
O12   C8    1.277177 A    
C53   C57   1.384812 A    
Zn11  O39   1.947243 S    
C46   C54   1.386894 A    
C154  C161  1.417649 A    
C60   H56   1.083055 S    
H21   C33   1.113086 S    
Zn5   O3    1.948230 S    
Zn13  O1    1.949597 S    
C13   C117  1.452981 S    
C163  C167  1.413191 A    
C54   H50   1.081964 S    
C164  C168  1.412298 A    
C121  C129  1.393670 A    
C139  C147  1.392690 A    
C8    C94   1.449197 S    
C10   C114  1.451276 S    
C161  C162  1.405646 A    
H19   C175  1.081696 S    
C129  H73   1.082554 S    
H24   C33   1.112983 S    
C155  C159  1.392526 A    
Zn9   O24   1.931192 S    
C178  O53   1.381360 S    
O28   C5    1.273984 A    
C147  H79   1.082077 S    
Zn3   O42   1.948633 S    
C165  C169  1.411927 A    
C23   C39   1.491850 S    
Zn7   O4    1.942267 S    
O21   C4    1.275699 A    
C50   C62   1.384424 A    
C44   C52   1.386412 A    
H32   C140  1.082811 S    
C45   C53   1.386729 A    
C105  C145  1.417968 A    
C143  C151  1.392866 A    
C145  H77   1.082137 S    
O54   H94   0.989829 S    
C48   C56   1.389299 A    
C102  C126  1.419484 A    
C177  C178  1.408517 A    
Zn14  O2    1.951021 S    
C78   C94   1.425582 A    
C112  C120  1.429598 A    
C83   C115  1.415147 A    
C157  C158  1.390071 A    
C28   H12   1.113094 S    
C81   C113  1.414307 A    
Zn12  O27   1.929000 S    
C35   C39   1.550894 S    
C85   C117  1.413817 A    
C46   C86   1.415155 A    
C61   C69   1.407198 A    
C30   C40   1.553431 S    
Zn3   O2    1.942267 S    
C127  C135  1.393456 A    
H27   C36   1.112974 S    
C177  O54   1.381631 S    
O10   C6    1.273658 A    
C17   C166  1.439196 S    
O46   C24   1.275720 A    
O47   C24   1.277437 A    
Zn16  O52   1.947284 S    
C100  C124  1.419556 A    
H30   C138  1.082719 S    
C104  C108  1.407519 A    
Zn8   O45   1.948634 S    
C41   C49   1.386904 A    
C124  H64   1.076515 S    
O27   C6    1.276813 A    
C47   C87   1.415379 A    
C125  H65   1.081997 S    
O39   C19   1.269599 A    
C131  C143  1.388945 A    
C29   C31   1.546778 S    
C160  H92   1.081892 S    
C131  H75   1.082103 S    
C68   O60   1.383170 S    
C73   C85   1.417761 A    
O24   C1    1.274601 A    
C76   C88   1.426873 A    
C77   C81   1.416963 A    
C79   C95   1.425214 A    
C80   C84   1.417423 A    
O43   C22   1.274587 A    
H17   C173  1.082687 S    
Zn4   O41   1.948634 S    
Zn3   O15   1.935714 S    
Zn5   O12   1.931953 S    
Zn6   O11   1.934014 S    
C101  C105  1.409826 A    
Zn6   O4    1.948229 S    
C126  H66   1.082208 S    
Zn9   O21   1.930482 S    
Zn14  O50   1.947284 S    
C135  H71   1.082508 S    
O35   C14   1.277295 A    
Zn12  O40   1.947957 S    
Zn9   O1    1.951322 S    
H20   C176  1.081220 S    
H36   C144  1.082802 S    
O52   C20   1.270723 A    
C55   C59   1.384278 A    
C126  C134  1.393747 A    
C29   H13   1.113014 S    
C158  H90   1.082795 S    
O44   C21   1.277543 A    
O22   C3    1.275315 A    
C140  C148  1.392897 A    
Zn7   O19   1.935714 S    
C50   H46   1.082590 S    
C111  C119  1.409594 A    
C12   C116  1.449506 S    
Zn13  O32   1.933515 S    
C144  C152  1.390728 A    
O49   C17   1.270591 A    
Zn14  O31   1.930731 S    
C179  O56   1.380145 S    
C123  C131  1.393931 A    
O63   H103  0.991950 S    
C134  C138  1.389224 A    
O51   C19   1.271458 A    
C106  C114  1.409392 A    
C27   H11   1.113520 S    
Zn4   O5    1.935670 S    
C103  C127  1.419805 A    
O20   C16   1.287313 A    
C169  C173  1.415375 A    
C5    C95   1.450624 S    
C26   C38   1.550867 S    
O23   C2    1.291638 A    
O6    C2    1.284992 A    
Zn11  O25   1.930482 S    
Zn10  O38   1.947957 S    
C155  H87   1.078782 S    
C124  C132  1.390409 A    
C54   C58   1.384690 A    
O14   C10   1.277702 A    
C128  C136  1.393744 A    
C155  C164  1.418241 A    
C107  C147  1.418361 A    
O55   H95   0.991807 S    
O17   C13   1.277352 A    
C62   H58   1.083019 S    
C51   H47   1.082244 S    
O45   C23   1.278649 A    
