data_mof_unit_18308.cif
_audit_creation_date              2013-03-05T16:35:53-0500
_audit_creation_method            fapswitch 2.2
_symmetry_space_group_name_H-M    P1
_symmetry_Int_Tables_number       1
_space_group_crystal_system       triclinic
_cell_length_a                    23.613802
_cell_length_b                    9.091819
_cell_length_c                    7.777141
_cell_angle_alpha                 90.051612
_cell_angle_beta                  89.989535
_cell_angle_gamma                 90.07892
_cell_volume                      1669.69088404

loop_
_atom_site_label
_atom_site_type_symbol
_atom_site_description
_atom_site_fract_x
_atom_site_fract_y
_atom_site_fract_z
_atom_type_partial_charge
O1    O     O_R   0.500000 0.288390 0.642760 -0.552143
O2    O     O_R   0.500000 0.711610 0.357240 -0.588948
O3    O     O_R   0.500000 0.711610 0.642760 -0.552184
O4    O     O_R   0.500000 0.288390 0.357240 -0.589671
H1    H     H_    0.948825 0.130497 0.464134 0.185868
H2    H     H_    0.051875 0.869834 0.559909 0.185487
H3    H     H_    0.948981 0.870175 0.552388 0.185761
H4    H     H_    0.051706 0.131366 0.455879 0.185605
C1    C     C_R   0.500084 0.219990 0.499944 0.875838
C2    C     C_R   0.499967 0.780009 0.500045 0.864113
O5    O     O_R   0.417880 0.500000 0.642820 -0.550573
O6    O     O_R   0.582120 0.500000 0.357180 -0.605495
O7    O     O_R   0.582120 0.500000 0.642820 -0.547134
O8    O     O_R   0.417880 0.500000 0.357180 -0.600762
C3    C     C_R   0.208951 0.501076 0.505107 0.292877
C4    C     C_R   0.791622 0.500149 0.505225 0.291252
C5    C     C_R   0.390767 0.499865 0.500006 0.822643
C6    C     C_R   0.609356 0.500226 0.499963 0.815250
Cu1   Cu    Cu3+1 0.500000 0.500000 0.669080 1.078609
Cu2   Cu    Cu3+1 0.500000 0.500000 0.330920 1.024964
H5    H     H_    0.214586 0.656934 0.299582 0.194478
H6    H     H_    0.786158 0.372612 0.274129 0.194275
H7    H     H_    0.215626 0.344820 0.710455 0.156918
H8    H     H_    0.784372 0.628160 0.736068 0.156820
C7    C     C_R   0.297776 0.592746 0.387005 -0.093207
C8    C     C_R   0.702928 0.422456 0.372854 -0.088771
C9    C     C_R   0.297996 0.405782 0.615133 -0.039626
C10   C     C_R   0.702317 0.580739 0.629064 -0.034973
C11   C     C_R   0.328267 0.498882 0.500146 -0.133295
C12   C     C_R   0.672067 0.501658 0.500119 -0.137782
C13   C     C_R   0.881364 0.631470 0.516295 0.544090
C14   C     C_R   0.119376 0.370804 0.484151 0.545558
C15   C     C_R   0.881298 0.368977 0.499072 0.541615
C16   C     C_R   0.119470 0.630860 0.529773 0.542175
N1    N     N_R   0.852680 0.500179 0.507207 -0.462423
N2    N     N_R   0.147986 0.500932 0.506523 -0.463294
C17   C     C_R   0.940669 0.366818 0.494389 -0.012449
C18   C     C_R   0.060086 0.633676 0.527394 -0.012336
C19   C     C_R   0.940728 0.633829 0.521936 -0.013735
C20   C     C_R   0.060012 0.367604 0.488065 -0.014152
C21   C     C_R   0.970497 0.500392 0.508197 -0.018249
C22   C     C_R   0.030255 0.500551 0.507980 -0.018218
C23   C     C_R   0.970783 0.234537 0.476482 -0.157939
C24   C     C_R   0.029951 0.766018 0.544379 -0.158470
C25   C     C_R   0.970899 0.766237 0.539985 -0.159703
C26   C     C_R   0.029828 0.235068 0.471643 -0.160261
C27   C     C_1   0.500041 0.065366 0.499924 -0.124862
C28   C     C_1   0.499998 0.934631 0.500063 -0.129274
C29   C     C_R   0.238438 0.588672 0.387714 -0.063091
C30   C     C_R   0.762239 0.428429 0.373527 -0.069961
C31   C     C_R   0.238908 0.412692 0.620185 -0.164340
C32   C     C_R   0.761372 0.572564 0.634306 -0.155778
N3    N     N_1   0.500000 0.500000 0.076820 -0.041010
N4    N     N_1   0.500000 0.500000 0.923180 -0.030190
O9    O     O_2   0.852610 0.759657 0.517640 -0.513955
O10   O     O_2   0.148258 0.245002 0.456373 -0.514290
O11   O     O_2   0.852452 0.240727 0.497251 -0.510130
O12   O     O_2   0.148467 0.756824 0.556633 -0.511918
C33   C     C_2   0.326573 0.701210 0.273319 0.418364
H9    H     H_    0.370252 0.732625 0.295294 0.077814
O13   O     O_2   0.301345 0.759272 0.154319 -0.518721
C34   C     C_2   0.674862 0.325864 0.243804 0.413884
H10   H     H_    0.632476 0.283948 0.265119 0.085950
O14   O     O_2   0.699456 0.288891 0.112504 -0.528294
C35   C     C_2   0.325260 0.294649 0.727714 0.422824
H11   H     H_    0.304153 0.259947 0.844932 0.084713
O15   O     O_2   0.369432 0.234407 0.686967 -0.533120
C36   C     C_2   0.675139 0.679315 0.756874 0.435704
H12   H     H_    0.694533 0.694461 0.882239 0.078518
O16   O     O_2   0.633321 0.751713 0.720548 -0.527239

loop_
_geom_bond_atom_site_label_1
_geom_bond_atom_site_label_2
_geom_bond_distance
_ccdc_geom_bond_type
H8    C32   1.084195 S    
C20   C26   1.404907 A    
C10   C12   1.424926 A    
C18   C24   1.404861 A    
C34   H10   1.083285 S    
C9    C35   1.485131 S    
C3    C31   1.396506 A    
C9    C11   1.423601 A    
C5    C11   1.475863 S    
C21   C22   1.411120 A    
H7    C31   1.084263 S    
Cu1   Cu2   2.629919 S    
H6    C30   1.083543 S    
C19   C25   1.404948 A    
O6    Cu2   1.949927 S    
H5    C29   1.083558 S    
C34   O14   1.221767 D    
C8    C34   1.488217 S    
C33   H9    1.083426 S    
C19   C21   1.406938 A    
O3    C2    1.272740 A    
H2    C24   1.082578 S    
N3    N4    1.194881 T    
H3    C25   1.082284 S    
C3    C29   1.397213 A    
O3    Cu1   1.934962 S    
C10   C32   1.397194 A    
O8    C5    1.281984 A    
O5    Cu1   1.949930 S    
C4    C32   1.396902 A    
C8    C12   1.424472 A    
O7    C6    1.283645 A    
H1    C23   1.082283 S    
C6    C12   1.480880 S    
C14   N2    1.372556 A    
Cu1   N4    1.976171 S    
C20   C22   1.407385 A    
C15   N1    1.373208 A    
C9    C31   1.397327 A    
C15   C17   1.402607 A    
C18   C22   1.407590 A    
C16   N2    1.372340 A    
C8    C30   1.401549 A    
C4    N1    1.441892 S    
C2    C28   1.405793 S    
C4    C30   1.397666 A    
C23   C26   1.394763 A    
C13   N1    1.373423 A    
C17   C23   1.404822 A    
C33   O13   1.221488 D    
C1    C27   1.405815 S    
O1    Cu1   1.934596 S    
O7    Cu1   1.949853 S    
O2    Cu2   1.934595 S    
O4    Cu2   1.934963 S    
O8    Cu2   1.949855 S    
C3    N2    1.439640 S    
C14   C20   1.402387 A    
O1    C1    1.272455 A    
C24   C25   1.394871 A    
C7    C11   1.422751 A    
C36   O16   1.220838 D    
C35   H11   1.085786 S    
O6    C6    1.283347 A    
C16   O12   1.349637 S    
C36   H12   1.085825 S    
C15   O11   1.349657 S    
C7    C33   1.488651 S    
H4    C26   1.082583 S    
C13   O9    1.349653 S    
O4    C1    1.272678 A    
C16   C18   1.402688 A    
C17   C21   1.407092 A    
C14   O10   1.349691 S    
O5    C5    1.282105 A    
C27   C28   1.188623 T    
C10   C36   1.484216 S    
C13   C19   1.402626 A    
Cu2   N3    1.976171 S    
C35   O15   1.220459 D    
C7    C29   1.401644 A    
O2    C2    1.272380 A    
