data_mof_unit_11715.cif
_audit_creation_date              2012-12-11T14:03:55-0500
_audit_creation_method            fapswitch 2.2
_symmetry_space_group_name_H-M    P1
_symmetry_Int_Tables_number       1
_space_group_crystal_system       triclinic
_cell_length_a                    19.111649
_cell_length_b                    10.937785
_cell_length_c                    18.833325
_cell_angle_alpha                 89.873262
_cell_angle_beta                  88.791724
_cell_angle_gamma                 90.194153
_cell_volume                      3935.99321224

loop_
_atom_site_label
_atom_site_type_symbol
_atom_type_description
_atom_site_fract_x
_atom_site_fract_y
_atom_site_fract_z
_atom_type_partial_charge
C1    C     C_R   0.240793 0.466379 0.647223 0.539680
C2    C     C_R   0.759389 0.466392 0.352872 0.540948
C3    C     C_R   0.740795 0.966371 0.647226 0.538694
C4    C     C_R   0.259387 0.966384 0.352867 0.540740
C5    C     C_2   0.276110 0.819164 0.531880 -0.156620
C6    C     C_2   0.727763 0.815054 0.468882 -0.157571
C7    C     C_2   0.776128 0.319212 0.531897 -0.156108
C8    C     C_2   0.227755 0.315071 0.468877 -0.157607
C9    C     C_R   0.958305 0.651877 0.439065 -0.038398
C10   C     C_R   0.040507 0.658325 0.561538 -0.036899
C11   C     C_R   0.458309 0.151879 0.439064 -0.038288
C12   C     C_R   0.540515 0.158326 0.561536 -0.036720
C13   C     C_R   0.929925 0.866528 0.459278 -0.085112
C14   C     C_R   0.033451 0.886047 0.557752 -0.093002
C15   C     C_R   0.429932 0.366532 0.459276 -0.085011
C16   C     C_R   0.533463 0.386048 0.557746 -0.092838
C17   C     C_R   0.941894 0.978598 0.491329 -0.122160
C18   C     C_R   0.995784 0.989365 0.538904 -0.124442
C19   C     C_R   0.441905 0.478602 0.491325 -0.122085
C20   C     C_R   0.495798 0.489367 0.538898 -0.124322
C21   C     C_R   0.015634 0.768948 0.531807 0.014925
C22   C     C_R   0.969169 0.762974 0.475005 0.007066
C23   C     C_R   0.515643 0.268950 0.531803 0.015130
C24   C     C_R   0.469176 0.262976 0.475002 0.007215
C25   C     C_R   0.028585 0.546628 0.525480 0.017833
C26   C     C_R   0.979850 0.541806 0.471369 0.029472
C27   C     C_R   0.528594 0.046630 0.525477 0.017968
C28   C     C_R   0.479856 0.041807 0.471368 0.029720
C29   C     C_R   0.063292 0.437751 0.543270 -0.076483
C30   C     C_R   0.955272 0.425772 0.449820 -0.072884
C31   C     C_R   0.563302 0.937755 0.543265 -0.076396
C32   C     C_R   0.455278 0.925773 0.449820 -0.072662
C33   C     C_R   0.044015 0.325277 0.515349 -0.112249
C34   C     C_R   0.987993 0.318806 0.470362 -0.119189
C35   C     C_R   0.544027 0.825281 0.515342 -0.112109
C36   C     C_R   0.488003 0.818808 0.470358 -0.119076
C37   C     C_2   0.231555 0.879632 0.930823 0.030953
C38   C     C_2   0.771429 0.873790 0.067924 0.037927
C39   C     C_2   0.731971 0.388429 0.929877 0.030488
C40   C     C_2   0.270330 0.376403 0.068614 0.034701
C41   C     C_2   0.244646 0.885735 0.091429 -0.113965
C42   C     C_2   0.755055 0.880078 0.907169 -0.122151
C43   C     C_2   0.746190 0.389173 0.089489 -0.127184
C44   C     C_2   0.255170 0.383501 0.908247 -0.117817
C45   C     C_R   0.227065 0.872817 0.646905 0.547938
C46   C     C_R   0.772191 0.874009 0.352546 0.539778
C47   C     C_R   0.727078 0.372850 0.646920 0.543286
C48   C     C_R   0.272190 0.374013 0.352543 0.539744
C49   C     C_2   0.187704 0.908345 0.053835 -0.162858
C50   C     C_2   0.813554 0.894959 0.943640 -0.162716
C51   C     C_2   0.687934 0.409519 0.053570 -0.167631
C52   C     C_2   0.313120 0.402861 0.945024 -0.160939
C53   C     C_2   0.181447 0.865048 0.981564 -0.160347
C54   C     C_2   0.818800 0.848469 0.015892 -0.151883
C55   C     C_2   0.682001 0.370613 0.980469 -0.166143
C56   C     C_2   0.319323 0.358009 0.017282 -0.159965
C57   C     C_2   0.009628 0.655352 0.926399 -0.117935
C58   C     C_2   0.009659 0.664169 0.082756 -0.120669
C59   C     C_2   0.510107 0.155336 0.926614 -0.115465
C60   C     C_2   0.510086 0.164569 0.082966 -0.119922
C61   C     C_2   0.021913 0.563661 0.044691 -0.176973
C62   C     C_2   0.035681 0.568395 0.968963 -0.166304
C63   C     C_2   0.523316 0.064300 0.045036 -0.175531
C64   C     C_2   0.537047 0.069272 0.969240 -0.167380
C65   C     C_R   0.061297 0.651327 0.636938 0.540403
C66   C     C_R   0.938257 0.649693 0.363082 0.538958
C67   C     C_R   0.561300 0.151327 0.636938 0.541175
C68   C     C_R   0.438258 0.149694 0.363083 0.538868
C69   C     C_R   0.239529 0.461433 0.848401 0.548537
C70   C     C_R   0.760572 0.462079 0.151438 0.550368
C71   C     C_R   0.739573 0.960833 0.848225 0.545511
C72   C     C_R   0.260377 0.961822 0.151691 0.549929
C73   C     C_R   0.212937 0.837967 0.861122 0.559091
C74   C     C_R   0.788873 0.833768 0.138667 0.559734
C75   C     C_R   0.714231 0.342097 0.860935 0.566651
C76   C     C_R   0.288294 0.335136 0.138737 0.559299
C77   C     C_R   0.030867 0.651565 0.852292 0.554222
C78   C     C_R   0.972332 0.652984 0.150034 0.561056
C79   C     C_R   0.530976 0.151554 0.852376 0.559236
C80   C     C_R   0.472385 0.153028 0.150058 0.561648
C81   C     C_2   0.247425 0.905569 0.574555 -0.107848
C82   C     C_2   0.751309 0.905292 0.425077 -0.115116
C83   C     C_2   0.747445 0.405616 0.574574 -0.108230
C84   C     C_2   0.251305 0.405304 0.425071 -0.115202
C85   C     C_2   0.240678 0.908404 0.420160 -0.110551
C86   C     C_2   0.760204 0.910940 0.579558 -0.112397
C87   C     C_2   0.740687 0.408441 0.420176 -0.110545
C88   C     C_2   0.260198 0.410957 0.579551 -0.111596
C89   C     C_2   0.284052 0.835723 0.454878 -0.180088
C90   C     C_2   0.720504 0.830579 0.546158 -0.185530
C91   C     C_2   0.784061 0.335760 0.454894 -0.180221
C92   C     C_2   0.220496 0.330599 0.546152 -0.185038
Cr1   Cr    Cr6+3 0.113970 0.508630 0.747920 1.006637
Cr2   Cr    Cr6+3 0.886030 0.508630 0.252080 1.005542
Cr3   Cr    Cr6+3 0.613970 0.008630 0.747920 1.006865
Cr4   Cr    Cr6+3 0.386030 0.008630 0.252080 1.006233
Cr5   Cr    Cr6+3 0.269200 0.666740 0.749850 1.017727
Cr6   Cr    Cr6+3 0.730800 0.666740 0.250150 1.019334
Cr7   Cr    Cr6+3 0.769200 0.166740 0.749850 1.015958
Cr8   Cr    Cr6+3 0.230800 0.166740 0.250150 1.017533
Cr9   Cr    Cr6+3 0.112300 0.820070 0.749800 1.009369
Cr10  Cr    Cr6+3 0.887700 0.820070 0.250200 1.017563
Cr11  Cr    Cr6+3 0.612300 0.320070 0.749800 1.008269
Cr12  Cr    Cr6+3 0.387700 0.320070 0.250200 1.017414
H1    H     H_    0.326156 0.788685 0.427019 0.126494
H2    H     H_    0.680942 0.778655 0.575343 0.127993
H3    H     H_    0.826155 0.288700 0.427030 0.126511
H4    H     H_    0.180936 0.278673 0.575337 0.128378
H5    H     H_    0.130609 0.827958 0.967765 0.118543
H6    H     H_    0.867176 0.802071 0.028821 0.105460
H7    H     H_    0.632284 0.328814 0.966852 0.121127
H8    H     H_    0.369092 0.316619 0.030539 0.107426
H9    H     H_    0.283435 0.820069 0.073554 0.100221
H10   H     H_    0.714924 0.816151 0.925438 0.104079
H11   H     H_    0.787857 0.332789 0.067169 0.104765
H12   H     H_    0.215697 0.318601 0.926650 0.099450
H13   H     H_    0.017802 0.473135 0.068339 0.156765
H14   H     H_    0.065928 0.492622 0.947341 0.157287
H15   H     H_    0.519720 0.973782 0.068762 0.156752
H16   H     H_    0.567841 0.994218 0.947557 0.156581
H17   H     H_    0.017352 0.754767 0.060062 0.097256
H18   H     H_    0.979679 0.732354 0.946668 0.085819
H19   H     H_    0.517300 0.255237 0.060212 0.096527
H20   H     H_    0.479606 0.231690 0.946874 0.085149
H21   H     H_    0.293633 0.732553 0.553455 0.153777
H22   H     H_    0.714131 0.725801 0.447954 0.155580
H23   H     H_    0.793649 0.232598 0.553469 0.154129
H24   H     H_    0.214120 0.225818 0.447949 0.155688
H25   H     H_    0.192986 0.940648 0.446361 0.114939
H26   H     H_    0.805619 0.950091 0.552298 0.118252
H27   H     H_    0.693003 0.440706 0.446382 0.114965
H28   H     H_    0.305613 0.450109 0.552290 0.118083
H29   H     H_    0.230142 0.992888 0.553880 0.092954
H30   H     H_    0.765111 0.995084 0.444949 0.092817
H31   H     H_    0.730164 0.492938 0.553903 0.092751
H32   H     H_    0.265110 0.495096 0.444941 0.092694
H33   H     H_    0.908888 0.055904 0.479661 0.097553
H34   H     H_    0.006784 0.076302 0.563334 0.110041
H35   H     H_    0.408900 0.555909 0.479657 0.097542
H36   H     H_    0.506800 0.576304 0.563326 0.110034
H37   H     H_    0.885948 0.856122 0.427379 0.153206
H38   H     H_    0.076277 0.899801 0.592209 0.168134
H39   H     H_    0.385952 0.356128 0.427379 0.153237
H40   H     H_    0.576288 0.399798 0.592204 0.168331
H41   H     H_    0.912034 0.417443 0.415027 0.152360
H42   H     H_    0.105592 0.440116 0.578786 0.157281
H43   H     H_    0.412035 0.917444 0.415032 0.152323
H44   H     H_    0.605603 0.940122 0.578780 0.157266
H45   H     H_    0.071714 0.243254 0.529539 0.096272
H46   H     H_    0.971177 0.231922 0.449542 0.105898
H47   H     H_    0.571728 0.743259 0.529528 0.096188
H48   H     H_    0.471188 0.731925 0.449538 0.105819
H49   H     H_    0.146247 0.967477 0.073832 0.159303
H50   H     H_    0.856200 0.952112 0.923628 0.156892
H51   H     H_    0.644333 0.460400 0.076535 0.162596
H52   H     H_    0.355167 0.460997 0.924652 0.159153
O1    O     O_R   0.043230 0.549300 0.667990 -0.506412
O2    O     O_R   0.956770 0.549300 0.332010 -0.512324
O3    O     O_R   0.543230 0.049300 0.667990 -0.505255
O4    O     O_R   0.456770 0.049300 0.332010 -0.512501
O5    O     O_R   0.262920 0.788600 0.824420 -0.503223
O6    O     O_R   0.737080 0.788600 0.175580 -0.501388
O7    O     O_R   0.762920 0.288600 0.824420 -0.498296
O8    O     O_R   0.237080 0.288600 0.175580 -0.503225
O9    O     O_R   0.167530 0.905110 0.830340 -0.506248
O10   O     O_R   0.832470 0.905110 0.169660 -0.506576
O11   O     O_R   0.667530 0.405110 0.830340 -0.511117
O12   O     O_R   0.332470 0.405110 0.169660 -0.506209
O13   O     O_R   0.054010 0.748440 0.822860 -0.501992
O14   O     O_R   0.945990 0.748440 0.177140 -0.507615
O15   O     O_R   0.554010 0.248440 0.822860 -0.500388
O16   O     O_R   0.445990 0.248440 0.177140 -0.507684
O17   O     O_3   0.165160 0.665150 0.749190 -0.279986
O18   O     O_3   0.834840 0.665150 0.250810 -0.283970
O19   O     O_3   0.665160 0.165150 0.749190 -0.278378
O20   O     O_3   0.334840 0.165150 0.250810 -0.282798
O21   O     O_R   0.178620 0.457600 0.674100 -0.528143
O22   O     O_R   0.821380 0.457600 0.325900 -0.525915
O23   O     O_R   0.678620 0.957600 0.674100 -0.528621
O24   O     O_R   0.321380 0.957600 0.325900 -0.526273
O25   O     O_R   0.284680 0.542100 0.669460 -0.515362
O26   O     O_R   0.715320 0.542100 0.330540 -0.515890
O27   O     O_R   0.784680 0.042100 0.669460 -0.515359
O28   O     O_R   0.215320 0.042100 0.330540 -0.515658
O29   O     O_R   0.262860 0.790390 0.676650 -0.487007
O30   O     O_R   0.737140 0.790390 0.323350 -0.485336
O31   O     O_R   0.762860 0.290390 0.676650 -0.489152
O32   O     O_R   0.237140 0.290390 0.323350 -0.485151
O33   O     O_R   0.167460 0.907030 0.670940 -0.543348
O34   O     O_R   0.832540 0.907030 0.329060 -0.536089
O35   O     O_R   0.667460 0.407030 0.670940 -0.544420
O36   O     O_R   0.332540 0.407030 0.329060 -0.536200
O37   O     O_R   0.053950 0.750220 0.675100 -0.500564
O38   O     O_R   0.946050 0.750220 0.324900 -0.488466
O39   O     O_R   0.553950 0.250220 0.675100 -0.499646
O40   O     O_R   0.446050 0.250220 0.324900 -0.488577
O41   O     O_R   0.043300 0.547370 0.827390 -0.506478
O42   O     O_R   0.956700 0.547370 0.172610 -0.506814
O43   O     O_R   0.543300 0.047370 0.827390 -0.506357
O44   O     O_R   0.456700 0.047370 0.172610 -0.505784
O45   O     O_R   0.178690 0.455820 0.821860 -0.505100
O46   O     O_R   0.821310 0.455820 0.178140 -0.500526
O47   O     O_R   0.678690 0.955820 0.821860 -0.505862
O48   O     O_R   0.321310 0.955820 0.178140 -0.499203
O49   O     O_R   0.284750 0.540170 0.828860 -0.516601
O50   O     O_R   0.715250 0.540170 0.171140 -0.515396
O51   O     O_R   0.784750 0.040170 0.828860 -0.515076
O52   O     O_R   0.215250 0.040170 0.171140 -0.519180
C93   C     C_3   0.302261 0.942637 0.939678 -0.254268
C94   C     C_3   0.294358 0.079408 0.951775 -0.421190
H53   H     H_    0.265901 0.120470 0.906899 0.164528
H54   H     H_    0.265720 0.098867 0.002268 0.165191
H55   H     H_    0.347069 0.121974 0.954039 0.140846
H56   H     H_    0.333533 0.900686 0.981854 0.134667
H57   H     H_    0.334974 0.932135 0.890609 0.167804
C95   C     C_3   0.705839 0.951068 0.059513 -0.252697
C96   C     C_3   0.723609 0.085256 0.046667 -0.424957
H58   H     H_    0.758150 0.118940 0.089118 0.167146
H59   H     H_    0.749835 0.099380 0.994218 0.164445
H60   H     H_    0.674597 0.139235 0.048108 0.151612
H61   H     H_    0.671709 0.915724 0.017563 0.125000
H62   H     H_    0.673098 0.947080 0.108949 0.165047
C97   C     C_3   0.799758 0.460597 0.938778 -0.270129
C98   C     C_3   0.810508 0.556992 0.880574 -0.403427
H63   H     H_    0.820680 0.513135 0.828280 0.180173
H64   H     H_    0.763538 0.615982 0.877190 0.161518
H65   H     H_    0.856307 0.615294 0.893014 0.136832
H66   H     H_    0.800629 0.510924 0.989661 0.152977
H67   H     H_    0.844668 0.396365 0.937329 0.147464
C99   C     C_3   0.202841 0.448629 0.060457 -0.254005
C100  C     C_3   0.217760 0.584297 0.050312 -0.424580
H68   H     H_    0.250190 0.617564 0.094528 0.165639
H69   H     H_    0.245296 0.602497 0.998942 0.164113
H70   H     H_    0.167713 0.635226 0.051189 0.152555
H71   H     H_    0.170058 0.413290 0.017472 0.124028
H72   H     H_    0.169497 0.439905 0.109272 0.165202

loop_
_geom_bond_atom_site_label_1
_geom_bond_atom_site_label_2
_ccdc_geom_bond_type
C70   O46   A    
C7    C83   D    
C14   H38   S    
Cr10  O14   S    
Cr1   O17   S    
C6    C82   D    
C87   C91   D    
C14   C18   A    
Cr9   O17   S    
C35   C36   A    
C74   O10   A    
C43   C51   D    
C98   H63   S    
Cr7   O31   S    
Cr8   O52   S    
C57   C62   D    
Cr12  O20   S    
C32   H43   S    
C96   H60   S    
Cr11  O11   S    
C75   O11   A    
C12   C23   A    
C51   H51   S    
C59   C64   D    
C93   H57   S    
C35   H47   S    
C60   C63   D    
Cr3   O3    S    
C32   C36   A    
C14   C21   A    
C49   H49   S    
C16   H40   S    
C46   O34   A    
C15   C19   A    
Cr9   O33   S    
C2    O26   A    
Cr6   O18   S    
C9    C22   A    
Cr5   O29   S    
Cr3   O47   S    
C80   O44   A    
C29   C33   A    
C11   C24   A    
C78   O14   A    
C63   H15   S    
C54   H6    S    
C37   C93   S    
C75   O7    A    
Cr2   O22   S    
C79   O15   A    
C18   H34   S    
C3    O23   A    
C9    C66   S    
Cr3   O19   S    
C43   H11   S    
C57   H18   S    
C46   C82   S    
C52   C56   S    
C1    O21   A    
C92   H4    S    
C39   C55   D    
C88   C92   D    
Cr9   O37   S    
C43   C70   S    
C40   C56   D    
C84   H32   S    
C17   C18   A    
Cr8   O20   S    
C73   O5    A    
C23   C24   A    
C99   H72   S    
C8    C92   S    
C39   C75   S    
Cr1   O45   S    
C96   H59   S    
Cr7   O27   S    
C72   O48   A    
C37   C53   D    
C44   C52   D    
C58   C61   D    
C71   O51   A    
Cr10  O10   S    
C21   C22   A    
C3    C86   S    
Cr11  O15   S    
Cr8   O32   S    
C39   C97   S    
C61   C62   S    
Cr11  O39   S    
C4    O24   A    
C67   O39   A    
Cr10  O38   S    
C41   C49   D    
Cr6   O6    S    
C8    H24   S    
C9    C26   A    
Cr4   O48   S    
C65   O37   A    
C10   C21   A    
C25   C29   A    
C69   O45   A    
Cr1   O1    S    
C12   C67   S    
C45   C81   S    
C79   O43   A    
C30   C34   A    
C12   C27   A    
C27   C31   A    
C57   C77   S    
C99   H71   S    
C33   C34   A    
C95   C96   S    
C6    H22   S    
C97   C98   S    
C72   O52   A    
C86   C90   D    
C59   C79   S    
C29   H42   S    
C74   O6    A    
Cr1   O21   S    
C97   H66   S    
C86   H26   S    
C4    C85   S    
C51   C55   S    
C96   H58   S    
C6    C90   S    
C61   H13   S    
Cr4   O24   S    
C40   C76   S    
C48   O36   A    
Cr7   O51   S    
Cr2   O42   S    
C88   H28   S    
C81   H29   S    
C82   H30   S    
C60   H19   S    
C71   O47   A    
C42   H10   S    
Cr8   O8    S    
C15   H39   S    
C97   H67   S    
C85   H25   S    
Cr12  O12   S    
C5    C81   D    
C38   C54   D    
C28   C32   A    
C16   C20   A    
C7    C91   S    
Cr11  O19   S    
C93   C94   S    
Cr12  O40   S    
C2    C87   S    
C68   O40   A    
C48   O32   A    
C50   C54   S    
C46   O30   A    
C85   C89   D    
Cr9   O13   S    
C90   H2    S    
C87   H27   S    
C42   C50   D    
C41   C72   S    
Cr2   O46   S    
C31   H44   S    
C50   H50   S    
C10   C25   A    
C65   O1    A    
C15   C24   A    
Cr4   O4    S    
C73   O9    A    
Cr2   O18   S    
C26   C30   A    
C16   C23   A    
C94   H54   S    
C100  H69   S    
Cr7   O7    S    
C76   O8    A    
Cr11  O35   S    
C80   O16   A    
C52   H52   S    
C47   O31   A    
C68   O4    A    
C98   H65   S    
Cr12  O16   S    
C66   O2    A    
C11   C68   S    
C30   H41   S    
C38   C74   S    
C10   C65   S    
Cr3   O23   S    
C59   H20   S    
Cr4   O44   S    
C77   O13   A    
C37   C73   S    
C60   C80   S    
C58   H17   S    
C1    O25   A    
Cr4   O20   S    
C55   H7    S    
C8    C84   D    
C83   H31   S    
C13   H37   S    
C36   H48   S    
C38   C95   S    
C47   C83   S    
C98   H64   S    
Cr2   O2    S    
C67   O3    A    
Cr5   O25   S    
Cr10  O18   S    
Cr6   O26   S    
C70   O50   A    
C94   H55   S    
C2    O22   A    
C69   O49   A    
C93   H56   S    
C64   H16   S    
C13   C17   A    
C3    O27   A    
Cr5   O49   S    
C89   H1    S    
C20   H36   S    
C19   C20   A    
C17   H33   S    
C25   C26   A    
Cr6   O30   S    
C33   H45   S    
Cr9   O9    S    
C45   O29   A    
C77   O41   A    
C11   C28   A    
C1    C88   S    
C49   C53   S    
Cr1   O41   S    
C41   H9    S    
C42   C71   S    
Cr10  O34   S    
C95   H61   S    
C13   C22   A    
C76   O12   A    
C100  H70   S    
C31   C35   A    
C34   H46   S    
C47   O35   A    
C99   C100  S    
Cr8   O28   S    
C95   H62   S    
C62   H14   S    
Cr5   O17   S    
C58   C78   S    
C63   C64   S    
C48   C84   S    
Cr7   O19   S    
C44   H12   S    
Cr3   O43   S    
C94   H53   S    
C5    H21   S    
C100  H68   S    
C45   O33   A    
C44   C69   S    
Cr6   O50   S    
C53   H5    S    
C78   O42   A    
C7    H23   S    
C66   O38   A    
C40   C99   S    
C56   H8    S    
C19   H35   S    
C5    C89   S    
C4    O28   A    
Cr5   O5    S    
C27   C28   A    
C91   H3    S    
Cr12  O36   S    
