data_mof_unit_27763.cif
_audit_creation_date              2012-12-10T19:08:13-0500
_audit_creation_method            fapswitch 2.2
_symmetry_space_group_name_H-M    P1
_symmetry_Int_Tables_number       1
_space_group_crystal_system       triclinic
_cell_length_a                    25.524277
_cell_length_b                    34.570676
_cell_length_c                    21.544665
_cell_angle_alpha                 90.087904
_cell_angle_beta                  126.537921
_cell_angle_gamma                 90.039392
_cell_volume                      15274.4498584

loop_
_atom_site_label
_atom_site_type_symbol
_atom_type_description
_atom_site_fract_x
_atom_site_fract_y
_atom_site_fract_z
_atom_type_partial_charge
C1    C     C_R   0.141533 0.250207 0.999904 0.837122
C2    C     C_3   0.758380 0.215010 0.982105 0.572003
C3    C     C_R   0.980834 0.917870 0.933737 -0.336272
C4    C     C_R   0.535593 0.582036 0.980675 -0.308142
C5    C     C_R   0.522891 0.417650 0.068888 -0.333226
C6    C     C_R   0.464847 0.582257 0.020863 -0.352319
C7    C     C_R   0.478627 0.417959 0.933385 -0.310156
C8    C     C_R   0.000367 0.102531 0.000404 -0.131062
C9    C     C_R   0.000397 0.897534 0.000476 -0.109576
C10   C     C_R   0.500034 0.602461 0.000299 -0.119840
C11   C     C_R   0.500659 0.397493 0.000830 -0.119237
C12   C     C_R   0.001042 0.021372 0.001230 -0.049205
C13   C     C_3   0.758481 0.784813 0.982245 0.570716
C14   C     C_R   0.000963 0.978673 0.001065 -0.039724
C15   C     C_R   0.500803 0.521327 0.002043 -0.042031
C16   C     C_R   0.500791 0.478629 0.001880 -0.045158
C17   C     C_R   0.000044 0.144898 0.000035 0.852700
C18   C     C_R   0.000085 0.855122 0.000116 0.861572
C19   C     C_R   0.500034 0.644876 0.000047 0.862443
C20   C     C_R   0.500113 0.355109 0.000154 0.860888
C21   C     C_R   0.000082 0.355273 0.999608 0.839550
C22   C     C_R   0.999870 0.644919 0.000109 0.878275
C23   C     C_R   0.500156 0.855303 0.999383 0.837272
C24   C     C_3   0.241433 0.215454 0.017760 0.569438
C25   C     C_R   0.499892 0.144962 0.999819 0.877327
C26   C     C_R   0.057435 0.458805 0.052830 -0.298263
C27   C     C_R   0.946425 0.542227 0.989277 -0.292591
C28   C     C_R   0.941336 0.458782 0.951788 -0.302981
C29   C     C_R   0.052759 0.541750 0.015611 -0.292467
C30   C     C_R   0.558856 0.959109 0.044237 -0.296158
C31   C     C_R   0.448284 0.041698 0.986331 -0.293397
C32   C     C_R   0.442239 0.958809 0.946087 -0.301411
C33   C     C_R   0.551790 0.042629 0.005125 -0.286897
C34   C     C_R   0.058934 0.418705 0.048226 0.411889
C35   C     C_3   0.741039 0.284644 0.016517 0.574657
C36   C     C_R   0.944914 0.582491 0.985091 0.401094
C37   C     C_R   0.940556 0.418447 0.951467 0.415725
C38   C     C_R   0.053297 0.582197 0.013977 0.431931
C39   C     C_R   0.559855 0.918790 0.043045 0.411980
C40   C     C_R   0.446378 0.082003 0.984436 0.404372
C41   C     C_R   0.441200 0.918546 0.948544 0.415954
C42   C     C_R   0.551942 0.082937 0.006364 0.415968
C43   C     C_R   0.999898 0.397909 0.999642 -0.237178
C44   C     C_R   0.999525 0.602621 0.000203 -0.220449
C45   C     C_R   0.500439 0.897982 0.997205 -0.237787
C46   C     C_3   0.255664 0.716384 0.975877 0.564372
C47   C     C_R   0.499713 0.102764 0.997690 -0.225196
C48   C     C_R   0.999283 0.479143 0.003363 0.050006
C49   C     C_R   0.999566 0.521658 0.003082 0.052276
C50   C     C_R   0.500504 0.979302 0.995222 0.048043
C51   C     C_R   0.500234 0.021809 0.995464 0.050995
C52   C     C_3   0.739488 0.275319 0.945642 -0.297878
C53   C     C_3   0.257517 0.721832 0.048142 -0.294948
C54   C     C_3   0.259900 0.276120 0.053280 -0.271240
C55   C     C_3   0.739866 0.724176 0.946512 -0.283351
C56   C     C_3   0.242323 0.778250 0.951143 -0.294355
C57   C     C_3   0.258502 0.284805 0.982295 0.570939
C58   C     C_3   0.759552 0.224247 0.052837 -0.224075
C59   C     C_3   0.759891 0.776070 0.053218 -0.270281
C60   C     C_3   0.239957 0.224134 0.946735 -0.282013
C61   C     C_3   0.142383 0.021170 0.037566 0.084618
C62   C     C_3   0.183343 0.996247 0.023313 -0.802191
C63   C     C_3   0.108317 0.969373 0.196185 0.087851
C64   C     C_3   0.137320 0.001755 0.255784 -0.812981
C65   C     C_3   0.859702 0.020494 0.965044 0.085372
C66   C     C_3   0.820514 0.992802 0.977633 -0.809348
C67   C     C_3   0.892533 0.969106 0.805911 0.080188
C68   C     C_3   0.741347 0.715426 0.017517 0.569227
C69   C     C_3   0.862431 0.001733 0.747175 -0.801462
C70   C     C_3   0.639672 0.520492 0.032687 0.085433
C71   C     C_3   0.678944 0.495087 0.016541 -0.803033
C72   C     C_3   0.612950 0.468574 0.197042 0.084216
C73   C     C_3   0.644139 0.500987 0.256563 -0.814322
C74   C     C_3   0.362407 0.534048 0.995833 0.080997
C75   C     C_3   0.319527 0.501726 0.990755 -0.824301
C76   C     C_3   0.384660 0.482380 0.824507 0.078959
C77   C     C_3   0.358876 0.508281 0.754955 -0.786092
C78   C     C_3   0.151799 0.404279 0.060951 0.130107
C79   C     C_3   0.198536 0.749315 0.999405 -0.063753
C80   C     C_3   0.216951 0.383496 0.110808 -0.857414
C81   C     C_3   0.838443 0.598442 0.895353 0.141993
C82   C     C_3   0.782576 0.622768 0.880791 -0.811464
C83   C     C_3   0.843240 0.400199 0.924666 0.126943
C84   C     C_3   0.783195 0.375127 0.871640 -0.776117
C85   C     C_3   0.127759 0.590425 0.985844 0.092646
C86   C     C_3   0.196643 0.574058 0.037666 -0.863079
C87   C     C_3   0.653327 0.902491 0.058401 0.130047
C88   C     C_3   0.718044 0.881473 0.110470 -0.853833
C89   C     C_3   0.339428 0.097941 0.898468 0.140864
C90   C     C_3   0.801110 0.250316 0.999577 -0.093718
C91   C     C_3   0.284506 0.122034 0.886945 -0.813513
C92   C     C_3   0.346206 0.901174 0.928535 0.128980
C93   C     C_3   0.285177 0.876479 0.878436 -0.784018
C94   C     C_3   0.593730 0.107412 0.946547 0.063744
C95   C     C_3   0.648660 0.131629 0.957961 -0.747325
C96   C     C_3   0.285241 0.844803 0.071246 0.093345
C97   C     C_3   0.267297 0.884936 0.081956 -0.823030
C98   C     C_3   0.753764 0.174722 0.893302 0.103116
C99   C     C_3   0.780051 0.137074 0.885309 -0.852154
C100  C     C_3   0.719236 0.846150 0.936033 0.085492
C101  C     C_3   0.801156 0.749531 0.999879 -0.068177
C102  C     C_3   0.740528 0.887391 0.936940 -0.838691
C103  C     C_3   0.279914 0.153841 0.062278 0.103549
C104  C     C_3   0.258352 0.112797 0.062178 -0.823702
C105  C     C_3   0.778492 0.347045 0.055599 0.092840
C106  C     C_3   0.756365 0.388142 0.053776 -0.828644
C107  C     C_3   0.220643 0.653849 0.935793 0.096013
C108  C     C_3   0.225954 0.619148 0.896395 -0.853256
C109  C     C_3   0.219701 0.346378 0.937710 0.084667
C110  C     C_3   0.241063 0.387506 0.937944 -0.832812
C111  C     C_3   0.779198 0.653498 0.059836 0.104997
C112  C     C_R   0.858379 0.749879 0.999961 0.847076
C113  C     C_3   0.198708 0.250696 0.999962 -0.063194
C114  C     C_3   0.757394 0.612521 0.059729 -0.823666
C115  C     C_3   0.209979 0.344524 0.327586 0.055286
C116  C     C_3   0.195832 0.372322 0.264952 -0.692211
C117  C     C_3   0.727799 0.733944 0.701803 0.131393
C118  C     C_3   0.710622 0.715023 0.751149 -0.814920
C119  C     C_3   0.726747 0.250177 0.705156 0.125496
C120  C     C_3   0.705063 0.264883 0.753041 -0.842430
C121  C     C_3   0.229564 0.672104 0.304671 0.101533
C122  C     C_3   0.214703 0.640587 0.246832 -0.724011
C123  C     C_3   0.708953 0.844437 0.325793 0.055098
C124  C     C_3   0.698411 0.249372 0.999518 -0.059466
C125  C     C_3   0.693692 0.872117 0.262464 -0.691742
C126  C     C_3   0.228599 0.233072 0.702748 0.133019
C127  C     C_3   0.211197 0.213441 0.751324 -0.813005
C128  C     C_3   0.227903 0.752892 0.707205 0.126381
C129  C     C_3   0.205752 0.769317 0.753577 -0.800797
C130  C     C_3   0.730347 0.172626 0.304721 0.103011
C131  C     C_3   0.715771 0.141026 0.247165 -0.725859
C132  C     C_3   0.096603 0.161145 0.303475 0.114457
C133  C     C_3   0.064888 0.126935 0.248291 -0.757607
C134  C     C_3   0.976777 0.768770 0.702242 0.116617
C135  C     C_3   0.301285 0.750876 0.000009 -0.063088
C136  C     C_3   0.040345 0.791525 0.746834 -0.791297
C137  C     C_3   0.977060 0.242499 0.701384 0.115218
C138  C     C_3   0.043236 0.223328 0.740517 -0.800999
C139  C     C_3   0.074713 0.827458 0.305756 0.123676
C140  C     C_3   0.033468 0.859861 0.249676 -0.776428
C141  C     C_3   0.597123 0.661101 0.303752 0.117166
C142  C     C_3   0.565524 0.626903 0.248514 -0.767499
C143  C     C_3   0.477784 0.266341 0.704104 0.113966
C144  C     C_3   0.542083 0.288368 0.748862 -0.784448
C145  C     C_3   0.476544 0.740846 0.701360 0.114484
C146  C     C_3   0.301212 0.249527 0.000010 -0.068273
C147  C     C_3   0.542720 0.721482 0.741879 -0.797986
C148  C     C_3   0.574694 0.327567 0.305610 0.122555
C149  C     C_3   0.533594 0.360040 0.249639 -0.774956
C150  C     C_3   0.698668 0.750678 0.999868 -0.062583
C151  C     C_3   0.196110 0.743066 0.926761 -0.340998
C152  C     C_3   0.802854 0.260265 0.070569 -0.357339
C153  C     C_3   0.803145 0.740076 0.071221 -0.354021
C154  C     C_3   0.196739 0.260129 0.928681 -0.370065
C155  C     C_3   0.696189 0.239246 0.928417 -0.376630
C156  C     C_R   0.858512 0.250171 0.000090 0.805805
C157  C     C_3   0.303739 0.757132 0.072625 -0.346364
C158  C     C_3   0.303212 0.240143 0.071396 -0.355348
C159  C     C_3   0.696671 0.760164 0.928576 -0.370921
C160  C     C_R   0.214388 0.283131 0.417787 -0.317072
C161  C     C_R   0.753719 0.727787 0.581566 -0.294605
C162  C     C_R   0.747874 0.265049 0.582429 -0.292844
C163  C     C_R   0.219611 0.715449 0.416197 -0.298215
C164  C     C_R   0.713783 0.783445 0.417501 -0.316512
C165  C     C_R   0.253967 0.227495 0.581638 -0.293088
C166  C     C_R   0.248038 0.765505 0.582469 -0.289886
C167  C     C_R   0.141417 0.749731 0.999658 0.838681
C168  C     C_R   0.720232 0.215710 0.416343 -0.298598
C169  C     C_R   0.174969 0.284233 0.336677 0.423079
C170  C     C_R   0.792241 0.729124 0.662117 0.416155
C171  C     C_R   0.787449 0.264397 0.663042 0.425042
C172  C     C_R   0.181197 0.715702 0.335501 0.408123
C173  C     C_R   0.674377 0.784411 0.336415 0.422088
C174  C     C_R   0.292506 0.228820 0.662184 0.414990
C175  C     C_R   0.287748 0.765081 0.663079 0.422789
C176  C     C_R   0.681674 0.215892 0.335645 0.408100
C177  C     C_R   0.148182 0.249382 0.295023 -0.204631
C178  C     C_R   0.641531 0.750202 0.999893 0.836756
C179  C     C_R   0.852519 0.749263 0.703885 -0.246375
C180  C     C_R   0.851455 0.249348 0.704270 -0.244526
C181  C     C_R   0.147140 0.749661 0.295150 -0.219782
C182  C     C_R   0.648026 0.749483 0.294964 -0.204178
C183  C     C_R   0.352813 0.248944 0.703936 -0.247783
C184  C     C_R   0.351317 0.749324 0.704268 -0.246430
C185  C     C_R   0.647296 0.249762 0.295190 -0.219987
C186  C     C_R   0.162116 0.213893 0.334315 0.400589
C187  C     C_R   0.871968 0.768691 0.662738 0.416269
C188  C     C_R   0.873473 0.233532 0.662912 0.419250
C189  C     C_R   0.358395 0.249869 0.000000 0.847343
C190  C     C_R   0.153167 0.783264 0.336345 0.405871
C191  C     C_R   0.662238 0.714034 0.334420 0.400274
C192  C     C_R   0.372560 0.268034 0.662801 0.418698
C193  C     C_R   0.372792 0.732798 0.662850 0.420438
C194  C     C_R   0.653194 0.283370 0.336318 0.405635
C195  C     C_R   0.204282 0.213437 0.415147 -0.299224
C196  C     C_R   0.830921 0.768588 0.582043 -0.295995
C197  C     C_R   0.831862 0.232816 0.582280 -0.292470
C198  C     C_R   0.194288 0.782833 0.417106 -0.300389
C199  C     C_R   0.704315 0.713703 0.415253 -0.299508
C200  C     C_R   0.358563 0.750298 0.000222 0.841870
C201  C     C_R   0.331572 0.267902 0.582126 -0.294407
C202  C     C_R   0.331079 0.732006 0.582243 -0.292000
C203  C     C_R   0.694359 0.282992 0.417097 -0.300072
C204  C     C_R   0.229863 0.247938 0.456793 0.057597
C205  C     C_R   0.772326 0.747904 0.541411 0.042956
C206  C     C_R   0.769646 0.249071 0.541896 0.042507
C207  C     C_R   0.226896 0.748982 0.457107 0.050193
C208  C     C_R   0.729545 0.748285 0.456714 0.057293
C209  C     C_R   0.272714 0.247473 0.541487 0.041582
C210  C     C_R   0.269260 0.748808 0.541878 0.042455
C211  C     C_R   0.641475 0.249846 0.999890 0.831571
C212  C     C_R   0.727273 0.249219 0.457153 0.050052
C213  C     C_R   0.039720 0.041835 0.985559 0.481583
C214  C     C_R   0.022937 0.958381 0.069161 0.478772
C215  C     C_R   0.962177 0.041739 0.016701 0.493715
C216  C     C_R   0.978564 0.958425 0.932649 0.482663
C217  C     C_R   0.537905 0.541661 0.983874 0.473411
C218  C     C_R   0.525333 0.458248 0.070645 0.488947
C219  C     C_R   0.462798 0.541577 0.018946 0.490183
C220  C     C_R   0.476553 0.458332 0.932893 0.479185
C221  C     C_R   0.894583 0.249860 0.789524 0.828852
C222  C     C_3   0.244186 0.783850 0.023305 0.570525
C223  C     C_R   0.105106 0.749953 0.210271 0.885566
C224  C     C_R   0.105279 0.249932 0.210225 0.904251
C225  C     C_R   0.894714 0.749871 0.789373 0.827254
C226  C     C_R   0.394582 0.749876 0.789522 0.829908
C227  C     C_R   0.605140 0.249972 0.210284 0.884134
C228  C     C_R   0.605255 0.749940 0.210203 0.903891
C229  C     C_R   0.394810 0.249786 0.789389 0.826369
C230  C     C_R   0.037513 0.082256 0.982823 -0.303523
C231  C     C_R   0.020226 0.917828 0.067521 -0.333417
C232  C     C_R   0.963750 0.082171 0.018689 -0.337657
H1    H     H_    0.066238 0.097736 0.968942 0.191977
H2    H     H_    0.708047 0.711972 0.550323 0.157688
H3    H     H_    0.269271 0.109872 0.921601 0.245357
H4    H     H_    0.301205 0.152309 0.905286 0.266997
H5    H     H_    0.241987 0.121795 0.825045 0.208309
H6    H     H_    0.330934 0.931422 0.927891 0.123335
H7    H     H_    0.374814 0.889726 0.988684 0.117768
H8    H     H_    0.255338 0.887143 0.817975 0.259466
H9    H     H_    0.298937 0.845916 0.879291 0.274339
H10   H     H_    0.255605 0.877970 0.900680 0.188849
H11   H     H_    0.546831 0.122641 0.904298 0.111029
H12   H     H_    0.593318 0.078818 0.922349 0.135695
H13   H     H_    0.699320 0.277191 0.551520 0.158302
H14   H     H_    0.640845 0.135426 0.901827 0.194902
H15   H     H_    0.649792 0.160539 0.981178 0.256352
H16   H     H_    0.696238 0.117078 0.999023 0.268681
H17   H     H_    0.295848 0.847044 0.028155 0.127616
H18   H     H_    0.329897 0.835117 0.127524 0.137703
H19   H     H_    0.257458 0.884058 0.125691 0.258496
H20   H     H_    0.308107 0.905346 0.101819 0.199055
H21   H     H_    0.223109 0.895468 0.026304 0.259035
H22   H     H_    0.774378 0.198963 0.880020 0.126670
H23   H     H_    0.699758 0.174532 0.850463 0.129403
H24   H     H_    0.243133 0.688855 0.446932 0.160861
H25   H     H_    0.759906 0.112112 0.897289 0.252681
H26   H     H_    0.765741 0.134343 0.825691 0.200210
H27   H     H_    0.834093 0.136740 0.926682 0.253514
H28   H     H_    0.700027 0.845362 0.970837 0.131315
H29   H     H_    0.679508 0.838107 0.875274 0.135696
H30   H     H_    0.757827 0.889510 0.900409 0.256890
H31   H     H_    0.698822 0.907421 0.914117 0.198401
H32   H     H_    0.780667 0.896140 0.996938 0.260353
H33   H     H_    0.320845 0.161754 0.122601 0.143205
H34   H     H_    0.297487 0.154335 0.025771 0.148844
H35   H     H_    0.731452 0.810095 0.450401 0.148854
H36   H     H_    0.217289 0.104124 0.002548 0.257741
H37   H     H_    0.299560 0.092497 0.083978 0.215506
H38   H     H_    0.242292 0.111046 0.100001 0.249431
H39   H     H_    0.793550 0.345751 0.016575 0.129862
H40   H     H_    0.821274 0.340391 0.115611 0.139853
H41   H     H_    0.742150 0.390848 0.093312 0.259604
H42   H     H_    0.796675 0.408741 0.072393 0.198635
H43   H     H_    0.713937 0.395624 0.994185 0.260609
H44   H     H_    0.169777 0.664972 0.897131 0.119510
H45   H     H_    0.231169 0.644213 0.991354 0.150747
H46   H     H_    0.208244 0.211733 0.550397 0.157967
H47   H     H_    0.275627 0.606609 0.934288 0.246906
H48   H     H_    0.189702 0.596787 0.884243 0.199259
H49   H     H_    0.216291 0.628149 0.840982 0.257068
H50   H     H_    0.202054 0.345745 0.974156 0.132231
H51   H     H_    0.178832 0.338485 0.877345 0.135320
H52   H     H_    0.256906 0.389481 0.899923 0.256025
H53   H     H_    0.199812 0.407722 0.916506 0.197598
H54   H     H_    0.282241 0.396124 0.997545 0.261587
H55   H     H_    0.821205 0.661053 0.119840 0.143251
H56   H     H_    0.795286 0.654041 0.021817 0.150006
H57   H     H_    0.199847 0.778161 0.551623 0.158444
H58   H     H_    0.715433 0.604178 0.000344 0.257090
H59   H     H_    0.798086 0.592024 0.080029 0.215787
H60   H     H_    0.742564 0.610681 0.098761 0.249778
H61   H     H_    0.732045 0.297044 0.903256 0.167768
H62   H     H_    0.262138 0.698537 0.086529 0.163345
H63   H     H_    0.266688 0.297769 0.095606 0.163956
H64   H     H_    0.732330 0.702335 0.904178 0.164568
H65   H     H_    0.237169 0.801675 0.912751 0.161665
H66   H     H_    0.766268 0.202796 0.095324 0.171323
H67   H     H_    0.766785 0.797683 0.095642 0.164388
H68   H     H_    0.744061 0.189186 0.447176 0.160937
H69   H     H_    0.232460 0.202267 0.904462 0.164994
H70   H     H_    0.151567 0.736547 0.868018 0.147494
H71   H     H_    0.846912 0.269066 0.128093 0.149749
H72   H     H_    0.847379 0.731584 0.128732 0.150271
H73   H     H_    0.152736 0.269049 0.871507 0.143749
H74   H     H_    0.651850 0.230257 0.871330 0.144658
H75   H     H_    0.348500 0.763325 0.131449 0.150171
H76   H     H_    0.347483 0.231729 0.128941 0.149823
H77   H     H_    0.652608 0.769033 0.871387 0.143080
H78   H     H_    0.256189 0.329052 0.348757 0.133596
H79   H     H_    0.218067 0.186109 0.445540 0.157629
H80   H     H_    0.216483 0.361683 0.375416 0.145081
H81   H     H_    0.150862 0.389048 0.243329 0.267263
H82   H     H_    0.237258 0.392715 0.288247 0.182187
H83   H     H_    0.188976 0.355614 0.216596 0.294068
H84   H     H_    0.681993 0.738325 0.642665 0.124671
H85   H     H_    0.750486 0.762609 0.728070 0.124248
H86   H     H_    0.755837 0.709364 0.809681 0.279047
H87   H     H_    0.678889 0.734550 0.756269 0.197268
H88   H     H_    0.684660 0.687259 0.724656 0.246158
H89   H     H_    0.756471 0.223586 0.733504 0.113417
H90   H     H_    0.845324 0.784451 0.551057 0.157928
H91   H     H_    0.682474 0.242720 0.646419 0.128813
H92   H     H_    0.673666 0.290797 0.725481 0.257756
H93   H     H_    0.677215 0.241989 0.758003 0.183766
H94   H     H_    0.748475 0.272688 0.811663 0.274844
H95   H     H_    0.266707 0.660888 0.363853 0.127931
H96   H     H_    0.250059 0.697449 0.293650 0.136070
H97   H     H_    0.178697 0.651239 0.186997 0.294103
H98   H     H_    0.260074 0.632315 0.254055 0.184592
H99   H     H_    0.194493 0.614676 0.256219 0.249407
H100  H     H_    0.754707 0.828765 0.345709 0.133614
H101  H     H_    0.848870 0.220119 0.551215 0.156734
H102  H     H_    0.716770 0.861699 0.374244 0.144282
H103  H     H_    0.649145 0.889029 0.242003 0.264438
H104  H     H_    0.735142 0.892350 0.284633 0.183662
H105  H     H_    0.685532 0.855302 0.213500 0.295191
H106  H     H_    0.182849 0.237963 0.643788 0.123939
H107  H     H_    0.251622 0.261511 0.730126 0.125707
H108  H     H_    0.256344 0.207062 0.809525 0.279318
H109  H     H_    0.179892 0.232797 0.757498 0.197932
H110  H     H_    0.184667 0.185977 0.723510 0.245388
H111  H     H_    0.257876 0.726662 0.737732 0.126212
H112  H     H_    0.034680 0.902172 0.118935 0.174971
H113  H     H_    0.201654 0.809188 0.448665 0.160099
H114  H     H_    0.183814 0.744479 0.649022 0.123942
H115  H     H_    0.173563 0.794678 0.723364 0.246118
H116  H     H_    0.178544 0.746912 0.760730 0.197437
H117  H     H_    0.248764 0.778476 0.811468 0.277607
H118  H     H_    0.767828 0.161623 0.363982 0.127892
H119  H     H_    0.750312 0.198082 0.293234 0.135834
H120  H     H_    0.679404 0.151461 0.187242 0.291641
H121  H     H_    0.761163 0.133025 0.254210 0.189335
H122  H     H_    0.696126 0.115002 0.257062 0.248069
H123  H     H_    0.057228 0.181296 0.290762 0.142053
H124  H     H_    0.718307 0.686412 0.445793 0.157794
H125  H     H_    0.122710 0.149993 0.363405 0.125565
H126  H     H_    0.102754 0.106072 0.259660 0.247409
H127  H     H_    0.030791 0.112032 0.256366 0.200952
H128  H     H_    0.037192 0.137088 0.187660 0.279843
H129  H     H_    0.961910 0.763755 0.642669 0.125229
H130  H     H_    0.985804 0.740412 0.731612 0.117548
H131  H     H_    0.057793 0.795993 0.807422 0.282601
H132  H     H_    0.077961 0.775381 0.746945 0.187837
H133  H     H_    0.032894 0.820109 0.719247 0.253790
H134  H     H_    0.983443 0.269225 0.734252 0.118214
H135  H     H_    0.346274 0.283489 0.551174 0.159095
H136  H     H_    0.959045 0.250452 0.641608 0.123819
H137  H     H_    0.038414 0.196555 0.708915 0.255711
H138  H     H_    0.077043 0.243446 0.740380 0.182090
H139  H     H_    0.063652 0.215837 0.801100 0.280591
H140  H     H_    0.096628 0.837934 0.365393 0.126970
H141  H     H_    0.041822 0.802451 0.292380 0.136888
H142  H     H_    0.009891 0.850028 0.189367 0.279064
H143  H     H_    0.994967 0.868249 0.256161 0.200075
H144  H     H_    0.064497 0.885481 0.261664 0.239226
H145  H     H_    0.557668 0.681166 0.291094 0.139749
H146  H     H_    0.347761 0.718848 0.551191 0.156365
H147  H     H_    0.623308 0.649920 0.363671 0.125721
H148  H     H_    0.603460 0.606112 0.259832 0.250178
H149  H     H_    0.531485 0.611905 0.256572 0.197580
H150  H     H_    0.537783 0.637089 0.187901 0.278395
H151  H     H_    0.463478 0.260401 0.645033 0.124784
H152  H     H_    0.485586 0.238412 0.734315 0.116667
H153  H     H_    0.558683 0.293962 0.808817 0.285690
H154  H     H_    0.579722 0.271098 0.750921 0.186975
H155  H     H_    0.536035 0.316388 0.720145 0.252985
H156  H     H_    0.482754 0.767917 0.733302 0.117567
H157  H     H_    0.701564 0.309324 0.448643 0.160153
H158  H     H_    0.459109 0.748232 0.641561 0.123961
H159  H     H_    0.538125 0.694350 0.711301 0.255431
H160  H     H_    0.576908 0.741231 0.741727 0.181871
H161  H     H_    0.562564 0.714589 0.802522 0.281145
H162  H     H_    0.596584 0.337990 0.365273 0.126915
H163  H     H_    0.541721 0.302586 0.292088 0.137198
H164  H     H_    0.510050 0.350271 0.189300 0.279504
H165  H     H_    0.495073 0.368450 0.256074 0.199609
H166  H     H_    0.564721 0.385634 0.261775 0.239711
H167  H     H_    0.102547 0.473918 0.094581 0.161921
H168  H     H_    0.906146 0.527159 0.982637 0.152855
H169  H     H_    0.896359 0.474054 0.910671 0.154472
H170  H     H_    0.093928 0.526024 0.026219 0.151307
H171  H     H_    0.604181 0.974507 0.083934 0.163751
H172  H     H_    0.935011 0.097566 0.032627 0.185413
H173  H     H_    0.409254 0.026049 0.981563 0.153207
H174  H     H_    0.396999 0.973972 0.905442 0.155451
H175  H     H_    0.591890 0.027781 0.011045 0.154282
H176  H     H_    0.144696 0.008325 0.086563 0.126150
H177  H     H_    0.163831 0.050775 0.053800 0.140432
H178  H     H_    0.183103 0.008625 0.975600 0.259810
H179  H     H_    0.234389 0.995144 0.076415 0.199754
H180  H     H_    0.163336 0.966376 0.007621 0.259723
H181  H     H_    0.139402 0.965950 0.175945 0.117505
H182  H     H_    0.109677 0.942218 0.224664 0.150271
H183  H     H_    0.966093 0.902240 0.882053 0.178205
H184  H     H_    0.108466 0.005541 0.278641 0.265131
H185  H     H_    0.188411 0.994613 0.304367 0.204243
H186  H     H_    0.136908 0.029265 0.228902 0.247872
H187  H     H_    0.857402 0.009758 0.914625 0.123691
H188  H     H_    0.836873 0.049637 0.951580 0.143584
H189  H     H_    0.820649 0.002911 0.026685 0.263089
H190  H     H_    0.769370 0.991404 0.924758 0.196790
H191  H     H_    0.842085 0.963380 0.990537 0.260339
H192  H     H_    0.861965 0.964824 0.826670 0.113488
H193  H     H_    0.891382 0.942319 0.776503 0.153718
H194  H     H_    0.563186 0.597368 0.964997 0.192322
H195  H     H_    0.890692 0.006386 0.723771 0.269297
H196  H     H_    0.811342 0.994276 0.698838 0.199221
H197  H     H_    0.862589 0.028858 0.775012 0.248034
H198  H     H_    0.643073 0.507838 0.082534 0.126723
H199  H     H_    0.661682 0.549960 0.048436 0.141455
H200  H     H_    0.677624 0.507237 0.967935 0.260418
H201  H     H_    0.730420 0.493708 0.068676 0.199620
H202  H     H_    0.658330 0.465347 0.001298 0.261928
H203  H     H_    0.642684 0.464367 0.175148 0.117954
H204  H     H_    0.614196 0.441692 0.226130 0.151656
H205  H     H_    0.539212 0.401835 0.120824 0.173662
H206  H     H_    0.616680 0.505542 0.281032 0.264385
H207  H     H_    0.695326 0.493362 0.304069 0.205055
H208  H     H_    0.643864 0.528231 0.229082 0.247884
H209  H     H_    0.342434 0.542789 0.935663 0.120065
H210  H     H_    0.359759 0.558853 0.026734 0.152849
H211  H     H_    0.336983 0.492707 0.049643 0.267561
H212  H     H_    0.268402 0.511966 0.958734 0.199530
H213  H     H_    0.320949 0.476445 0.959889 0.249862
H214  H     H_    0.372355 0.496166 0.861170 0.129484
H215  H     H_    0.359770 0.453785 0.803644 0.137891
H216  H     H_    0.438294 0.598180 0.037247 0.172175
H217  H     H_    0.369325 0.495175 0.716298 0.261689
H218  H     H_    0.305341 0.511848 0.722302 0.195595
H219  H     H_    0.382505 0.537179 0.774360 0.261540
H220  H     H_    0.161769 0.435310 0.057757 0.127002
H221  H     H_    0.123252 0.391365 0.001903 0.123971
H222  H     H_    0.208902 0.352088 0.112763 0.262169
H223  H     H_    0.244555 0.387603 0.086489 0.212793
H224  H     H_    0.246322 0.395476 0.170368 0.252828
H225  H     H_    0.821606 0.567846 0.880927 0.119173
H226  H     H_    0.850427 0.608860 0.856183 0.154273
H227  H     H_    0.461018 0.402660 0.880337 0.188373
H228  H     H_    0.766007 0.611201 0.914493 0.243796
H229  H     H_    0.798932 0.653148 0.898339 0.268174
H230  H     H_    0.741064 0.622018 0.818442 0.208460
H231  H     H_    0.826758 0.430204 0.923251 0.123526
H232  H     H_    0.869957 0.388527 0.984487 0.118664
H233  H     H_    0.755673 0.385735 0.811276 0.259301
H234  H     H_    0.797974 0.344660 0.873815 0.277222
H235  H     H_    0.750913 0.376304 0.890193 0.189829
H236  H     H_    0.128398 0.616314 0.955962 0.140156
H237  H     H_    0.094700 0.569187 0.939353 0.113284
H238  H     H_    0.232375 0.309697 0.450937 0.148864
H239  H     H_    0.213153 0.565361 0.002276 0.211016
H240  H     H_    0.230651 0.596251 0.080307 0.258817
H241  H     H_    0.198001 0.548327 0.069296 0.248532
H242  H     H_    0.663999 0.933136 0.053631 0.129240
H243  H     H_    0.625153 0.888662 0.000185 0.123095
H244  H     H_    0.709292 0.850351 0.113931 0.262227
H245  H     H_    0.746577 0.884250 0.087087 0.213697
H246  H     H_    0.746866 0.894288 0.169333 0.253320
H247  H     H_    0.322352 0.067411 0.883301 0.120158
H248  H     H_    0.349934 0.108979 0.858293 0.154068
O1    O     O_3   0.000000 0.250010 0.000000 -0.506802
O2    O     O_R   0.359980 0.227250 0.954550 -0.671375
O3    O     O_R   0.359980 0.772750 0.954550 -0.675799
O4    O     O_R   0.640020 0.227250 0.045450 -0.664417
O5    O     O_R   0.944020 0.227270 0.826530 -0.600730
O6    O     O_R   0.055980 0.772730 0.173470 -0.622723
O7    O     O_R   0.055980 0.227270 0.173470 -0.630033
O8    O     O_R   0.944020 0.772730 0.826530 -0.601527
O9    O     O_R   0.444020 0.727270 0.826530 -0.600232
O10   O     O_R   0.555980 0.272730 0.173470 -0.622812
O11   O     O_R   0.555980 0.727270 0.173470 -0.632595
O12   O     O_3   0.000000 0.749990 0.000000 -0.505552
O13   O     O_R   0.444020 0.272730 0.826530 -0.600346
O14   O     O_R   0.008020 0.163280 0.954510 -0.629131
O15   O     O_R   0.991980 0.836720 0.045490 -0.644350
O16   O     O_R   0.991980 0.163280 0.045490 -0.649873
O17   O     O_R   0.008020 0.836720 0.954510 -0.632673
O18   O     O_R   0.508020 0.663280 0.954510 -0.631132
O19   O     O_R   0.491980 0.336720 0.045490 -0.643269
O20   O     O_R   0.491980 0.663280 0.045490 -0.648107
O21   O     O_R   0.508020 0.336720 0.954510 -0.631362
O22   O     O_R   0.053480 0.336740 0.045470 -0.600799
O23   O     O_3   0.500000 0.750010 0.000000 -0.507421
O24   O     O_R   0.946520 0.663260 0.954530 -0.628041
O25   O     O_R   0.946520 0.336740 0.954530 -0.600568
O26   O     O_R   0.053480 0.663260 0.045470 -0.609098
O27   O     O_R   0.553480 0.836740 0.045470 -0.602117
O28   O     O_R   0.446520 0.163260 0.954530 -0.630876
O29   O     O_R   0.446520 0.836740 0.954530 -0.601378
O30   O     O_R   0.553480 0.163260 0.045470 -0.609229
O31   O     O_R   0.882520 0.272750 0.826550 -0.594902
O32   O     O_R   0.117480 0.727250 0.173450 -0.619072
O33   O     O_R   0.117480 0.272750 0.173450 -0.611320
O34   O     O_3   0.500000 0.249990 0.000000 -0.505290
O35   O     O_R   0.882520 0.727250 0.826550 -0.605421
O36   O     O_R   0.382520 0.772750 0.826550 -0.593817
O37   O     O_R   0.617480 0.227250 0.173450 -0.619155
O38   O     O_R   0.617480 0.772750 0.173450 -0.613049
O39   O     O_R   0.382520 0.227250 0.826550 -0.606376
O40   O     O_R   0.094550 0.227270 0.954490 -0.620346
O41   O     O_R   0.905450 0.772730 0.045510 -0.622371
O42   O     O_R   0.905450 0.227270 0.045510 -0.619125
O43   O     O_R   0.094550 0.772730 0.954490 -0.630090
O44   O     O_R   0.594550 0.727270 0.954490 -0.622236
O45   O     O_R   0.140020 0.272750 0.045450 -0.668180
O46   O     O_R   0.405450 0.272730 0.045510 -0.622119
O47   O     O_R   0.405450 0.727270 0.045510 -0.626917
O48   O     O_R   0.594550 0.272730 0.954490 -0.624404
O49   O     O_3   0.077682 0.022214 0.969694 -0.563052
O50   O     O_3   0.043191 0.978867 0.135376 -0.569456
O51   O     O_3   0.924466 0.021977 0.032783 -0.562995
O52   O     O_3   0.957687 0.978963 0.866414 -0.566481
O53   O     O_3   0.574412 0.521904 0.966001 -0.564126
O54   O     O_3   0.547737 0.478693 0.137639 -0.570819
O55   O     O_3   0.427379 0.520698 0.037613 -0.569934
O56   O     O_R   0.859980 0.727250 0.954550 -0.671358
O57   O     O_3   0.452650 0.478027 0.865169 -0.563251
O58   O     O_3   0.118246 0.399956 0.094171 -0.592985
O59   O     O_3   0.892710 0.602316 0.973613 -0.597580
O60   O     O_3   0.882532 0.399339 0.898542 -0.569674
O61   O     O_3   0.107783 0.602390 0.031715 -0.591739
O62   O     O_3   0.618874 0.899919 0.090750 -0.593041
O63   O     O_3   0.394956 0.101132 0.976198 -0.598165
O64   O     O_3   0.382582 0.899399 0.898591 -0.568351
O65   O     O_3   0.604292 0.102840 0.018327 -0.583882
O66   O     O_3   0.233160 0.819187 0.046586 -0.605925
O67   O     O_R   0.859980 0.272750 0.954550 -0.677095
O68   O     O_3   0.771412 0.177421 0.968895 -0.606909
O69   O     O_3   0.772824 0.821133 0.965832 -0.605696
O70   O     O_3   0.227042 0.179199 0.034315 -0.609349
O71   O     O_3   0.727025 0.321200 0.032517 -0.604436
O72   O     O_3   0.266421 0.681990 0.949786 -0.613104
O73   O     O_3   0.272693 0.321106 0.965640 -0.605428
O74   O     O_3   0.727060 0.679137 0.034074 -0.609927
O75   O     O_3   0.156491 0.318972 0.296393 -0.597232
O76   O     O_3   0.771180 0.709709 0.699591 -0.580207
O77   O     O_3   0.763479 0.279290 0.701141 -0.569494
O78   O     O_R   0.140020 0.727250 0.045450 -0.657042
O79   O     O_3   0.171582 0.681803 0.295581 -0.588844
O80   O     O_3   0.655397 0.819108 0.296017 -0.598440
O81   O     O_3   0.271736 0.209076 0.699652 -0.580785
O82   O     O_3   0.264515 0.781215 0.701103 -0.571669
O83   O     O_3   0.672358 0.182000 0.295856 -0.588762
O84   O     O_3   0.140347 0.179483 0.293071 -0.595551
O85   O     O_3   0.928954 0.790125 0.700858 -0.573857
O86   O     O_3   0.934184 0.216469 0.700864 -0.569158
O87   O     O_3   0.123914 0.817485 0.297431 -0.594094
O88   O     O_3   0.640778 0.679570 0.293347 -0.595054
O89   O     O_R   0.640020 0.772750 0.045450 -0.668429
O90   O     O_3   0.430113 0.288903 0.700875 -0.571783
O91   O     O_3   0.433130 0.715253 0.700736 -0.569381
O92   O     O_3   0.623902 0.317568 0.297321 -0.594594
Zn1   Zn    Zn3+2 0.923580 0.282490 0.935040 0.972016
Zn2   Zn    Zn3+2 0.988550 0.782480 0.064990 0.987889
Zn3   Zn    Zn3+2 0.988550 0.217520 0.064990 0.979287
Zn4   Zn    Zn3+2 0.011450 0.782480 0.935010 0.992328
Zn5   Zn    Zn3+2 0.511450 0.717520 0.935010 1.002568
Zn6   Zn    Zn3+2 0.488550 0.282480 0.064990 0.987832
Zn7   Zn    Zn3+2 0.488550 0.717520 0.064990 0.982306
Zn8   Zn    Zn3+2 0.511450 0.282480 0.935010 0.996069
Zn9   Zn    Zn3+2 0.076420 0.717510 0.064960 0.983415
Zn10  Zn    Zn3+2 0.076420 0.282490 0.064960 0.981925
Zn11  Zn    Zn3+2 0.923580 0.717510 0.935040 0.969016
Zn12  Zn    Zn3+2 0.423580 0.782490 0.935040 0.979740
Zn13  Zn    Zn3+2 0.576420 0.217510 0.064960 0.981285
Zn14  Zn    Zn3+2 0.576420 0.782490 0.064960 0.978393
Zn15  Zn    Zn3+2 0.423580 0.217510 0.935040 0.967381
Zn16  Zn    Zn3+2 0.011450 0.217520 0.935010 0.999795

loop_
_geom_bond_atom_site_label_1
_geom_bond_atom_site_label_2
_ccdc_geom_bond_type
C77   H218  S    
C193  O91   S    
C92   H7    S    
C126  C127  S    
C145  H158  S    
O18   Zn5   S    
C144  H154  S    
O42   Zn3   S    
C172  O79   S    
C184  C226  S    
C141  O88   S    
C160  H238  S    
C65   H187  S    
C27   H168  S    
C59   C153  S    
O10   Zn6   S    
C136  H133  S    
C145  H156  S    
O9    Zn5   S    
C131  H122  S    
C19   O20   A    
C35   C124  S    
C211  O4    A    
C95   H14   S    
C154  H73   S    
O45   Zn10  S    
C72   H204  S    
C93   H8    S    
C184  C193  A    
C82   H230  S    
C103  O70   S    
C201  C209  A    
C2    C90   S    
C104  H37   S    
C125  H104  S    
C66   H189  S    
C116  H82   S    
C75   H211  S    
C162  C171  A    
C123  H102  S    
C64   H185  S    
C89   H247  S    
C207  C210  S    
C24   O70   S    
C133  H127  S    
C85   O61   S    
C21   O22   A    
C185  C194  A    
C197  H101  S    
O1    Zn1   S    
C171  O77   S    
C161  C205  A    
C197  C206  A    
C152  H71   S    
C60   C146  S    
C96   H17   S    
C145  O91   S    
C214  C231  A    
C214  O50   S    
C122  H97   S    
O6    Zn2   S    
C58   C152  S    
O23   Zn7   S    
C216  O52   S    
C164  H35   S    
C167  O43   A    
C11   C20   S    
C150  C159  S    
C17   O16   A    
O15   Zn2   S    
C90   C152  S    
C61   O49   S    
C99   H26   S    
C118  H88   S    
C177  C186  A    
C215  C232  A    
C67   H192  S    
C174  C183  A    
C221  O31   A    
C127  H110  S    
C160  C204  A    
C65   O51   S    
C181  C190  A    
C110  H54   S    
C91   H5    S    
C164  C173  A    
C129  H115  S    
C151  H70   S    
C143  H151  S    
C76   C77   S    
C56   C151  S    
C163  C172  A    
C121  O79   S    
C70   O53   S    
C71   H202  S    
C78   H221  S    
C96   O66   S    
C173  C182  A    
O43   Zn4   S    
C31   H173  S    
C25   O28   A    
C36   C44   A    
C1    O45   A    
C35   C152  S    
C128  H111  S    
C6    H216  S    
C130  H118  S    
C79   C222  S    
O44   Zn5   S    
C87   H242  S    
C67   O52   S    
O17   Zn4   S    
C86   H239  S    
C20   O21   A    
C228  O11   A    
C23   O27   A    
C19   O18   A    
O12   Zn4   S    
C106  H43   S    
C8    C17   S    
C72   C73   S    
C139  C140  S    
C9    C18   S    
C124  C211  S    
C140  H143  S    
C141  H145  S    
C70   H199  S    
C114  H60   S    
O33   Zn10  S    
C93   H10   S    
C130  C131  S    
C134  H130  S    
C166  C210  A    
C153  H72   S    
C120  H92   S    
O23   Zn14  S    
C123  H100  S    
C231  H112  S    
C46   C53   S    
C5    H205  S    
C228  O38   A    
C115  H80   S    
C103  H33   S    
C177  C224  S    
C198  H113  S    
C206  C212  S    
O2    Zn15  S    
O1    Zn3   S    
C126  O81   S    
C98   C99   S    
C157  H75   S    
C137  H134  S    
C158  H76   S    
C107  O72   S    
C81   H225  S    
C79   C167  S    
C88   H244  S    
O23   Zn5   S    
C86   H241  S    
C56   C222  S    
C135  C157  S    
C85   H237  S    
C181  C223  S    
C105  C106  S    
C142  H150  S    
C165  H46   S    
C218  O54   S    
C80   H222  S    
C128  C129  S    
C64   H184  S    
C97   H19   S    
C29   C49   A    
C85   C86   S    
C101  C112  S    
C118  H86   S    
C37   O60   S    
C92   H6    S    
C170  O76   S    
C33   C42   A    
C109  O73   S    
C89   O63   S    
C109  H51   S    
C78   C80   S    
C110  H52   S    
C115  C116  S    
C85   H236  S    
C91   H3    S    
O40   Zn16  S    
C63   H181  S    
C18   O15   A    
O13   Zn8   S    
C129  H117  S    
C132  H123  S    
C227  O10   A    
O78   Zn9   S    
C95   H15   S    
C172  C181  A    
C100  O69   S    
C61   H177  S    
C29   C38   A    
C107  C108  S    
C155  H74   S    
C16   C218  A    
O48   Zn8   S    
C89   C91   S    
C40   O63   S    
C133  H126  S    
C24   C60   S    
C39   C45   A    
C15   C219  A    
C105  H40   S    
C120  H93   S    
C147  H160  S    
C76   H215  S    
C96   C97   S    
C73   H206  S    
C106  H41   S    
C169  C177  A    
C98   H23   S    
C58   H66   S    
C62   H180  S    
O30   Zn13  S    
C141  H147  S    
C61   H176  S    
C114  H58   S    
O41   Zn2   S    
C128  H114  S    
C139  O87   S    
C68   C153  S    
C164  C208  A    
C173  O80   S    
C221  O5    A    
C88   H245  S    
O39   Zn15  S    
C165  C174  A    
C74   H210  S    
O89   Zn14  S    
C94   H11   S    
C3    C9    A    
O4    Zn13  S    
C83   C84   S    
C138  H138  S    
C99   H27   S    
C160  C169  A    
O47   Zn7   S    
C137  H136  S    
C102  H30   S    
O46   Zn6   S    
C14   C216  A    
O67   Zn1   S    
C67   H193  S    
C28   H169  S    
C4    H194  S    
C7    C220  A    
C55   H64   S    
C119  H91   S    
C21   O25   A    
C142  H148  S    
C130  O83   S    
C90   C156  S    
C80   H224  S    
C53   H62   S    
C35   C52   S    
C97   H21   S    
C126  H106  S    
C168  C176  A    
C77   H217  S    
C28   C48   A    
C41   C45   A    
C29   H170  S    
C190  O87   S    
C13   O69   S    
C34   C43   A    
C31   C51   A    
C121  H96   S    
C22   O26   A    
C13   C59   S    
C87   H243  S    
C56   H65   S    
C131  H121  S    
C57   O73   S    
C170  C179  A    
C132  H125  S    
C162  H13   S    
C42   O65   S    
C93   H9    S    
C117  C118  S    
O16   Zn3   S    
C219  O55   S    
C139  H140  S    
C94   O65   S    
C182  C228  S    
C69   H197  S    
C28   C37   A    
C132  O84   S    
C140  H142  S    
C148  H163  S    
C199  C208  A    
C149  H166  S    
C16   C220  A    
C178  O44   A    
C77   H219  S    
C61   C62   S    
C171  C180  A    
C104  H38   S    
C74   O55   S    
C68   C150  S    
C66   H190  S    
C63   C64   S    
C136  H131  S    
C76   O57   S    
C100  H29   S    
C64   H186  S    
C124  C155  S    
C73   H208  S    
C84   H233  S    
C57   C154  S    
C68   O74   S    
C13   C159  S    
C176  O83   S    
C108  H49   S    
C62   H178  S    
C156  O67   A    
C69   H196  S    
C98   O68   S    
C87   C88   S    
C112  O56   A    
C83   H232  S    
C23   C45   S    
C194  O92   S    
C187  C196  A    
C1    O40   A    
C199  H124  S    
C63   O50   S    
C52   C90   S    
C72   O54   S    
C96   H18   S    
C113  C154  S    
C183  C192  A    
C122  H98   S    
C55   C68   S    
C176  C185  A    
C62   H179  S    
C52   C155  S    
C166  C175  A    
C1    C113  S    
C18   O17   A    
C5    C11   A    
C175  O82   S    
C34   O58   S    
O25   Zn1   S    
C123  C125  S    
C179  C187  A    
C99   H25   S    
C185  C227  S    
C168  H68   S    
C31   C40   A    
C14   C214  A    
C187  O85   S    
C127  H109  S    
C191  O88   S    
C180  C188  A    
C46   C135  S    
C165  C209  A    
C166  H57   S    
C119  H89   S    
C204  C209  S    
C192  C201  A    
C146  C189  S    
C70   C71   S    
C137  O86   S    
C52   H61   S    
C15   C217  A    
C108  H47   S    
C183  C229  S    
C26   C48   A    
C71   H201  S    
C55   C159  S    
C123  O80   S    
C198  C207  A    
C57   C146  S    
C162  C206  A    
C82   H228  S    
C144  H153  S    
C12   C213  A    
C167  O78   A    
C65   H188  S    
C130  H119  S    
C145  C147  S    
C4    C217  A    
O38   Zn14  S    
C143  O90   S    
C86   H240  S    
C76   H214  S    
C25   O30   A    
C156  O42   A    
C135  C200  S    
C186  O84   S    
C195  C204  A    
C72   H203  S    
C3    C216  A    
C140  H144  S    
C112  O41   A    
C82   H229  S    
C193  C202  A    
C38   O61   S    
C224  O33   A    
C37   C43   A    
C200  O47   A    
O35   Zn11  S    
C38   C44   A    
C131  H120  S    
C70   H198  S    
C116  H81   S    
C75   H212  S    
C10   C19   S    
C92   O64   S    
C89   H248  S    
O11   Zn7   S    
C50   C51   S    
C133  H128  S    
C180  C221  S    
C107  H44   S    
C117  O76   S    
C121  C122  S    
C226  O9    A    
C195  H79   S    
C146  C158  S    
C48   C49   S    
C102  H32   S    
C182  C191  A    
O22   Zn10  S    
C127  H108  S    
O36   Zn12  S    
O24   Zn11  S    
C190  C198  A    
C115  O75   S    
C59   C150  S    
C2    O68   S    
O12   Zn9   S    
C25   C47   S    
C78   O58   S    
C7    H227  S    
C58   C124  S    
O1    Zn10  S    
C134  H129  S    
C213  O49   S    
O5    Zn16  S    
O3    Zn12  S    
C6    C10   A    
C119  C120  S    
C2    C58   S    
C220  O57   S    
C27   C36   A    
C33   C51   A    
C118  H87   S    
C232  H172  S    
C63   H182  S    
C223  O6    A    
C143  C144  S    
O21   Zn8   S    
C109  C110  S    
C200  O3    A    
C3    H183  S    
C109  H50   S    
C174  O81   S    
O12   Zn2   S    
C110  H53   S    
C188  C197  A    
C163  C207  A    
C92   C93   S    
C202  H146  S    
C129  H116  S    
C24   C158  S    
C143  H152  S    
C229  O39   A    
O26   Zn9   S    
C94   C95   S    
C225  O8    A    
O28   Zn15  S    
C139  H141  S    
O7    Zn3   S    
C33   H175  S    
C224  O7    A    
C148  H162  S    
C103  C104  S    
C144  H155  S    
C111  H55   S    
C196  H90   S    
C12   C215  A    
C192  O90   S    
O34   Zn15  S    
C15   C16   S    
C175  C184  A    
C105  H39   S    
C40   C47   A    
C120  H94   S    
C100  H28   S    
C179  C225  S    
C2    C155  S    
C8    C232  A    
C168  C212  A    
C106  H42   S    
C111  O74   S    
C203  H157  S    
C81   C82   S    
C78   H220  S    
C119  O77   S    
C7    C11   A    
C60   H69   S    
C169  O75   S    
C114  H59   S    
C46   O72   S    
C53   C79   S    
O19   Zn6   S    
C191  C199  A    
O34   Zn8   S    
C211  O48   A    
C116  H83   S    
C88   H246  S    
C229  O13   A    
C26   H167  S    
O8    Zn4   S    
C54   C113  S    
C227  O37   A    
C230  H1    S    
O14   Zn16  S    
C103  H34   S    
C196  C205  A    
C94   H12   S    
O27   Zn14  S    
C21   C43   S    
C8    C230  A    
C26   C34   A    
C22   C44   S    
C138  H139  S    
C5    C218  A    
C36   O59   S    
C132  C133  S    
C30   C39   A    
C81   H226  S    
C32   C41   A    
C222  O66   S    
C23   O29   A    
C54   H63   S    
C150  C178  S    
O12   Zn11  S    
C24   C113  S    
C39   O62   S    
C22   O24   A    
C142  H149  S    
C202  C210  A    
C97   H20   S    
C60   C154  S    
C126  H107  S    
C188  O86   S    
C84   H235  S    
C74   C75   S    
C161  H2    S    
C134  O85   S    
C105  O71   S    
C186  C195  A    
C115  H78   S    
C32   H174  S    
C148  C149  S    
O29   Zn12  S    
C121  H95   S    
C134  C136  S    
C178  O89   A    
C91   H4    S    
O23   Zn12  S    
C67   C69   S    
C20   O19   A    
C35   O71   S    
C95   H16   S    
C54   C158  S    
C189  O46   A    
C189  O2    A    
C81   O59   S    
C87   O62   S    
C101  C153  S    
C111  H56   S    
C148  O92   S    
C100  C102  S    
C149  H165  S    
C30   H171  S    
C32   C50   A    
O31   Zn1   S    
O34   Zn13  S    
C215  O51   S    
C66   H191  S    
C161  C170  A    
C136  H132  S    
C75   H213  S    
C12   C14   S    
C201  H135  S    
C157  C222  S    
C73   H207  S    
C84   H234  S    
C203  C212  A    
C111  C114  S    
O1    Zn16  S    
C13   C101  S    
C107  H45   S    
C98   H22   S    
C56   C135  S    
C71   H200  S    
C79   C151  S    
C69   H195  S    
C205  C208  S    
C125  H105  S    
O32   Zn9   S    
C83   H231  S    
C83   O60   S    
C149  H164  S    
C102  H31   S    
O20   Zn7   S    
C223  O32   A    
C125  H103  S    
C104  H36   S    
C4    C10   A    
O34   Zn6   S    
C122  H99   S    
C41   O64   S    
C137  C138  S    
C55   C101  S    
C53   C157  S    
C147  H161  S    
C9    C231  A    
C74   H209  S    
C17   O14   A    
C217  O53   S    
C141  C142  S    
C159  H77   S    
C30   C50   A    
C138  H137  S    
C117  H85   S    
C194  C203  A    
C46   C151  S    
C42   C47   A    
C213  C230  A    
O37   Zn13  S    
C163  H24   S    
C128  O82   S    
C147  H159  S    
C6    C219  A    
C27   C49   A    
C225  O35   A    
C65   C66   S    
C59   H67   S    
C226  O36   A    
C108  H48   S    
C80   H223  S    
C54   C57   S    
O56   Zn11  S    
C117  H84   S    
