data_mof_unit_27967.cif
_audit_creation_date              2012-12-11T14:52:24-0500
_audit_creation_method            fapswitch 2.2
_symmetry_space_group_name_H-M    P1
_symmetry_Int_Tables_number       1
_space_group_crystal_system       triclinic
_cell_length_a                    19.09672
_cell_length_b                    11.085718
_cell_length_c                    18.515922
_cell_angle_alpha                 89.999978
_cell_angle_beta                  90.70605
_cell_angle_gamma                 89.999953
_cell_volume                      3919.53885765

loop_
_atom_site_label
_atom_site_type_symbol
_atom_type_description
_atom_site_fract_x
_atom_site_fract_y
_atom_site_fract_z
_atom_type_partial_charge
C1    C     C_R   0.273158 0.041009 0.854737 0.519677
C2    C     C_R   0.729280 0.046269 0.148730 0.526407
C3    C     C_R   0.770720 0.546269 0.851269 0.526408
C4    C     C_R   0.226842 0.541009 0.145263 0.519676
C5    C     C_3   0.516364 0.731999 0.961446 -0.115564
C6    C     C_3   0.484664 0.722584 0.036675 -0.113654
C7    C     C_3   0.015336 0.222584 0.963325 -0.113653
C8    C     C_3   0.983636 0.231998 0.038554 -0.115564
C9    C     C_R   0.300088 0.510820 0.958310 -0.001875
C10   C     C_R   0.678377 0.571524 0.027524 -0.010922
C11   C     C_R   0.821623 0.071524 0.972476 -0.010922
C12   C     C_R   0.199912 0.010820 0.041690 -0.001875
C13   C     C_R   0.296976 0.517467 0.034345 -0.126306
C14   C     C_R   0.689762 0.546039 0.954261 -0.144257
C15   C     C_R   0.810237 0.046039 0.045739 -0.144257
C16   C     C_R   0.203024 0.017467 0.965655 -0.126307
C17   C     C_R   0.238486 0.565551 0.068560 -0.004822
C18   C     C_R   0.745284 0.600077 0.917538 -0.010364
C19   C     C_R   0.754716 0.100077 0.082462 -0.010364
C20   C     C_R   0.261514 0.065551 0.931439 -0.004822
C21   C     C_R   0.180466 0.600672 0.026290 -0.154442
C22   C     C_R   0.784202 0.691800 0.950512 -0.160637
C23   C     C_R   0.715798 0.191800 0.049488 -0.160637
C24   C     C_R   0.319534 0.100672 0.973710 -0.154442
C25   C     C_R   0.183498 0.600257 0.951964 -0.171218
C26   C     C_R   0.772799 0.720703 0.021999 -0.175497
C27   C     C_R   0.727200 0.220703 0.978000 -0.175497
C28   C     C_R   0.316502 0.100258 0.048036 -0.171218
C29   C     C_R   0.245046 0.566207 0.917114 0.004789
C30   C     C_R   0.724322 0.657117 0.062659 0.005512
C31   C     C_R   0.775678 0.157117 0.937341 0.005512
C32   C     C_R   0.254954 0.066207 0.082886 0.004789
C33   C     C_R   0.500437 0.723889 0.536658 -0.157780
C34   C     C_R   0.499667 0.723854 0.463367 -0.157901
C35   C     C_R   0.000323 0.223849 0.536629 -0.157896
C36   C     C_R   0.999552 0.223884 0.463338 -0.157774
C37   C     C_R   0.501221 0.832290 0.425057 0.030975
C38   C     C_R   0.498747 0.832352 0.574926 0.031056
C39   C     C_R   0.001246 0.332351 0.425071 0.031030
C40   C     C_R   0.998772 0.332288 0.574940 0.030981
C41   C     C_R   0.495683 0.944230 0.461889 0.025670
C42   C     C_R   0.504111 0.944288 0.538040 0.025465
C43   C     C_R   0.995880 0.444290 0.461957 0.025454
C44   C     C_R   0.004308 0.444233 0.538108 0.025673
C45   C     C_R   0.437641 0.817083 0.862815 0.546536
C46   C     C_R   0.560558 0.817407 0.136779 0.537221
C47   C     C_R   0.939441 0.317407 0.863220 0.537223
C48   C     C_R   0.062359 0.317083 0.137185 0.546537
C49   C     C_R   0.226758 0.742055 0.517715 -0.125683
C50   C     C_R   0.773259 0.742009 0.482254 -0.125864
C51   C     C_R   0.726738 0.242007 0.517747 -0.125842
C52   C     C_R   0.273242 0.242054 0.482285 -0.125685
C53   C     C_R   0.217423 0.715805 0.444755 0.016546
C54   C     C_R   0.782632 0.715722 0.555197 0.016772
C55   C     C_R   0.717365 0.215719 0.444804 0.016779
C56   C     C_R   0.282576 0.215804 0.555245 0.016545
C57   C     C_R   0.256045 0.617833 0.415110 0.040638
C58   C     C_R   0.743982 0.617797 0.584867 0.040961
C59   C     C_R   0.756017 0.117798 0.415133 0.040961
C60   C     C_R   0.243954 0.117833 0.584890 0.040637
C61   C     C_R   0.314141 0.572512 0.453309 -0.163051
C62   C     C_R   0.685877 0.572486 0.546681 -0.162637
C63   C     C_R   0.814125 0.072491 0.453318 -0.162640
C64   C     C_R   0.185858 0.072513 0.546691 -0.163051
C65   C     C_R   0.324935 0.605240 0.524886 -0.145168
C66   C     C_R   0.675081 0.605192 0.475103 -0.145510
C67   C     C_R   0.824921 0.105199 0.524896 -0.145509
C68   C     C_R   0.175064 0.105242 0.475114 -0.145168
C69   C     C_R   0.276240 0.679635 0.558991 0.009480
C70   C     C_R   0.723762 0.679611 0.440996 0.007569
C71   C     C_R   0.776238 0.179613 0.559004 0.007586
C72   C     C_R   0.223759 0.179635 0.441009 0.009477
C73   C     C_R   0.258437 0.627646 0.847739 0.526333
C74   C     C_R   0.724964 0.683899 0.140716 0.545870
C75   C     C_R   0.775036 0.183898 0.859283 0.545871
C76   C     C_R   0.241563 0.127646 0.152261 0.526334
C77   C     C_R   0.270179 0.050939 0.648010 0.539811
C78   C     C_R   0.729813 0.050925 0.352000 0.538988
C79   C     C_R   0.770187 0.550925 0.648000 0.538988
C80   C     C_R   0.229821 0.550939 0.351990 0.539811
C81   C     C_R   0.470882 0.823805 0.647575 0.546406
C82   C     C_R   0.529115 0.823791 0.352421 0.547431
C83   C     C_R   0.970883 0.323791 0.647578 0.547431
C84   C     C_R   0.029117 0.323804 0.352424 0.546400
C85   C     C_R   0.275732 0.692896 0.637182 0.573780
C86   C     C_R   0.724266 0.692896 0.362814 0.576598
C87   C     C_R   0.775734 0.192896 0.637186 0.576603
C88   C     C_R   0.224268 0.192896 0.362818 0.573779
C89   C     C_3   0.476710 0.918814 0.042032 -0.103041
C90   C     C_3   0.507513 0.928497 0.965395 -0.103889
C91   C     C_3   0.992487 0.428497 0.034605 -0.103889
C92   C     C_3   0.023290 0.418814 0.957968 -0.103041
C93   C     C_3   0.429434 0.815872 0.015864 -0.002015
C94   C     C_3   0.563952 0.835475 0.985429 -0.001115
C95   C     C_3   0.936048 0.335475 0.014571 -0.001115
C96   C     C_3   0.070566 0.315872 0.984136 -0.002016
C97   C     C_3   0.460889 0.824757 0.939346 0.039073
C98   C     C_3   0.533085 0.825264 0.062212 0.050773
C99   C     C_3   0.966915 0.325264 0.937788 0.050774
C100  C     C_3   0.039111 0.324756 0.060653 0.039072
Cr1   Cr    Cr6+3 0.229630 0.835900 0.747350 0.976887
Cr2   Cr    Cr6+3 0.770370 0.835900 0.252650 0.974269
Cr3   Cr    Cr6+3 0.729630 0.335900 0.747350 0.974270
Cr4   Cr    Cr6+3 0.270370 0.335900 0.252650 0.976887
Cr5   Cr    Cr6+3 0.387410 0.989850 0.750850 0.978234
Cr6   Cr    Cr6+3 0.612590 0.989850 0.249150 0.977198
Cr7   Cr    Cr6+3 0.887410 0.489850 0.750850 0.977198
Cr8   Cr    Cr6+3 0.112590 0.489850 0.249150 0.978235
Cr9   Cr    Cr6+3 0.385800 0.677120 0.749340 0.963553
Cr10  Cr    Cr6+3 0.614200 0.677120 0.250660 0.963324
Cr11  Cr    Cr6+3 0.885800 0.177120 0.749340 0.963323
Cr12  Cr    Cr6+3 0.114200 0.177120 0.250660 0.963553
H1    H     H_    0.193390 0.807839 0.543350 0.120593
H2    H     H_    0.806623 0.807788 0.456609 0.120415
H3    H     H_    0.693372 0.307783 0.543393 0.120408
H4    H     H_    0.306611 0.307836 0.456650 0.120594
H5    H     H_    0.348136 0.505363 0.429815 0.114125
H6    H     H_    0.651878 0.505351 0.570184 0.114185
H7    H     H_    0.848124 0.005359 0.429814 0.114185
H8    H     H_    0.151862 0.005365 0.570185 0.114126
H9    H     H_    0.368322 0.566063 0.554677 0.130677
H10   H     H_    0.631704 0.565982 0.445313 0.130203
H11   H     H_    0.868301 0.065993 0.554685 0.130196
H12   H     H_    0.131675 0.066068 0.445324 0.130680
H13   H     H_    0.338802 0.482976 0.068167 0.132589
H14   H     H_    0.658390 0.479620 0.926238 0.138525
H15   H     H_    0.841610 0.979620 0.073762 0.138525
H16   H     H_    0.161198 0.982976 0.931833 0.132589
H17   H     H_    0.131127 0.624829 0.050481 0.145222
H18   H     H_    0.825824 0.736442 0.922010 0.143470
H19   H     H_    0.674176 0.236442 0.077990 0.143469
H20   H     H_    0.368873 0.124829 0.949519 0.145222
O1    O     O_R   0.214270 0.709000 0.827470 -0.517401
O2    O     O_R   0.785730 0.709000 0.172530 -0.510550
O3    O     O_R   0.714270 0.209000 0.827470 -0.510548
O4    O     O_R   0.285730 0.209000 0.172530 -0.517402
O5    O     O_R   0.445950 0.919440 0.676520 -0.500448
O6    O     O_R   0.554050 0.919440 0.323480 -0.499584
O7    O     O_R   0.945950 0.419440 0.676520 -0.499583
O8    O     O_R   0.054050 0.419440 0.323480 -0.500440
O9    O     O_R   0.456730 0.717630 0.669840 -0.532397
O10   O     O_R   0.543270 0.717630 0.330160 -0.532194
O11   O     O_R   0.956730 0.217630 0.669840 -0.532195
O12   O     O_R   0.043270 0.217630 0.330160 -0.532395
O13   O     O_R   0.320620 0.625640 0.672920 -0.522620
O14   O     O_R   0.679380 0.625640 0.327080 -0.516457
O15   O     O_R   0.820620 0.125640 0.672920 -0.516457
O16   O     O_R   0.179380 0.125640 0.327080 -0.522619
O17   O     O_3   0.334280 0.834290 0.749180 -0.277547
O18   O     O_3   0.665720 0.834290 0.250820 -0.294525
O19   O     O_3   0.834280 0.334290 0.749180 -0.294527
O20   O     O_3   0.165720 0.334290 0.250820 -0.277547
O21   O     O_R   0.236160 0.958490 0.823130 -0.504845
O22   O     O_R   0.763840 0.958490 0.176870 -0.526188
O23   O     O_R   0.736160 0.458490 0.823130 -0.526188
O24   O     O_R   0.263840 0.458490 0.176870 -0.504845
O25   O     O_R   0.332080 0.075470 0.831280 -0.534838
O26   O     O_R   0.667920 0.075470 0.168720 -0.528712
O27   O     O_R   0.832080 0.575470 0.831280 -0.528712
O28   O     O_R   0.167920 0.575470 0.168720 -0.534840
O29   O     O_R   0.446300 0.918110 0.826620 -0.503336
O30   O     O_R   0.553700 0.918110 0.173380 -0.497267
O31   O     O_R   0.946300 0.418110 0.826620 -0.497267
O32   O     O_R   0.053700 0.418110 0.173380 -0.503332
O33   O     O_R   0.457110 0.716200 0.831760 -0.535056
O34   O     O_R   0.542890 0.716200 0.168240 -0.545056
O35   O     O_R   0.957110 0.216200 0.831760 -0.545057
O36   O     O_R   0.042890 0.216200 0.168240 -0.535057
O37   O     O_R   0.320980 0.624310 0.823030 -0.534215
O38   O     O_R   0.679020 0.624310 0.176970 -0.531057
O39   O     O_R   0.820980 0.124310 0.823030 -0.531058
O40   O     O_R   0.179020 0.124310 0.176970 -0.534215
O41   O     O_R   0.213890 0.710430 0.665540 -0.543350
O42   O     O_R   0.786110 0.710430 0.334460 -0.536621
O43   O     O_R   0.713890 0.210430 0.665540 -0.536625
O44   O     O_R   0.286110 0.210430 0.334460 -0.543352
O45   O     O_R   0.235810 0.959820 0.673020 -0.522273
O46   O     O_R   0.764190 0.959820 0.326980 -0.523207
O47   O     O_R   0.735810 0.459820 0.673020 -0.523209
O48   O     O_R   0.264190 0.459820 0.326980 -0.522272
O49   O     O_R   0.331700 0.076900 0.669350 -0.530196
O50   O     O_R   0.668300 0.076900 0.330650 -0.530784
O51   O     O_R   0.831700 0.576900 0.669350 -0.530783
O52   O     O_R   0.168300 0.576900 0.330650 -0.530199
C101  C     C_3   0.355867 0.804749 0.042820 -0.289910
C102  C     C_3   0.309508 0.800285 0.977808 -0.387460
H21   H     H_    0.320029 0.875131 0.941844 0.157356
H22   H     H_    0.328119 0.725452 0.945851 0.160482
H23   H     H_    0.253891 0.795074 0.992385 0.174541
H24   H     H_    0.350669 0.721985 0.075594 0.148227
H25   H     H_    0.342607 0.880443 0.078608 0.159675
C103  C     C_3   0.628303 0.844024 0.940323 -0.305771
C104  C     C_3   0.674774 0.941079 0.966608 -0.417693
H26   H     H_    0.647443 0.028772 0.960941 0.175186
H27   H     H_    0.688436 0.922438 0.023710 0.164247
H28   H     H_    0.721534 0.938141 0.932222 0.166802
H29   H     H_    0.654849 0.758726 0.941309 0.177164
H30   H     H_    0.613752 0.861882 0.882882 0.165166
C105  C     C_3   0.871697 0.344024 0.059676 -0.305771
C106  C     C_3   0.825226 0.441078 0.033392 -0.417693
H31   H     H_    0.852557 0.528772 0.039059 0.175186
H32   H     H_    0.811564 0.422437 0.976290 0.164247
H33   H     H_    0.778466 0.438140 0.067778 0.166802
H34   H     H_    0.845151 0.258725 0.058691 0.177164
H35   H     H_    0.886248 0.361881 0.117118 0.165167
C107  C     C_3   0.144133 0.304749 0.957180 -0.289911
C108  C     C_3   0.190492 0.300286 0.022191 -0.387461
H36   H     H_    0.179971 0.375132 0.058154 0.157356
H37   H     H_    0.171881 0.225453 0.054149 0.160482
H38   H     H_    0.246109 0.295075 0.007614 0.174541
H39   H     H_    0.149331 0.221985 0.924405 0.148228
H40   H     H_    0.157392 0.380443 0.921391 0.159675
C109  C     C_3   0.165059 0.791999 0.402370 -0.262171
C110  C     C_3   0.198651 0.851095 0.336755 -0.388956
H41   H     H_    0.240876 0.913613 0.354639 0.166508
H42   H     H_    0.221442 0.783404 0.299785 0.156406
H43   H     H_    0.158151 0.901935 0.305929 0.156267
H44   H     H_    0.118011 0.739755 0.386418 0.158835
H45   H     H_    0.143995 0.864717 0.436779 0.110146
C111  C     C_3   0.835067 0.791845 0.597528 -0.264813
C112  C     C_3   0.801532 0.851049 0.663132 -0.383951
H46   H     H_    0.759302 0.913551 0.645238 0.168910
H47   H     H_    0.778757 0.783425 0.700158 0.156966
H48   H     H_    0.842067 0.901924 0.693884 0.159536
H49   H     H_    0.882092 0.739528 0.613469 0.158847
H50   H     H_    0.856163 0.864508 0.563094 0.109928
C113  C     C_3   0.664927 0.291838 0.402475 -0.264815
C114  C     C_3   0.698460 0.351049 0.336872 -0.383958
H51   H     H_    0.740689 0.413550 0.354766 0.168912
H52   H     H_    0.721233 0.283429 0.299843 0.156969
H53   H     H_    0.657923 0.401925 0.306123 0.159534
H54   H     H_    0.617903 0.239518 0.386534 0.158852
H55   H     H_    0.643829 0.364498 0.436910 0.109920
C115  C     C_3   0.334939 0.292000 0.597630 -0.262172
C116  C     C_3   0.301345 0.351096 0.663245 -0.388957
H56   H     H_    0.259120 0.413613 0.645359 0.166508
H57   H     H_    0.278554 0.283404 0.700214 0.156405
H58   H     H_    0.341844 0.401936 0.694071 0.156270
H59   H     H_    0.381987 0.239758 0.613584 0.158836
H60   H     H_    0.356003 0.364717 0.563222 0.110146
H61   H     H_    0.460559 0.996951 0.075354 0.115222
H62   H     H_    0.516161 0.015331 0.936889 0.121243
H63   H     H_    0.983838 0.515331 0.063111 0.121243
H64   H     H_    0.039441 0.496951 0.924646 0.115222
H65   H     H_    0.534649 0.653310 0.929815 0.132582
H66   H     H_    0.473057 0.635426 0.063554 0.122062
H67   H     H_    0.026943 0.135426 0.936446 0.122062
H68   H     H_    0.965351 0.153310 0.070185 0.132581
C117  C     C_3   0.363690 0.456029 0.921934 -0.263286
C118  C     C_3   0.408098 0.375518 0.970602 -0.481535
H69   H     H_    0.435032 0.432590 0.011010 0.135494
H70   H     H_    0.375028 0.311524 0.000111 0.157387
H71   H     H_    0.447367 0.325728 0.938415 0.141572
H72   H     H_    0.345703 0.401355 0.874902 0.155934
H73   H     H_    0.398926 0.528679 0.903108 0.188923
C119  C     C_3   0.624367 0.498197 0.068895 -0.263916
C120  C     C_3   0.574242 0.418296 0.025671 -0.492880
H74   H     H_    0.546940 0.471729 0.983568 0.145281
H75   H     H_    0.600294 0.341752 0.999844 0.142210
H76   H     H_    0.535798 0.379040 0.063487 0.137146
H77   H     H_    0.651726 0.440547 0.109333 0.159175
H78   H     H_    0.589922 0.561320 0.097063 0.200769
C121  C     C_3   0.875633 0.998197 0.931105 -0.263916
C122  C     C_3   0.925758 0.918296 0.974329 -0.492881
H79   H     H_    0.953060 0.971728 0.016432 0.145281
H80   H     H_    0.899706 0.841751 0.000156 0.142210
H81   H     H_    0.964202 0.879039 0.936513 0.137147
H82   H     H_    0.848274 0.940547 0.890667 0.159175
H83   H     H_    0.910078 0.061319 0.902937 0.200769
C123  C     C_3   0.136310 0.956029 0.078066 -0.263286
C124  C     C_3   0.091902 0.875518 0.029398 -0.481535
H84   H     H_    0.064968 0.932591 0.988990 0.135494
H85   H     H_    0.124972 0.811524 0.999889 0.157387
H86   H     H_    0.052633 0.825728 0.061585 0.141572
H87   H     H_    0.154296 0.901355 0.125098 0.155933
H88   H     H_    0.101074 0.028679 0.096892 0.188923
H89   H     H_    0.138982 0.635364 0.921875 0.127569
H90   H     H_    0.803903 0.789470 0.047588 0.131460
H91   H     H_    0.696097 0.289470 0.952411 0.131460
H92   H     H_    0.361018 0.135364 0.078125 0.127569
H93   H     H_    0.499004 0.636706 0.563090 0.132116
H94   H     H_    0.501217 0.636650 0.436971 0.132023
H95   H     H_    0.998771 0.136641 0.563023 0.132016
H96   H     H_    0.000983 0.136699 0.436907 0.132111
C125  C     C_3   0.476885 0.060064 0.421329 -0.278689
C126  C     C_3   0.413883 0.044303 0.370438 -0.404870
H97   H     H_    0.421390 0.971044 0.330650 0.155550
H98   H     H_    0.366048 0.024992 0.402007 0.165185
H99   H     H_    0.406459 0.129098 0.339592 0.168813
H100  H     H_    0.460953 0.132943 0.458639 0.119941
H101  H     H_    0.522633 0.094303 0.391370 0.167565
C127  C     C_3   0.522781 0.060249 0.578527 -0.280115
C128  C     C_3   0.585868 0.044806 0.629332 -0.401434
H102  H     H_    0.578438 0.971744 0.669265 0.157557
H103  H     H_    0.633653 0.025374 0.597714 0.164977
H104  H     H_    0.593323 0.129774 0.659999 0.171165
H105  H     H_    0.538561 0.133156 0.541170 0.119553
H106  H     H_    0.477025 0.094333 0.608531 0.167890
C129  C     C_3   0.977211 0.560251 0.421465 -0.280101
C130  C     C_3   0.914112 0.544809 0.370673 -0.401324
H107  H     H_    0.921492 0.471607 0.330803 0.157501
H108  H     H_    0.866313 0.525551 0.402323 0.165004
H109  H     H_    0.906710 0.629730 0.339926 0.171133
H110  H     H_    0.961446 0.633177 0.458817 0.119529
H111  H     H_    0.022965 0.594317 0.391449 0.167898
C131  C     C_3   0.023106 0.560070 0.578667 -0.278677
C132  C     C_3   0.086107 0.544308 0.629562 -0.404868
H112  H     H_    0.078597 0.471065 0.669363 0.155554
H113  H     H_    0.133938 0.524971 0.597992 0.165179
H114  H     H_    0.093538 0.629114 0.660396 0.168811
H115  H     H_    0.039042 0.632945 0.541357 0.119940
H116  H     H_    0.977357 0.594314 0.608623 0.167562

loop_
_geom_bond_atom_site_label_1
_geom_bond_atom_site_label_2
_ccdc_geom_bond_type
C49   H1    S    
C119  H78   S    
C109  H45   S    
C101  H24   S    
Cr8   O32   S    
C7    C99   S    
C55   C59   A    
C5    C6    S    
C95   C99   S    
C118  H70   S    
C124  H84   S    
C105  H35   S    
C9    C13   A    
C11   C15   A    
C12   C16   A    
C108  H38   S    
C77   O49   A    
C66   H10   S    
C103  H30   S    
C91   C100  S    
C40   C44   A    
C13   H13   S    
C118  H71   S    
C46   C98   S    
C105  C106  S    
C49   C69   A    
C22   H18   S    
C40   C83   S    
C127  H105  S    
C51   C71   A    
C41   C125  S    
C83   O7    A    
C114  H51   S    
C28   H92   S    
C33   H93   S    
C25   C29   A    
C64   H8    S    
C113  H55   S    
Cr8   O52   S    
C27   C31   A    
C28   C32   A    
C15   H15   S    
C107  C108  S    
C17   C21   A    
C86   O42   A    
C19   C23   A    
C43   C44   A    
C52   C72   A    
C10   C30   A    
C113  C114  S    
Cr9   O17   S    
C16   C20   A    
C131  C132  S    
C88   O16   A    
C58   C79   S    
C117  H73   S    
C34   H94   S    
C38   C81   S    
C105  H34   S    
C79   O47   A    
Cr11  O35   S    
C26   H90   S    
C130  H107  S    
C1    C20   S    
C126  H99   S    
C2    C19   S    
C6    H66   S    
Cr9   O13   S    
Cr10  O18   S    
C67   H11   S    
C39   C43   A    
C57   C61   A    
C48   O32   A    
Cr1   O1    S    
C112  H48   S    
C59   C63   A    
C33   C38   A    
C14   H14   S    
C60   C64   A    
Cr4   O20   S    
C35   C40   A    
C50   C70   A    
C82   O6    A    
C126  H98   S    
C66   C70   A    
C49   C53   A    
C74   O2    A    
C51   C55   A    
C61   C65   A    
C106  H32   S    
C104  H26   S    
C120  H75   S    
C102  H21   S    
C114  H53   S    
C83   O11   A    
Cr6   O18   S    
Cr1   O41   S    
C7    C8    S    
Cr4   O44   S    
C117  C118  S    
C112  H46   S    
C64   C68   A    
C85   O13   A    
C39   C84   S    
C30   C74   S    
C110  H42   S    
C84   O12   A    
C7    H67   S    
C92   C96   S    
C47   C99   S    
C120  H74   S    
C55   C113  S    
C76   O40   A    
C45   O29   A    
C122  H79   S    
C129  H110  S    
Cr3   O47   S    
C130  H109  S    
Cr11  O11   S    
Cr7   O19   S    
C2    O22   A    
C3    O27   A    
C57   C80   S    
C56   C115  S    
C8    C95   S    
C59   C78   S    
C111  C112  S    
Cr9   O37   S    
C62   C66   A    
C111  H50   S    
C10   C14   A    
C91   C92   S    
C129  H111  S    
C77   O45   A    
C78   O50   A    
C63   C67   A    
C128  H102  S    
C107  H40   S    
C63   H7    S    
C104  H28   S    
C23   H19   S    
C115  H60   S    
C21   H17   S    
Cr7   O31   S    
C26   C30   A    
C90   H62   S    
Cr2   O46   S    
C116  H58   S    
Cr5   O29   S    
C93   C97   S    
C69   C85   S    
C21   C25   A    
C53   C109  S    
Cr4   O4    S    
C18   C22   A    
C123  H87   S    
C36   C39   A    
C24   C28   A    
C91   H63   S    
C32   C76   S    
C109  H44   S    
C87   O43   A    
C125  H101  S    
C131  H115  S    
C88   O44   A    
C13   C17   A    
C89   C98   S    
C120  H76   S    
C8    C100  S    
C122  H81   S    
C96   C100  S    
C79   O51   A    
C5    C97   S    
Cr11  O39   S    
C80   O52   A    
C37   C41   A    
Cr5   O5    S    
C121  H83   S    
C108  H37   S    
Cr9   O9    S    
Cr5   O49   S    
Cr10  O14   S    
Cr7   O7    S    
C92   C99   S    
C58   C62   A    
C124  H86   S    
C34   C37   A    
C41   C42   A    
C127  H106  S    
C35   C36   A    
C82   O10   A    
C114  H52   S    
C5    C94   S    
C121  C122  S    
C109  C110  S    
C81   O5    A    
C7    C96   S    
C50   C54   A    
C87   O15   A    
C10   C119  S    
C6    C98   S    
C12   C123  S    
C128  H104  S    
C75   O3    A    
C94   C98   S    
C44   C131  S    
Cr8   O20   S    
Cr5   O25   S    
C116  H56   S    
Cr12  O20   S    
C90   C94   S    
C65   H9    S    
Cr2   O22   S    
C90   C97   S    
Cr3   O19   S    
C47   O31   A    
C117  H72   S    
C119  H77   S    
C48   C100  S    
C86   O14   A    
C130  H108  S    
C101  H25   S    
C52   H4    S    
C121  H82   S    
C61   H5    S    
C108  H36   S    
C53   C57   A    
C118  H69   S    
C51   H3    S    
C132  H112  S    
C129  C130  S    
C125  C126  S    
Cr11  O15   S    
C24   H20   S    
C31   C75   S    
C2    O26   A    
C6    C93   S    
C3    O23   A    
C103  H29   S    
C1    O21   A    
Cr9   O33   S    
Cr2   O18   S    
C71   C87   S    
C4    C17   S    
Cr10  O38   S    
Cr3   O23   S    
C4    O24   A    
C37   C82   S    
C115  C116  S    
C73   O37   A    
C46   O34   A    
C78   O46   A    
C5    H65   S    
C132  H114  S    
C102  H23   S    
C101  C102  S    
Cr12  O40   S    
C65   C69   A    
C67   C71   A    
Cr6   O30   S    
C62   H6    S    
Cr1   O45   S    
C56   C60   A    
C8    H68   S    
C122  H80   S    
C22   C26   A    
C123  C124  S    
C50   H2    S    
C89   C90   S    
C45   O33   A    
C93   C101  S    
C92   H64   S    
C14   C18   A    
C68   H12   S    
C76   O4    A    
Cr4   O48   S    
C80   O48   A    
C127  C128  S    
C38   C42   A    
C126  H97   S    
Cr6   O6    S    
C29   C73   S    
Cr12  O36   S    
C3    C18   S    
Cr10  O10   S    
Cr3   O3    S    
Cr6   O50   S    
C15   C19   A    
C107  H39   S    
C20   C24   A    
C35   H95   S    
C106  H31   S    
C104  H27   S    
C85   O41   A    
C11   C121  S    
C68   C72   A    
C128  H103  S    
C81   O9    A    
C113  H54   S    
C11   C31   A    
C12   C32   A    
C89   C93   S    
C116  H57   S    
Cr3   O43   S    
C72   C88   S    
C42   C127  S    
C60   C77   S    
C123  H88   S    
C36   H96   S    
C25   H89   S    
Cr8   O8    S    
C110  H41   S    
C27   H91   S    
Cr6   O26   S    
C91   C95   S    
C125  H100  S    
C131  H116  S    
Cr12  O16   S    
Cr7   O51   S    
C132  H113  S    
C9    C117  S    
Cr2   O2    S    
C47   O35   A    
C96   C107  S    
C48   O36   A    
Cr1   O21   S    
C119  C120  S    
C33   C34   A    
Cr4   O24   S    
C16   H16   S    
C73   O1    A    
C23   C27   A    
C75   O39   A    
C89   H61   S    
C70   C86   S    
C54   C58   A    
C124  H85   S    
C43   C129  S    
C110  H43   S    
Cr11  O19   S    
Cr7   O27   S    
C54   C111  S    
Cr8   O28   S    
C9    C29   A    
Cr2   O42   S    
Cr5   O17   S    
C103  C104  S    
Cr12  O12   S    
C1    O25   A    
C112  H47   S    
C45   C97   S    
Cr10  O34   S    
C4    O28   A    
C106  H33   S    
Cr1   O17   S    
C111  H49   S    
C115  H59   S    
C94   C103  S    
C74   O38   A    
C84   O8    A    
C95   C105  S    
C46   O30   A    
C102  H22   S    
C52   C56   A    
