data_mof_unit_66885.cif
_audit_creation_date              2013-03-05T15:57:24-0500
_audit_creation_method            fapswitch 2.2
_symmetry_space_group_name_H-M    P1
_symmetry_Int_Tables_number       1
_space_group_crystal_system       triclinic
_cell_length_a                    17.358968
_cell_length_b                    18.267545
_cell_length_c                    8.422799
_cell_angle_alpha                 90.0
_cell_angle_beta                  101.121833
_cell_angle_gamma                 89.999655
_cell_volume                      2620.75592667

loop_
_atom_site_label
_atom_site_type_symbol
_atom_site_description
_atom_site_fract_x
_atom_site_fract_y
_atom_site_fract_z
_atom_type_partial_charge
P1    P     P_3+3 0.834140 0.419320 0.003900 0.455621
P2    P     P_3+3 0.834140 0.580680 0.503900 0.455633
P3    P     P_3+3 0.334140 0.919320 0.003900 0.455623
P4    P     P_3+3 0.334140 0.080680 0.503900 0.455636
O1    O     O_2   0.841960 0.394640 0.833410 -0.378887
O2    O     O_2   0.841960 0.605360 0.333410 -0.378888
O3    O     O_2   0.341960 0.894640 0.833410 -0.378919
O4    O     O_2   0.341960 0.105360 0.333410 -0.378899
O5    O     O_3   0.907950 0.463080 0.102990 -0.397411
O6    O     O_3   0.907950 0.536920 0.602990 -0.397408
O7    O     O_3   0.407950 0.963080 0.102990 -0.397390
O8    O     O_3   0.407950 0.036920 0.602990 -0.397401
O9    O     O_3   0.972780 0.329600 0.629720 -0.384573
O10   O     O_3   0.972780 0.670400 0.129720 -0.384555
O11   O     O_3   0.472780 0.829600 0.629720 -0.384545
O12   O     O_3   0.472780 0.170400 0.129720 -0.384534
O13   O     O_2   0.853947 0.251871 0.706960 -0.411262
O14   O     O_2   0.853964 0.748159 0.206950 -0.411323
O15   O     O_2   0.353968 0.751829 0.706930 -0.411414
O16   O     O_2   0.353973 0.248177 0.206922 -0.411433
O17   O     O_3   0.752580 0.477035 0.962410 -0.587166
O18   O     O_3   0.752579 0.522968 0.462398 -0.587158
O19   O     O_3   0.252581 0.977037 0.962406 -0.587161
O20   O     O_3   0.252574 0.022973 0.462398 -0.587136
O21   O     O_3   0.951608 0.178312 0.563107 -0.593032
O22   O     O_3   0.951640 0.821684 0.063060 -0.592985
O23   O     O_3   0.451654 0.678326 0.563026 -0.592847
O24   O     O_3   0.451670 0.321674 0.063040 -0.592862
H1    H     H_    0.022077 0.216179 0.779267 0.137152
H2    H     H_    0.022067 0.783837 0.279284 0.137118
H3    H     H_    0.522023 0.716156 0.779335 0.137083
H4    H     H_    0.522019 0.283841 0.279367 0.137104
C1    C     C_3   0.985414 0.104858 0.796893 -0.950496
C2    C     C_3   0.985384 0.895160 0.296828 -0.950707
C3    C     C_3   0.485400 0.604806 0.796717 -0.951014
C4    C     C_3   0.485396 0.395193 0.296739 -0.951021
H5    H     H_    0.534793 0.579190 0.880578 0.257968
H6    H     H_    0.534781 0.420812 0.380606 0.257955
H7    H     H_    0.034817 0.079243 0.880727 0.257915
H8    H     H_    0.034773 0.920786 0.380679 0.257903
H9    H     H_    0.944355 0.128700 0.867036 0.263762
H10   H     H_    0.944313 0.871324 0.366951 0.263741
H11   H     H_    0.444290 0.628593 0.866811 0.263640
H12   H     H_    0.444283 0.371407 0.366828 0.263641
P5    P     P_3+3 0.165830 0.418670 0.685610 0.448111
P6    P     P_3+3 0.165830 0.581330 0.185610 0.448105
P7    P     P_3+3 0.665830 0.918670 0.685610 0.448119
P8    P     P_3+3 0.665830 0.081330 0.185610 0.448111
P9    P     P_3+3 0.100138 0.263454 0.117637 0.414728
P10   P     P_3+3 0.100143 0.736542 0.617632 0.414725
P11   P     P_3+3 0.600160 0.763470 0.117619 0.414708
P12   P     P_3+3 0.600167 0.236524 0.617614 0.414704
O25   O     O_2   0.157990 0.394030 0.856030 -0.381925
O26   O     O_2   0.157990 0.605970 0.356030 -0.381870
O27   O     O_2   0.657990 0.894030 0.856030 -0.381851
O28   O     O_2   0.657990 0.105970 0.356030 -0.381824
O29   O     O_3   0.027110 0.329490 0.059550 -0.372399
O30   O     O_3   0.027110 0.670510 0.559550 -0.372405
O31   O     O_3   0.527110 0.829490 0.059550 -0.372451
O32   O     O_3   0.527110 0.170510 0.559550 -0.372459
O33   O     O_2   0.153562 0.264282 0.990412 -0.411941
O34   O     O_2   0.153585 0.735685 0.490445 -0.411914
O35   O     O_2   0.653629 0.764381 0.990489 -0.411855
O36   O     O_2   0.653626 0.235618 0.490465 -0.411878
O37   O     O_3   0.246453 0.476907 0.720474 -0.567335
O38   O     O_3   0.246455 0.523095 0.220480 -0.567336
O39   O     O_3   0.746453 0.976900 0.720387 -0.567407
O40   O     O_3   0.746449 0.023093 0.220424 -0.567389
O41   O     O_3   0.053409 0.178581 0.091704 -0.550934
O42   O     O_3   0.053436 0.821424 0.591612 -0.550953
O43   O     O_3   0.553502 0.678570 0.091471 -0.550972
O44   O     O_3   0.553511 0.321426 0.591496 -0.550985
C5    C     C_3   0.996114 0.176316 0.189529 0.421131
C6    C     C_3   0.996120 0.823730 0.689380 0.421208
C7    C     C_3   0.496112 0.676212 0.189061 0.421255
C8    C     C_3   0.496130 0.323779 0.689105 0.421249
H13   H     H_    0.943267 0.207475 0.130755 0.098374
H14   H     H_    0.943248 0.792631 0.630529 0.098375
H15   H     H_    0.443200 0.707199 0.129983 0.098386
H16   H     H_    0.443223 0.292784 0.630047 0.098401
H17   H     H_    0.018232 0.199088 0.312257 0.104856
H18   H     H_    0.018180 0.800922 0.812097 0.104872
H19   H     H_    0.518039 0.699106 0.311750 0.104851
H20   H     H_    0.518069 0.300890 0.811791 0.104856
C9    C     C_3   0.972858 0.097116 0.211703 -1.005921
C10   C     C_3   0.972954 0.902948 0.711602 -1.006295
C11   C     C_3   0.473104 0.596962 0.211421 -1.006716
C12   C     C_3   0.473106 0.403024 0.711459 -1.006742
H21   H     H_    0.435644 0.593448 0.304028 0.272555
H22   H     H_    0.435670 0.406535 0.804110 0.272554
H23   H     H_    0.935662 0.093659 0.304817 0.272602
H24   H     H_    0.935679 0.906434 0.804562 0.272566
H25   H     H_    0.938891 0.074025 0.099004 0.250297
H26   H     H_    0.939127 0.926114 0.598867 0.250380
H27   H     H_    0.439575 0.573620 0.098612 0.250459
H28   H     H_    0.439541 0.426345 0.598665 0.250460
C13   C     C_3   0.222750 0.454817 0.267516 0.424119
C14   C     C_3   0.222751 0.545181 0.767550 0.424123
C15   C     C_3   0.722763 0.954823 0.267549 0.423896
C16   C     C_3   0.722781 0.045171 0.767534 0.423801
H29   H     H_    0.198097 0.460390 0.378657 0.103868
H30   H     H_    0.198108 0.539597 0.878702 0.103859
H31   H     H_    0.698202 0.960415 0.378800 0.103943
H32   H     H_    0.698270 0.039579 0.878848 0.103913
H33   H     H_    0.179541 0.428676 0.169392 0.133013
H34   H     H_    0.179534 0.571330 0.669449 0.132992
H35   H     H_    0.679488 0.928681 0.169539 0.133005
H36   H     H_    0.679474 0.071310 0.669577 0.133018
C17   C     C_3   0.294872 0.407371 0.303473 -0.989750
C18   C     C_3   0.294875 0.592626 0.803507 -0.989634
C19   C     C_3   0.794883 0.907370 0.303315 -0.989296
C20   C     C_3   0.794904 0.092624 0.803180 -0.989167
H37   H     H_    0.339158 0.436635 0.392904 0.258714
H38   H     H_    0.339181 0.563339 0.892863 0.258711
H39   H     H_    0.839308 0.936779 0.392195 0.258736
H40   H     H_    0.839387 0.063158 0.891827 0.258707
H41   H     H_    0.282886 0.354083 0.354919 0.244472
H42   H     H_    0.282898 0.645898 0.855056 0.244416
H43   H     H_    0.782990 0.854183 0.355380 0.244296
H44   H     H_    0.783055 0.145774 0.855487 0.244256
H45   H     H_    0.317229 0.397991 0.190217 0.289636
H46   H     H_    0.317204 0.602046 0.690225 0.289632
H47   H     H_    0.817031 0.897783 0.189876 0.289603
H48   H     H_    0.816962 0.102285 0.689659 0.289608
Ba1   Ba    Ba6+2 0.000000 0.447380 0.844850 1.528896
Ba2   Ba    Ba6+2 0.000000 0.552620 0.344850 1.528902
Ba3   Ba    Ba6+2 0.500000 0.947380 0.844850 1.528906
Ba4   Ba    Ba6+2 0.500000 0.052620 0.344850 1.528910
C21   C     C_3   0.774093 0.549855 0.943719 0.370349
C22   C     C_3   0.774089 0.450148 0.443711 0.370322
C23   C     C_3   0.274097 0.049851 0.943641 0.370395
C24   C     C_3   0.274079 0.950154 0.443666 0.370332
H49   H     H_    0.766215 0.561618 0.812743 0.075311
H50   H     H_    0.766194 0.438377 0.312737 0.075332
H51   H     H_    0.266186 0.061600 0.812653 0.075302
H52   H     H_    0.266157 0.938389 0.312687 0.075332
H53   H     H_    0.834810 0.564182 0.003253 0.143920
H54   H     H_    0.834810 0.435821 0.503216 0.143914
H55   H     H_    0.334825 0.064174 0.003099 0.143849
H56   H     H_    0.334809 0.935829 0.503111 0.143850
C25   C     C_3   0.719376 0.597835 0.017618 -0.887841
C26   C     C_3   0.719384 0.402176 0.517653 -0.887854
C27   C     C_3   0.219415 0.097852 0.017583 -0.887798
C28   C     C_3   0.219400 0.902171 0.517648 -0.887813
H57   H     H_    0.712623 0.575239 0.136289 0.273556
H58   H     H_    0.712681 0.424766 0.636365 0.273573
H59   H     H_    0.212665 0.075247 0.136260 0.273548
H60   H     H_    0.212692 0.924776 0.636353 0.273547
H61   H     H_    0.661029 0.598816 0.939156 0.246216
H62   H     H_    0.661014 0.401228 0.439259 0.246238
H63   H     H_    0.161056 0.098867 0.939130 0.246141
H64   H     H_    0.161022 0.901189 0.439250 0.246198
H65   H     H_    0.742743 0.654197 0.033147 0.252283
H66   H     H_    0.742730 0.345803 0.533107 0.252286
H67   H     H_    0.242819 0.154205 0.033137 0.252289
H68   H     H_    0.242780 0.845805 0.533151 0.252287
O45   O     O_3   0.092100 0.536880 0.086720 -0.409265
O46   O     O_3   0.092100 0.463120 0.586720 -0.409240
O47   O     O_3   0.592100 0.036880 0.086720 -0.409205
O48   O     O_3   0.592100 0.963120 0.586720 -0.409198
P13   P     P_3+3 0.902033 0.738629 0.071131 0.408514
P14   P     P_3+3 0.902022 0.261380 0.571147 0.408504
P15   P     P_3+3 0.402042 0.238633 0.071109 0.408538
P16   P     P_3+3 0.402035 0.761373 0.571112 0.408555
C29   C     C_3   0.011246 0.167347 0.699232 0.725623
C30   C     C_3   0.011248 0.832664 0.199230 0.725813
C31   C     C_3   0.511247 0.667346 0.699219 0.726022
C32   C     C_3   0.511252 0.332653 0.199254 0.726045
H69   H     H_    0.454441 0.561562 0.716312 0.262587
H70   H     H_    0.454440 0.438435 0.216321 0.262583
H71   H     H_    0.954402 0.061602 0.716593 0.262501
H72   H     H_    0.954383 0.938408 0.216486 0.262513
H73   H     H_    0.526478 0.563001 0.247930 0.272211
H74   H     H_    0.526472 0.437000 0.747906 0.272227
H75   H     H_    0.026135 0.062914 0.247456 0.272129
H76   H     H_    0.026264 0.937067 0.747585 0.272174
C33   C     C_R   0.139287 0.676312 0.926423 -0.511509
C34   C     C_R   0.139294 0.323692 0.426416 -0.511576
C35   C     C_R   0.639306 0.176297 0.926406 -0.511494
C36   C     C_R   0.639287 0.823690 0.426421 -0.511456
C37   C     C_R   0.857620 0.325937 0.267481 -0.543709
C38   C     C_R   0.857625 0.674067 0.767474 -0.543650
C39   C     C_R   0.357629 0.825931 0.267461 -0.543589
C40   C     C_R   0.357637 0.174074 0.767455 -0.543592
C41   C     C_R   0.787256 0.215263 0.304449 -0.173436
C42   C     C_R   0.787258 0.784740 0.804442 -0.173441
C43   C     C_R   0.287259 0.715261 0.304438 -0.173518
C44   C     C_R   0.287266 0.284744 0.804431 -0.173534
C45   C     C_R   0.841592 0.269753 0.366797 0.240858
C46   C     C_R   0.841597 0.730252 0.866787 0.240883
C47   C     C_R   0.341601 0.769747 0.366774 0.240926
C48   C     C_R   0.341610 0.230259 0.866767 0.240923
C49   C     C_R   0.815059 0.333798 0.110109 0.303156
C50   C     C_R   0.815058 0.666202 0.610107 0.303148
C51   C     C_R   0.315058 0.833799 0.110102 0.303096
C52   C     C_R   0.315064 0.166205 0.610097 0.303114
C53   C     C_R   0.756303 0.280749 0.046913 -0.067180
C54   C     C_R   0.756297 0.719247 0.546915 -0.067179
C55   C     C_R   0.256295 0.780755 0.046913 -0.067183
C56   C     C_R   0.256302 0.219250 0.546906 -0.067167
C57   C     C_R   0.242578 0.720107 0.145461 -0.088265
C58   C     C_R   0.242586 0.279898 0.645454 -0.088255
C59   C     C_R   0.742582 0.220104 0.145465 -0.088284
C60   C     C_R   0.742578 0.779894 0.645464 -0.088304
C61   C     C_R   0.183396 0.667443 0.081975 0.304438
C62   C     C_R   0.183401 0.332561 0.581969 0.304474
C63   C     C_R   0.683402 0.167438 0.081971 0.304289
C64   C     C_R   0.683393 0.832557 0.581976 0.304355
C65   C     C_R   0.156048 0.731897 0.826825 0.221347
C66   C     C_R   0.156057 0.268109 0.326817 0.221286
C67   C     C_R   0.656067 0.231882 0.826811 0.221675
C68   C     C_R   0.656049 0.768105 0.326826 0.221613
C69   C     C_R   0.211720 0.785387 0.888129 -0.186771
C70   C     C_R   0.211727 0.214618 0.388122 -0.186782
C71   C     C_R   0.711738 0.285372 0.888118 -0.186721
C72   C     C_R   0.711726 0.714619 0.388126 -0.186774
H77   H     H_    0.281137 0.669543 0.381974 0.190738
H78   H     H_    0.281141 0.330461 0.881969 0.190724
H79   H     H_    0.781135 0.169544 0.381982 0.190666
H80   H     H_    0.781138 0.830460 0.881973 0.190679
H81   H     H_    0.719201 0.330110 0.810466 0.178689
H82   H     H_    0.719192 0.669881 0.310473 0.178694
H83   H     H_    0.219181 0.830127 0.810480 0.178703
H84   H     H_    0.219185 0.169875 0.310476 0.178711
H85   H     H_    0.094224 0.636959 0.878057 0.168037
H86   H     H_    0.094228 0.363044 0.378052 0.168048
H87   H     H_    0.594250 0.136938 0.878032 0.168030
H88   H     H_    0.594228 0.863047 0.378051 0.168028
H89   H     H_    0.902577 0.365398 0.315701 0.174722
H90   H     H_    0.902583 0.634607 0.815693 0.174717
H91   H     H_    0.402590 0.865388 0.315676 0.174719
H92   H     H_    0.402599 0.134617 0.815670 0.174714
N1    N     N_2   0.083933 0.150627 0.645339 -0.129595
H93   H     H_    0.134129 0.172377 0.714462 0.154188
C73   C     C_3   0.093809 0.078952 0.578531 -0.908003
H94   H     H_    0.125422 0.042107 0.673967 0.257963
H95   H     H_    0.128146 0.084728 0.481519 0.283597
H96   H     H_    0.036605 0.053548 0.526343 0.273309
N2    N     N_2   0.083952 0.849384 0.145414 -0.129568
H97   H     H_    0.134139 0.827646 0.214599 0.154212
C74   C     C_3   0.093831 0.921059 0.078611 -0.908100
H98   H     H_    0.125403 0.957916 0.174068 0.257950
H99   H     H_    0.036629 0.946447 0.026336 0.273331
H100  H     H_    0.128208 0.915285 0.981670 0.283619
N3    N     N_2   0.583975 0.650686 0.645445 -0.129536
H101  H     H_    0.634135 0.672445 0.714676 0.154255
C75   C     C_3   0.593919 0.579026 0.578636 -0.908091
H102  H     H_    0.625493 0.542175 0.674096 0.257988
H103  H     H_    0.628321 0.584835 0.481750 0.283575
H104  H     H_    0.536740 0.553612 0.526309 0.273368
N4    N     N_2   0.583989 0.349312 0.145517 -0.129545
H105  H     H_    0.634147 0.327566 0.214789 0.154293
C76   C     C_3   0.593928 0.420964 0.078671 -0.908063
H106  H     H_    0.625496 0.457826 0.174114 0.257976
H107  H     H_    0.536747 0.446373 0.026327 0.273365
H108  H     H_    0.628330 0.415146 0.981789 0.283573

loop_
_geom_bond_atom_site_label_1
_geom_bond_atom_site_label_2
_geom_bond_distance
_ccdc_geom_bond_type
C24   C28   1.511866 S    
P6    C61   1.852611 S    
C15   H31   1.106519 S    
C12   H28   1.100002 S    
C29   N1    1.453399 S    
P5    C62   1.852601 S    
C14   C18   1.504700 S    
C39   H91   1.082281 S    
C26   H58   1.108375 S    
P3    O19   1.745657 S    
N2    H97   1.029758 S    
C2    H10   1.099637 S    
C4    C32   1.524148 S    
C28   H60   1.108448 S    
O24   P15   1.752296 S    
C7    H19   1.111725 S    
C18   H42   1.101625 S    
C9    H23   1.109660 S    
C54   C60   1.431548 A    
C17   H41   1.101557 S    
O9    P14   1.752526 S    
O8    Ba3   2.850051 S    
C22   H50   1.106194 S    
P1    O17   1.745649 S    
O26   Ba2   2.894926 S    
C1    H7    1.104251 S    
P7    C64   1.852591 S    
P1    O1    1.535902 D    
O38   C13   1.394592 S    
P7    O27   1.535219 D    
C3    H5    1.104252 S    
P1    Ba1   3.440202 S    
O37   C14   1.394607 S    
C20   H48   1.110520 S    
P3    O3    1.535902 D    
O29   Ba1   2.793059 S    
C76   H106  1.109072 S    
P4    O20   1.745663 S    
O14   P13   1.550336 D    
P3    Ba3   3.440202 S    
N4    C76   1.448277 S    
C20   H40   1.105014 S    
C21   C25   1.511914 S    
C67   C71   1.401005 A    
O2    Ba2   2.891674 S    
O31   Ba3   2.793059 S    
C35   C67   1.383306 A    
C16   H32   1.106536 S    
P9    O29   1.749952 S    
C34   C66   1.383322 A    
C19   H43   1.101768 S    
C74   H98   1.109104 S    
C14   H34   1.111119 S    
C33   C65   1.383325 A    
C36   C68   1.383317 A    
O28   Ba4   2.894926 S    
C10   H26   1.100193 S    
C9    H25   1.100341 S    
P11   C68   1.842251 S    
C38   H90   1.082283 S    
C60   C64   1.433537 A    
P10   C65   1.842260 S    
C37   H89   1.082283 S    
C11   H27   1.100013 S    
P9    C66   1.842252 S    
P2    O18   1.745637 S    
P12   C67   1.842253 S    
C39   C51   1.394844 A    
C73   H94   1.109117 S    
C40   C48   1.385751 A    
O41   C5    1.409235 S    
P15   C48   1.841094 S    
C38   C50   1.394867 A    
P4    O8    1.601462 S    
O6    Ba1   2.850051 S    
C3    H11   1.099637 S    
N1    H93   1.029742 S    
C18   H38   1.104946 S    
C43   C47   1.401829 A    
C53   C71   1.412561 A    
P4    O4    1.535904 D    
O9    Ba1   2.793829 S    
C42   C46   1.401838 A    
C33   H85   1.082470 S    
C75   H103  1.105368 S    
C54   C72   1.412561 A    
P9    O41   1.743900 S    
N3    H101  1.029710 S    
O18   C22   1.398721 S    
C73   H95   1.105436 S    
C8    H20   1.111699 S    
P2    O2    1.535904 D    
P11   O43   1.743861 S    
C6    H18   1.111712 S    
C71   H81   1.070120 S    
C5    H17   1.111713 S    
O4    Ba4   2.891674 S    
C12   H74   1.108122 S    
C51   C55   1.432926 A    
P7    O48   1.606210 S    
Ba2   O46   2.850049 S    
O12   P15   1.752502 S    
C11   H73   1.108125 S    
P8    O47   1.606218 S    
C35   C63   1.393576 A    
C75   H104  1.107359 S    
C16   H36   1.111132 S    
C16   C20   1.504678 S    
P9    O33   1.546594 D    
P4    Ba4   3.440197 S    
C25   H61   1.097591 S    
P10   O30   1.749963 S    
C68   C72   1.401006 A    
O11   P16   1.752516 S    
O32   Ba4   2.793063 S    
C2    H72   1.109588 S    
P11   O35   1.546546 D    
H2    C30   1.112045 S    
N4    H105  1.029728 S    
P12   O36   1.546541 D    
C40   H92   1.082283 S    
P5    Ba1   3.442393 S    
C52   C56   1.432922 A    
C37   C45   1.385762 A    
C23   H55   1.107663 S    
Ba1   O46   2.950723 S    
O21   C29   1.403051 S    
C30   N2    1.453373 S    
C40   C52   1.394849 A    
O16   P15   1.550323 D    
C19   H47   1.110467 S    
N2    C74   1.448295 S    
P3    C51   1.861415 S    
O19   C23   1.398750 S    
C74   H99   1.107376 S    
C28   H68   1.105235 S    
C27   H59   1.108427 S    
C36   C64   1.393583 A    
O42   C6    1.409209 S    
P12   O44   1.743864 S    
C14   H30   1.106522 S    
O23   P16   1.752306 S    
P8    Ba4   3.442399 S    
C13   C17   1.504677 S    
O20   C24   1.398735 S    
C3    C31   1.524151 S    
C33   C61   1.393587 A    
O21   P14   1.752317 S    
C24   H52   1.106178 S    
C15   C19   1.504670 S    
P6    O26   1.535219 D    
H1    C29   1.112040 S    
P1    O5    1.601469 S    
O44   C8    1.409198 S    
P7    O39   1.737193 S    
C26   H66   1.105130 S    
P14   C45   1.841138 S    
P7    Ba3   3.442393 S    
N1    C73   1.448306 S    
O17   C21   1.398729 S    
O25   Ba1   2.894916 S    
O39   C16   1.394581 S    
C21   H49   1.106208 S    
P2    Ba2   3.440197 S    
C31   N3    1.453354 S    
H3    C31   1.112060 S    
O30   Ba2   2.793063 S    
C44   H78   1.077990 S    
C11   H21   1.109527 S    
C22   H54   1.107659 S    
C6    H14   1.111455 S    
Ba1   Ba2   4.629449 S    
P10   O34   1.546582 D    
C73   H96   1.107370 S    
C2    H8    1.104250 S    
C4    H12   1.099622 S    
P11   O31   1.749979 S    
Ba3   Ba4   4.629449 S    
P2    O6    1.601462 S    
Ba3   O47   2.850060 S    
C41   C59   1.414836 A    
C42   C60   1.414837 A    
C23   C27   1.511906 S    
Ba4   O48   2.850049 S    
C20   H44   1.101835 S    
C43   H77   1.077991 S    
Ba2   O45   2.950721 S    
C7    C11   1.523113 S    
P4    C52   1.861418 S    
C32   N4    1.453347 S    
C8    C12   1.523089 S    
O22   C30   1.403040 S    
C57   C61   1.433525 A    
C27   H63   1.097733 S    
C41   H79   1.077987 S    
P16   C47   1.841083 S    
C58   C62   1.433519 A    
C55   C69   1.412557 A    
Ba1   O45   2.850060 S    
C4    H70   1.109544 S    
C56   C70   1.412558 A    
P6    Ba2   3.442399 S    
C1    C29   1.524164 S    
P5    O46   1.606210 S    
C8    H16   1.111422 S    
C12   H22   1.109532 S    
P13   C46   1.841136 S    
P8    O40   1.737222 S    
C39   C47   1.385744 A    
C6    C10   1.523126 S    
O27   Ba3   2.894916 S    
C76   H108  1.105365 S    
C19   H39   1.105002 S    
C75   H102  1.109067 S    
C59   C63   1.433535 A    
P6    O38   1.737274 S    
C41   C45   1.401842 A    
C17   H37   1.104881 S    
C24   H56   1.107644 S    
C15   H35   1.111122 S    
C43   C57   1.414826 A    
O22   P13   1.752334 S    
C23   H51   1.106211 S    
O5    Ba2   2.850063 S    
O10   Ba2   2.793825 S    
C27   H67   1.105182 S    
C44   C48   1.401829 A    
C74   H100  1.105399 S    
C1    H9    1.099631 S    
C26   H62   1.097650 S    
O10   P13   1.752526 S    
N3    C75   1.448275 S    
O7    Ba4   2.850063 S    
P10   O42   1.743888 S    
O40   C15   1.394591 S    
C13   H33   1.111099 S    
C5    C9    1.523195 S    
C28   H64   1.097781 S    
C10   H24   1.109617 S    
C18   H46   1.110378 S    
P5    O37   1.737287 S    
C69   H83   1.070133 S    
C25   H65   1.105091 S    
C50   C54   1.432930 A    
C42   H80   1.077986 S    
C49   C53   1.432934 A    
C34   C62   1.393582 A    
P8    C63   1.852577 S    
C4    H6    1.104232 S    
C25   H57   1.108346 S    
C9    H75   1.108557 S    
C3    H69   1.109547 S    
C36   H88   1.082471 S    
C53   C59   1.431549 A    
C17   H45   1.110314 S    
C10   H76   1.108375 S    
O15   P16   1.550332 D    
O12   Ba4   2.793825 S    
C35   H87   1.082470 S    
C22   C26   1.511874 S    
C65   C69   1.401008 A    
C34   H86   1.082471 S    
C72   H82   1.070131 S    
P3    O7    1.601469 S    
O13   P14   1.550323 D    
O24   C32   1.403018 S    
P5    O25   1.535219 D    
O3    Ba3   2.891685 S    
C21   H53   1.107669 S    
P8    O28   1.535219 D    
P12   O32   1.749990 S    
C76   H107  1.107357 S    
O1    Ba1   2.891685 S    
C55   C57   1.431554 A    
H4    C32   1.112051 S    
C5    H13   1.111498 S    
P1    C49   1.861449 S    
C44   C58   1.414827 A    
O11   Ba3   2.793829 S    
C37   C49   1.394867 A    
C38   C46   1.385761 A    
P2    C50   1.861439 S    
C66   C70   1.401008 A    
C2    C30   1.524166 S    
C7    H15   1.111453 S    
Ba3   O48   2.950723 S    
C56   C58   1.431554 A    
C13   H29   1.106508 S    
C70   H84   1.070137 S    
Ba4   O47   2.950721 S    
O23   C31   1.403015 S    
P6    O45   1.606218 S    
O43   C7    1.409218 S    
C1    H71   1.109578 S    
