data_mof_unit_59424.cif
_audit_creation_date              2012-12-10T17:01:34-0500
_audit_creation_method            fapswitch 2.2
_symmetry_space_group_name_H-M    P1
_symmetry_Int_Tables_number       1
_space_group_crystal_system       triclinic
_cell_length_a                    12.907828
_cell_length_b                    10.636319
_cell_length_c                    10.052769
_cell_angle_alpha                 91.813725
_cell_angle_beta                  97.728932
_cell_angle_gamma                 88.581202
_cell_volume                      1366.64619215

loop_
_atom_site_label
_atom_site_type_symbol
_atom_type_description
_atom_site_fract_x
_atom_site_fract_y
_atom_site_fract_z
_atom_type_partial_charge
C1    C     C_R   0.497292 0.262553 0.496820 0.845460
C2    C     C_2   0.489823 0.128428 0.483537 0.261799
C3    C     C_2   0.509935 0.600164 0.930058 -0.185019
C4    C     C_R   0.297021 0.501397 0.473223 0.864560
C5    C     C_2   0.535918 0.591791 0.082149 0.474624
C6    C     C_R   0.506856 0.737200 0.503914 0.943667
C7    C     C_R   0.701503 0.489798 0.526838 0.907902
C8    C     C_R   0.812908 0.462739 0.543952 -0.149319
C9    C     C_R   0.182628 0.491543 0.456963 -0.282465
C10   C     C_R   0.017911 0.438523 0.320509 -0.141787
C11   C     C_R   0.124466 0.463945 0.329819 -0.271239
C12   C     C_R   0.028001 0.463290 0.564645 -0.000316
C13   C     C_R   0.131951 0.498583 0.573636 0.454314
C14   C     C_3   0.316820 0.135500 0.539541 0.114523
C15   C     C_3   0.333652 0.122521 0.692435 -0.396066
C16   C     C_3   0.252216 0.199947 0.757892 -0.885292
C17   C     C_3   0.663691 0.747974 0.087321 -0.001124
C18   C     C_3   0.755038 0.664264 0.051309 -0.309298
C19   C     C_3   0.827435 0.737726 0.975349 -0.844340
C20   C     C_2   0.418524 0.424104 0.085065 0.966377
C21   C     C_3   0.832196 0.323515 0.838339 0.137668
C22   C     C_3   0.753114 0.234183 0.759728 -0.402023
C23   C     C_R   0.969185 0.445111 0.437270 0.014521
C24   C     C_3   0.762138 0.102690 0.817292 -0.957672
C25   C     C_2   0.958796 0.399191 0.188933 0.911994
C26   C     C_2   0.172107 0.463543 0.204069 1.073959
C27   C     C_3   0.148669 0.660707 0.734665 0.139774
C28   C     C_3   0.174332 0.764799 0.642553 -0.400156
C29   C     C_3   0.129868 0.891230 0.686800 -0.965862
C30   C     C_3   0.739015 0.064999 0.366587 0.111686
C31   C     C_3   0.812584 0.985409 0.465071 -0.383027
C32   C     C_3   0.892316 0.911106 0.393165 -0.950027
C33   C     C_R   0.861146 0.446604 0.428512 -0.307269
C34   C     C_R   0.871668 0.448624 0.671146 0.472698
C35   C     C_R   0.980155 0.451032 0.680899 -0.312970
C36   C     C_2   0.563831 0.930174 0.421344 -0.221776
C37   C     C_2   0.531236 0.867087 0.519151 -0.320021
C38   C     C_2   0.572780 0.066534 0.441814 0.406921
H1    H     H_    0.814249 0.444981 0.330771 0.194735
H2    H     H_    0.412670 0.154440 0.735287 0.237175
H3    H     H_    0.171860 0.171557 0.716412 0.254777
H4    H     H_    0.260695 0.301178 0.739465 0.299225
H5    H     H_    0.263822 0.185495 0.867826 0.287674
H6    H     H_    0.697563 0.824865 0.154764 0.156159
H7    H     H_    0.622106 0.796631 0.999171 0.133169
H8    H     H_    0.799978 0.628998 0.145307 0.236250
H9    H     H_    0.725665 0.582052 0.987786 0.243626
H10   H     H_    0.783816 0.773047 0.880521 0.250966
H11   H     H_    0.892665 0.675527 0.949845 0.306664
H12   H     H_    0.499353 0.691083 0.884156 0.161219
H13   H     H_    0.860753 0.818597 0.038145 0.244988
H14   H     H_    0.286687 0.409100 0.952553 0.376166
H15   H     H_    0.812948 0.331555 0.942394 0.230264
H16   H     H_    0.913251 0.283358 0.844308 0.159982
H17   H     H_    0.672883 0.272223 0.764566 0.253193
H18   H     H_    0.766577 0.227061 0.653148 0.244065
H19   H     H_    0.841467 0.061571 0.811854 0.268391
H20   H     H_    0.703735 0.040849 0.758120 0.261633
H21   H     H_    0.746897 0.106471 0.923530 0.276748
H22   H     H_    0.929112 0.228501 0.254107 0.300286
H23   H     H_    0.525120 0.417253 0.895613 0.144459
H24   H     H_    0.182025 0.652680 0.207560 0.298450
H25   H     H_    0.187669 0.682724 0.837860 0.212913
H26   H     H_    0.063502 0.662949 0.741284 0.131887
H27   H     H_    0.260466 0.770637 0.645319 0.239910
H28   H     H_    0.139077 0.744187 0.537401 0.212849
H29   H     H_    0.044937 0.884889 0.693333 0.265347
H30   H     H_    0.139856 0.962579 0.611970 0.270347
H31   H     H_    0.170833 0.921605 0.786469 0.281095
H32   H     H_    0.786806 0.135552 0.325399 0.179421
H33   H     H_    0.703013 0.009607 0.277782 0.119853
H34   H     H_    0.025845 0.451100 0.779601 0.209370
H35   H     H_    0.855024 0.048268 0.543295 0.229055
H36   H     H_    0.767533 0.918476 0.516014 0.231860
H37   H     H_    0.852176 0.845886 0.315728 0.267942
H38   H     H_    0.944072 0.854368 0.466583 0.273688
H39   H     H_    0.941117 0.976034 0.344909 0.266620
H40   H     H_    0.577294 0.884560 0.327072 0.192487
H41   H     H_    0.523706 0.913290 0.615795 0.149921
H42   H     H_    0.240366 0.094260 0.499752 0.166434
H43   H     H_    0.309127 0.235290 0.509817 0.129663
H44   H     H_    0.328616 0.021945 0.716807 0.232462
N1    N     N_2   0.501130 0.501330 0.852280 -0.178253
N2    N     N_2   0.501160 0.501360 0.147950 -0.204523
O1    O     O_R   0.499980 0.319060 0.613040 -0.667133
O2    O     O_3   0.595622 0.682465 0.158928 -0.611275
O3    O     O_2   0.416283 0.314103 0.115686 -0.601479
O4    O     O_R   0.338276 0.474368 0.992998 -0.755656
O5    O     O_3   0.823448 0.445999 0.785996 -0.630248
O6    O     O_2   0.953282 0.468479 0.093703 -0.619873
O7    O     O_R   0.911674 0.281941 0.172187 -0.823520
O8    O     O_2   0.184764 0.363984 0.144071 -0.585674
O9    O     O_R   0.198248 0.576330 0.150453 -0.742506
O10   O     O_3   0.185424 0.539673 0.696263 -0.622714
O11   O     O_3   0.664221 0.132512 0.432656 -0.692398
O12   O     O_R   0.500020 0.319100 0.386900 -0.565814
O13   O     O_R   0.346340 0.499960 0.594380 -0.539542
O14   O     O_R   0.346380 0.500000 0.368250 -0.619305
O15   O     O_R   0.499980 0.680900 0.613100 -0.641054
O16   O     O_R   0.500020 0.680940 0.386960 -0.558773
O17   O     O_R   0.653620 0.500000 0.631750 -0.582016
O18   O     O_R   0.653660 0.500040 0.405620 -0.606664
O19   O     O_3   0.394456 0.066638 0.479568 -0.665320
Zn1   Zn    Zn3+2 0.499980 0.499970 0.650990 0.964660
Zn2   Zn    Zn3+2 0.500020 0.500030 0.349010 1.050315

loop_
_geom_bond_atom_site_label_1
_geom_bond_atom_site_label_2
_ccdc_geom_bond_type
O12   Zn2   S    
C4    O14   A    
C18   H9    S    
C32   H37   S    
C30   H33   S    
C7    C8    S    
C21   O5    S    
C37   H41   S    
C12   C23   A    
O16   Zn2   S    
C33   H1    S    
O14   Zn2   S    
C28   C29   S    
C17   H7    S    
C34   C35   A    
C1    O12   A    
C30   C31   S    
C31   H35   S    
C26   O8    D    
C15   C16   S    
C20   O3    D    
O18   Zn2   S    
C1    C2    S    
C2    C38   D    
C9    C13   A    
C32   H39   S    
C29   H29   S    
C24   H19   S    
C23   C33   A    
C7    O18   A    
C38   O11   S    
C14   H42   S    
C26   O9    S    
O15   Zn1   S    
C4    O13   A    
C18   H8    S    
C30   H32   S    
C3    H12   S    
C17   C18   S    
C15   H44   S    
C29   H31   S    
C1    O1    A    
C25   O7    S    
N1    Zn1   S    
C17   O2    S    
H14   O4    S    
H23   N1    S    
C5    N2    D    
C19   H10   S    
C18   C19   S    
C31   H36   S    
C22   H18   S    
C11   C26   S    
C6    O16   A    
C28   H28   S    
C30   O11   S    
C29   H30   S    
C19   H11   S    
C31   C32   S    
N2    Zn2   S    
C25   O6    D    
C6    C37   S    
C8    C34   A    
C12   C35   A    
C9    C11   A    
C16   H5    S    
O1    Zn1   S    
C27   H25   S    
C5    O2    S    
C10   C25   S    
C35   H34   S    
O17   Zn1   S    
C10   C11   A    
C20   N2    S    
C3    N1    D    
C22   C24   S    
C16   H4    S    
H22   O7    S    
C36   C37   D    
C3    C5    S    
C32   H38   S    
C22   H17   S    
C10   C23   A    
C13   O10   S    
C6    O15   A    
C36   C38   S    
C28   H27   S    
C34   O5    S    
C36   H40   S    
C21   H15   S    
C14   O19   S    
C21   H16   S    
C2    O19   S    
C24   H21   S    
C20   O4    S    
C8    C33   A    
C15   H2    S    
C17   H6    S    
O13   Zn1   S    
C27   H26   S    
C19   H13   S    
C12   C13   A    
C24   H20   S    
C7    O17   A    
H24   O9    S    
C27   C28   S    
C14   C15   S    
C27   O10   S    
C14   H43   S    
C4    C9    S    
C21   C22   S    
C16   H3    S    
