data_mof_unit_45239.cif
_audit_creation_date              2012-12-10T17:24:50-0500
_audit_creation_method            fapswitch 2.2
_symmetry_space_group_name_H-M    P1
_symmetry_Int_Tables_number       1
_space_group_crystal_system       triclinic
_cell_length_a                    18.694997
_cell_length_b                    18.552551
_cell_length_c                    18.908015
_cell_angle_alpha                 109.185352
_cell_angle_beta                  110.198857
_cell_angle_gamma                 108.595494
_cell_volume                      5074.4842016

loop_
_atom_site_label
_atom_site_type_symbol
_atom_type_description
_atom_site_fract_x
_atom_site_fract_y
_atom_site_fract_z
_atom_type_partial_charge
C1    C     C_R   0.622741 0.619612 0.502447 0.998146
C2    C     C_R   0.674449 0.751706 0.490146 -0.213040
C3    C     C_R   0.815644 0.814562 0.502835 -0.081213
C4    C     C_R   0.378577 0.499589 0.379755 0.935743
C5    C     C_R   0.823159 0.739262 0.497031 0.014880
C6    C     C_R   0.764024 0.676980 0.504607 -0.022744
C7    C     C_R   0.688386 0.683731 0.499682 -0.121585
C8    C     C_R   0.889548 0.725663 0.485088 -0.221556
C9    C     C_R   0.901580 0.656485 0.486897 -0.293529
C10   C     C_R   0.850210 0.599409 0.503898 0.432480
C11   C     C_R   0.782484 0.610114 0.515033 0.416758
C12   C     C_3   0.201159 0.420837 0.186828 0.444092
C13   C     C_R   0.771087 0.668642 0.778381 0.448307
C14   C     C_R   0.824159 0.741621 0.861730 0.511739
C15   C     C_R   0.872713 0.733555 0.930706 -0.357438
C16   C     C_R   0.379912 0.379775 0.499535 0.834795
C17   C     C_R   0.871285 0.654737 0.915911 -0.179460
C18   C     C_R   0.816015 0.579365 0.832727 0.056144
C19   C     C_R   0.758660 0.583359 0.764667 -0.131496
C20   C     C_R   0.817338 0.500178 0.816588 -0.094190
C21   C     C_R   0.754856 0.421527 0.738570 -0.006119
C22   C     C_R   0.685490 0.420927 0.677863 0.085526
C23   C     C_3   0.213437 0.445602 0.277778 -0.324785
C24   C     C_R   0.690482 0.502184 0.688085 -0.156402
C25   C     C_R   0.758578 0.342711 0.721078 -0.154715
C26   C     C_R   0.689781 0.263036 0.649452 0.518412
C27   C     C_R   0.615178 0.261064 0.595082 -0.246421
C28   C     C_R   0.621833 0.500614 0.620999 0.887900
C29   C     C_R   0.612614 0.338595 0.609397 -0.197112
C30   C     C_R   0.405127 0.380724 0.658348 -0.138771
C31   C     C_R   0.410956 0.394007 0.737252 -0.173568
C32   C     C_R   0.337554 0.348376 0.739398 -0.233457
C33   C     C_R   0.258788 0.283781 0.661975 0.477765
C34   C     C_3   0.311874 0.500612 0.313689 -0.125217
C35   C     C_R   0.255600 0.262653 0.580694 0.035607
C36   C     C_R   0.325670 0.318887 0.579398 0.005464
C37   C     C_R   0.185573 0.187736 0.500735 -0.199104
C38   C     C_R   0.179702 0.175881 0.420518 0.056457
C39   C     C_R   0.239703 0.243808 0.419842 0.087139
C40   C     C_3   0.304368 0.582844 0.321364 -0.104434
C41   C     C_R   0.314309 0.312895 0.499435 -0.167523
C42   C     C_R   0.114956 0.098271 0.340518 -0.144991
C43   C     C_R   0.103670 0.093566 0.262043 -0.124463
C44   C     C_R   0.156311 0.165375 0.261390 -0.136163
C45   C     C_R   0.592310 0.750220 0.465430 0.441654
C46   C     C_R   0.223865 0.239903 0.339273 -0.153455
C47   C     C_R   0.003592 0.619973 0.123063 0.841375
C48   C     C_R   0.124411 0.499921 0.124398 0.931645
C49   C     C_R   0.004058 0.379750 0.884414 0.836683
C50   C     C_R   0.883363 0.499488 0.882643 0.824515
C51   C     C_R   0.001043 0.879683 0.380995 0.827897
C52   C     C_3   0.205772 0.527031 0.282769 0.409177
C53   C     C_R   0.880314 0.880669 0.501012 0.961529
C54   C     C_R   0.998677 0.119987 0.618785 0.964288
C55   C     C_R   0.119877 0.120519 0.500345 0.948814
C56   C     C_R   0.588363 0.827520 0.482288 0.473270
C57   C     C_R   0.161792 0.749665 0.283454 -0.179228
C58   C     C_R   0.241571 0.820561 0.353196 0.376814
C59   C     C_R   0.242507 0.894026 0.409097 0.375961
C60   C     C_R   0.163566 0.893516 0.393116 -0.219719
C61   C     C_R   0.082007 0.819274 0.325314 -0.008835
C62   C     C_R   0.082125 0.750729 0.265631 -0.013686
C63   C     C_R   0.000546 0.811648 0.315429 -0.111162
C64   C     C_3   0.191469 0.500469 0.191774 -0.056306
C65   C     C_R   0.919626 0.741235 0.240477 -0.141403
C66   C     C_R   0.923153 0.685332 0.172407 -0.063692
C67   C     C_R   0.664307 0.905183 0.517274 -0.449302
C68   C     C_R   0.003050 0.686363 0.188158 -0.060773
C69   C     C_R   0.834955 0.725646 0.228819 0.414416
C70   C     C_R   0.760516 0.672720 0.146102 0.359108
C71   C     C_R   0.766318 0.622715 0.075810 0.309097
C72   C     C_R   0.846557 0.628587 0.090066 -0.230021
C73   C     C_R   0.977273 0.385840 0.727706 -0.154246
C74   C     C_R   0.978848 0.397895 0.659142 0.512230
C75   C     C_R   0.995369 0.343720 0.602961 -0.268168
C76   C     C_3   0.290134 0.555208 0.228619 -0.236673
C77   C     C_R   0.004714 0.275435 0.612580 -0.168508
C78   C     C_R   0.742456 0.904750 0.528597 0.449895
C79   C     C_R   0.997439 0.259138 0.678713 0.074770
C80   C     C_R   0.991513 0.319572 0.741197 -0.008955
C81   C     C_R   0.996064 0.184468 0.684237 -0.163132
C82   C     C_R   0.994047 0.172193 0.753796 -0.023031
C83   C     C_R   0.003939 0.240393 0.823575 0.059864
C84   C     C_R   0.000401 0.312569 0.815697 -0.134410
C85   C     C_R   0.982962 0.093587 0.755810 -0.110399
C86   C     C_R   0.990558 0.086342 0.828856 0.486133
C87   C     C_R   0.010007 0.158357 0.901857 -0.241882
C88   C     C_3   0.299431 0.473449 0.222291 -0.218878
C89   C     C_R   0.745308 0.824817 0.507758 0.004433
C90   C     C_R   0.016715 0.234285 0.899374 -0.158718
H1    H     H_    0.661917 0.965727 0.532956 0.169998
H2    H     H_    0.967263 0.036163 0.700715 0.200856
H3    H     H_    0.032211 0.287809 0.957748 0.216386
H4    H     H_    0.180109 0.569305 0.372777 0.339649
H5    H     H_    0.803682 0.031231 0.576196 0.347190
H6    H     H_    0.933749 0.767631 0.473650 0.171434
H7    H     H_    0.953080 0.648837 0.477137 0.164202
H8    H     H_    0.760614 0.520070 0.550181 0.390044
H9    H     H_    0.559089 0.199626 0.541246 0.150327
H10   H     H_    0.743218 0.648936 0.664525 0.341270
H11   H     H_    0.870557 0.866017 0.934834 0.318545
H12   H     H_    0.347038 0.649434 0.378720 0.238851
H13   H     H_    0.914859 0.789391 0.995490 0.160012
H14   H     H_    0.913453 0.653702 0.971120 0.164536
H15   H     H_    0.642500 0.137691 0.582970 0.325732
H16   H     H_    0.551996 0.332144 0.566940 0.172314
H17   H     H_    0.145876 0.162813 0.200417 0.135267
H18   H     H_    0.463674 0.419132 0.660061 0.154037
H19   H     H_    0.471828 0.442295 0.797105 0.175715
H20   H     H_    0.341963 0.363714 0.801691 0.143236
H21   H     H_    0.197664 0.269540 0.725952 0.329371
H22   H     H_    0.072682 0.040201 0.337172 0.142674
H23   H     H_    0.814490 0.341706 0.762904 0.157268
H24   H     H_    0.320161 0.599745 0.207513 0.202065
H25   H     H_    0.641613 0.543697 0.998029 0.339749
H26   H     H_    0.163727 0.694607 0.242377 0.198223
H27   H     H_    0.365027 0.876568 0.390500 0.337135
H28   H     H_    0.361843 0.948200 0.501764 0.341548
H29   H     H_    0.862292 0.755103 0.345020 0.295225
H30   H     H_    0.647089 0.658878 0.078515 0.329489
H31   H     H_    0.847513 0.587293 0.035059 0.192182
H32   H     H_    0.338587 0.450194 0.198163 0.170634
H33   H     H_    0.968937 0.463995 0.598642 0.343371
H34   H     H_    0.053014 0.034484 0.201573 0.135417
H35   H     H_    0.018323 0.236594 0.567799 0.192345
H36   H     H_    0.986989 0.014012 0.883436 0.339040
H37   H     H_    0.167887 0.299370 0.131155 0.328038
H38   H     H_    0.183475 0.401040 0.298904 0.154330
H39   H     H_    0.913790 0.534018 0.499788 0.334860
H40   H     H_    0.519994 0.628347 0.379191 0.308169
H41   H     H_    0.516929 0.884406 0.477956 0.328553
H42   H     H_    0.262786 0.293955 0.335108 0.144424
H43   H     H_    0.167999 0.952587 0.435292 0.194627
H44   H     H_    0.018731 0.155427 0.960339 0.161667
H45   H     H_    0.963906 0.428704 0.769423 0.166291
H46   H     H_    0.999834 0.353467 0.550898 0.146209
O1    O     O_R   0.592010 0.539900 0.448660 -0.590236
O2    O     O_R   0.948620 0.908400 0.356980 -0.587561
O3    O     O_R   0.960510 0.908410 0.552140 -0.645025
O4    O     O_R   0.591210 0.643320 0.551330 -0.556377
O5    O     O_R   0.856270 0.908390 0.447890 -0.546100
O6    O     O_R   0.051380 0.091620 0.643040 -0.610771
O7    O     O_R   0.947140 0.091600 0.538800 -0.612771
O8    O     O_R   0.143730 0.091640 0.552130 -0.581939
O9    O     O_R   0.039490 0.091610 0.447890 -0.648732
O10   O     O_R   0.408080 0.448290 0.356360 -0.649655
O11   O     O_R   0.407280 0.551710 0.459030 -0.596808
O12   O     O_R   0.054870 0.643310 0.094700 -0.635220
O13   O     O_R   0.408790 0.356680 0.448670 -0.636820
O14   O     O_R   0.407990 0.460100 0.551340 -0.625961
O15   O     O_R   0.592720 0.448290 0.540970 -0.598422
O16   O     O_R   0.591920 0.551710 0.643640 -0.592163
O17   O     O_R   0.951440 0.539900 0.094740 -0.603056
O18   O     O_3   0.155034 0.555314 0.311416 -0.754462
O19   O     O_3   0.817116 0.982416 0.564733 -0.789200
O20   O     O_3   0.736124 0.557598 0.538387 -0.795352
O21   O     O_3   0.738918 0.685713 0.712316 -0.686689
O22   O     O_3   0.830038 0.821114 0.872856 -0.701414
O23   O     O_R   0.044440 0.448270 0.096110 -0.584372
O24   O     O_3   0.696453 0.188307 0.636050 -0.768898
O25   O     O_3   0.183951 0.245814 0.664832 -0.795481
O26   O     O_3   0.695035 0.563545 0.993825 -0.756137
O27   O     O_3   0.316290 0.816500 0.361596 -0.745359
O28   O     O_3   0.317899 0.966205 0.480979 -0.766102
O29   O     O_3   0.820740 0.756202 0.296616 -0.683084
O30   O     O_3   0.683233 0.670188 0.137511 -0.711884
O31   O     O_3   0.965585 0.464021 0.649866 -0.740551
O32   O     O_3   0.979834 0.008569 0.827129 -0.736185
O33   O     O_3   0.145951 0.336932 0.115023 -0.793335
O34   O     O_R   0.147870 0.551680 0.096080 -0.640522
O35   O     O_3   0.864309 0.532079 0.509130 -0.768988
O36   O     O_3   0.513978 0.673788 0.418538 -0.739292
O37   O     O_3   0.508863 0.824760 0.462580 -0.701769
O38   O     O_R   0.952810 0.356650 0.912880 -0.622643
O39   O     O_R   0.056240 0.460060 0.912840 -0.618244
O40   O     O_R   0.859800 0.448280 0.911500 -0.616966
O41   O     O_R   0.963240 0.551690 0.911470 -0.616390
O42   O     O_R   0.052860 0.908430 0.461230 -0.641543
Zn1   Zn    Zn3+2 0.500540 0.430950 0.431450 0.991044
Zn2   Zn    Zn3+2 0.499460 0.569050 0.568550 1.051641
Zn3   Zn    Zn3+2 0.934770 0.430930 0.003810 1.022852
Zn4   Zn    Zn3+2 0.072900 0.569020 0.003770 0.989416
Zn5   Zn    Zn3+2 0.069600 0.000030 0.569620 1.008651
Zn6   Zn    Zn3+2 0.930400 0.000000 0.430410 1.029524

loop_
_geom_bond_atom_site_label_1
_geom_bond_atom_site_label_2
_ccdc_geom_bond_type
C66   C68   A    
C63   C65   A    
C71   O26   S    
C72   H31   S    
C27   C29   A    
C73   C74   A    
C6    C7    A    
C2    C7    A    
H21   O25   S    
C80   C84   A    
C81   C82   A    
C57   C58   A    
H30   O30   S    
C57   C62   A    
C39   C41   A    
C85   C86   A    
H27   O27   S    
O9    Zn6   S    
C27   H9    S    
C26   C27   A    
C32   H20   S    
C14   O22   S    
C34   C40   S    
C49   C84   S    
C22   C29   A    
C17   H14   S    
C38   C42   A    
H36   O32   S    
C70   O30   S    
C46   H42   S    
C38   C39   A    
C12   C64   S    
C1    O1    A    
C78   O19   S    
C55   O9    A    
H15   O24   S    
C52   O18   S    
O41   Zn4   S    
O13   Zn1   S    
C50   O40   A    
C18   C19   A    
C61   C63   A    
C42   H22   S    
C74   O31   S    
C20   C50   S    
C59   O28   S    
O4    Zn2   S    
H10   O21   S    
C66   C72   A    
C73   H45   S    
C45   C56   A    
H40   O36   S    
C8    C9    A    
C8    H6    S    
C76   H24   S    
C26   O24   S    
C70   C71   A    
C51   O42   A    
O2    Zn6   S    
C9    C10   A    
C76   C88   S    
C18   C20   A    
O42   Zn5   S    
H33   O31   S    
H5    O19   S    
C54   O7    A    
O8    Zn5   S    
C77   H35   S    
C59   C60   A    
C78   C89   A    
C1    C7    S    
C13   C14   A    
O34   Zn4   S    
C87   H44   S    
C36   C41   A    
C61   C62   A    
C67   C78   A    
C58   O27   S    
O11   Zn2   S    
O38   Zn3   S    
C13   O21   S    
C49   O38   A    
C85   H2    S    
C44   C46   A    
C57   H26   S    
H8    O20   S    
C77   C79   A    
C2    C45   A    
C31   H19   S    
O40   Zn3   S    
C48   O23   A    
C4    C34   S    
C74   C75   A    
C12   C88   S    
C50   O41   A    
C51   C63   S    
C88   H32   S    
C21   C25   A    
C52   C64   S    
C6    C11   A    
C79   C81   A    
C13   C19   A    
C75   H46   S    
C47   O17   A    
C58   C59   A    
C40   C52   S    
C4    O11   A    
H41   O37   S    
C40   C76   S    
C60   C61   A    
C35   C36   A    
O16   Zn2   S    
C2    C89   A    
C33   O25   S    
C43   C44   A    
C37   C38   A    
C25   H23   S    
O15   Zn1   S    
C83   C84   A    
C12   C23   S    
C30   C31   A    
H4    O18   S    
C23   C34   S    
C4    O10   A    
C67   H1    S    
C17   C18   A    
C64   C76   S    
C86   O32   S    
C34   C88   S    
O23   Zn3   S    
C75   C77   A    
C16   O13   A    
C1    O4    A    
C11   O20   S    
C39   C46   A    
C48   O34   A    
C54   O6    A    
O17   Zn3   S    
H11   O22   S    
C28   O16   A    
O39   Zn4   S    
C22   C24   A    
C29   H16   S    
C42   C43   A    
C82   C85   A    
C45   O36   S    
C47   C68   S    
C49   O39   A    
O3    Zn5   S    
C86   C87   A    
C90   H3    S    
O14   Zn2   S    
C44   H17   S    
C15   C17   A    
C83   C90   A    
H29   O29   S    
C47   O12   A    
C9    H7    S    
C55   O8    A    
C35   C37   A    
C53   O3    A    
H39   O35   S    
C31   C32   A    
C24   C28   S    
C3    C5    A    
C5    C8    A    
O1    Zn1   S    
C12   O33   S    
C30   C36   A    
H37   O33   S    
C56   C67   A    
C62   C68   A    
C56   O37   S    
C3    C89   A    
O5    Zn6   S    
C15   H13   S    
O7    Zn6   S    
H25   O26   S    
C19   C24   A    
C25   C26   A    
C71   C72   A    
C32   C33   A    
C3    C53   S    
C23   C52   S    
C5    C6    A    
C65   C69   A    
C43   H34   S    
C33   C35   A    
C73   C80   A    
O10   Zn1   S    
O6    Zn5   S    
C53   O5    A    
C69   C70   A    
H28   O28   S    
C69   O29   S    
C48   C64   S    
C10   C11   A    
C40   H12   S    
C79   C80   A    
C37   C55   S    
C51   O2    A    
C10   O35   S    
C20   C21   A    
C28   O15   A    
O12   Zn4   S    
C65   C66   A    
C87   C90   A    
C14   C15   A    
C16   O14   A    
C82   C83   A    
C21   C22   A    
C30   H18   S    
C60   H43   S    
C54   C81   S    
C23   H38   S    
C16   C41   S    
