data_mof_unit_57190.cif
_audit_creation_date              2012-12-10T17:32:13-0500
_audit_creation_method            fapswitch 2.2
_symmetry_space_group_name_H-M    P1
_symmetry_Int_Tables_number       1
_space_group_crystal_system       triclinic
_cell_length_a                    12.453454
_cell_length_b                    13.451853
_cell_length_c                    15.044545
_cell_angle_alpha                 74.448198
_cell_angle_beta                  103.037515
_cell_angle_gamma                 117.853844
_cell_volume                      2131.77371857

loop_
_atom_site_label
_atom_site_type_symbol
_atom_type_description
_atom_site_fract_x
_atom_site_fract_y
_atom_site_fract_z
_atom_type_partial_charge
C1    C     C_R   0.854171 0.288170 0.503216 0.891335
C2    C     C_R   0.063318 0.614013 0.076990 -0.080029
C3    C     C_R   0.995684 0.309569 0.089131 0.419650
C4    C     C_R   0.983878 0.306526 0.995069 0.301326
C5    C     C_R   0.997654 0.405455 0.927423 0.003149
C6    C     C_R   0.026499 0.508880 0.954718 -0.057790
C7    C     C_R   0.057194 0.612134 0.888320 -0.106177
C8    C     C_R   0.107075 0.716883 0.919037 0.356621
C9    C     C_R   0.102617 0.717858 0.011208 0.423317
C10   C     C_R   0.989419 0.404819 0.833369 -0.150589
C11   C     C_R   0.009046 0.504322 0.767282 -0.155267
C12   C     C_R   0.001982 0.500427 0.670803 0.884105
C13   C     C_R   0.041253 0.608100 0.793129 0.422280
C14   C     C_R   0.266918 0.037290 0.439617 0.315656
C15   C     C_R   0.227552 0.837153 0.485922 -0.302629
C16   C     C_R   0.814094 0.085430 0.522774 -0.286488
C17   C     C_R   0.738459 0.972419 0.513636 0.353014
C18   C     C_R   0.613363 0.938146 0.485387 0.454321
C19   C     C_R   0.562879 0.016826 0.471504 -0.081884
C20   C     C_R   0.643323 0.134678 0.455056 -0.158744
C21   C     C_R   0.435695 0.983515 0.468113 -0.116346
C22   C     C_R   0.389642 0.066566 0.431601 -0.213622
C23   C     C_R   0.145323 0.713310 0.492772 0.854988
C24   C     C_R   0.466610 0.176443 0.387965 0.437219
C25   C     C_R   0.594072 0.209853 0.396578 0.410521
C26   C     C_R   0.354242 0.872399 0.507593 0.478912
C27   C     C_R   0.182671 0.921226 0.457679 0.333119
C28   C     C_R   0.769487 0.168848 0.492078 -0.189898
C29   C     C_R   0.363286 0.355773 0.668882 0.409984
C30   C     C_R   0.745390 0.633341 0.364554 0.480089
C31   C     C_R   0.644121 0.657653 0.334637 0.307298
C32   C     C_R   0.549335 0.609025 0.387942 -0.192608
C33   C     C_R   0.554493 0.539470 0.474812 -0.089046
C34   C     C_R   0.002549 0.504070 0.328383 0.858658
C35   C     C_R   0.658599 0.512859 0.503880 0.039622
C36   C     C_R   0.453643 0.487051 0.529709 -0.082318
C37   C     C_R   0.465739 0.422238 0.619062 -0.161534
C38   C     C_R   0.577566 0.418147 0.653450 0.293037
C39   C     C_R   0.654597 0.434773 0.590769 0.429828
C40   C     C_R   0.341121 0.496797 0.500330 0.069491
C41   C     C_R   0.254162 0.365281 0.634205 0.468695
C42   C     C_R   0.065875 0.613449 0.171455 0.415321
C43   C     C_R   0.009433 0.507384 0.231315 -0.246213
C44   C     C_R   0.993463 0.406303 0.207171 0.388728
C45   C     C_R   0.004941 0.407325 0.115575 -0.115491
C46   C     C_R   0.028469 0.509549 0.048704 -0.163225
Cu1   Cu    Cu3+1 0.098270 0.475420 0.521130 1.065591
Cu2   Cu    Cu3+1 0.901730 0.524580 0.478870 1.068824
H1    H     H_    0.909491 0.108859 0.549294 0.243973
H2    H     H_    0.326958 0.551715 0.436882 0.172052
H3    H     H_    0.471880 0.627244 0.358569 0.214549
H4    H     H_    0.967304 0.327261 0.810013 0.226830
N1    N     N_R   0.246280 0.438190 0.553160 -0.248289
N2    N     N_R   0.754320 0.561190 0.447410 -0.216161
O1    O     O_R   0.972510 0.318130 0.526570 -0.544911
O2    O     O_R   0.806530 0.359650 0.490890 -0.498160
O3    O     O_R   0.082980 0.479210 0.647590 -0.552385
O4    O     O_R   0.917000 0.520730 0.611900 -0.535190
O5    O     O_R   0.193470 0.640350 0.509110 -0.537194
O6    O     O_R   0.027490 0.681870 0.473430 -0.530491
O7    O     O_R   0.083000 0.479270 0.388100 -0.557730
O8    O     O_R   0.917020 0.520790 0.352410 -0.531989
O9    O     O_3   0.161306 0.704040 0.209043 -0.545690
C47   C     C_3   0.118461 0.770831 0.234796 -0.137502
H5    H     H_    0.095275 0.735960 0.306624 0.157100
H6    H     H_    0.040330 0.779271 0.186280 0.197871
H7    H     H_    0.193613 0.858355 0.234199 0.182173
O10   O     O_3   0.413410 0.242686 0.326360 -0.576244
C48   C     C_3   0.451259 0.345845 0.356280 -0.192212
H8    H     H_    0.541110 0.410092 0.333685 0.181282
H9    H     H_    0.453895 0.332365 0.432811 0.163739
H10   H     H_    0.384160 0.381346 0.323490 0.190092
Cl1   Cl    Cl    0.224100 0.142554 0.447902 -0.651056
O11   O     O_3   0.397370 0.800498 0.572310 -0.511835
C49   C     C_3   0.400252 0.816734 0.661727 -0.267829
H11   H     H_    0.436857 0.760727 0.713630 0.206440
H12   H     H_    0.306766 0.791905 0.677200 0.177960
H13   H     H_    0.461739 0.906800 0.669994 0.139347
Cl2   Cl    Cl    0.529879 0.809238 0.443174 -0.540273
Cl3   Cl    Cl    0.802732 0.874950 0.537553 -0.604983
O12   O     O_3   0.668840 0.311065 0.343448 -0.577762
C50   C     C_3   0.638548 0.304873 0.247866 -0.274678
H14   H     H_    0.612434 0.218218 0.234770 0.148894
H15   H     H_    0.719854 0.366035 0.211566 0.177128
H16   H     H_    0.565047 0.332250 0.215702 0.222587
Cl4   Cl    Cl    0.128026 0.281944 0.697973 -0.552330
Cl5   Cl    Cl    0.624837 0.389025 0.774019 -0.548755
O13   O     O_3   0.367740 0.279127 0.750372 -0.502716
C51   C     C_3   0.331429 0.171391 0.728256 -0.139349
H17   H     H_    0.386453 0.176615 0.676879 0.116021
H18   H     H_    0.232674 0.132640 0.701628 0.199811
H19   H     H_    0.345858 0.113327 0.792647 0.193552
O14   O     O_3   0.989213 0.313806 0.277123 -0.541964
C52   C     C_3   0.867383 0.231139 0.282070 -0.177620
H20   H     H_    0.813470 0.217463 0.212833 0.165466
H21   H     H_    0.823765 0.256527 0.321823 0.160033
H22   H     H_    0.867169 0.148231 0.320544 0.212260
Cl6   Cl    Cl    0.856156 0.696273 0.288683 -0.651505
Cl7   Cl    Cl    0.630803 0.748167 0.227658 -0.505971
O15   O     O_3   0.716621 0.367331 0.613698 -0.525050
C53   C     C_3   0.634686 0.249228 0.630297 -0.269335
H23   H     H_    0.555876 0.227336 0.574881 0.118799
H24   H     H_    0.601934 0.221179 0.699346 0.202952
H25   H     H_    0.684279 0.198458 0.632335 0.180614
O16   O     O_3   0.995183 0.214716 0.154295 -0.536865
C54   C     C_3   0.117217 0.229645 0.180918 -0.091199
H26   H     H_    0.173216 0.305954 0.214143 0.175354
H27   H     H_    0.160172 0.236532 0.120838 0.159829
H28   H     H_    0.117366 0.153554 0.232731 0.192869
Cl8   Cl    Cl    0.955513 0.177020 0.965109 -0.553252
O17   O     O_3   0.065836 0.706017 0.725152 -0.604080
C55   C     C_3   0.962745 0.729537 0.703198 -0.072920
H29   H     H_    0.940617 0.745068 0.764344 0.159472
H30   H     H_    0.881230 0.659607 0.674048 0.173880
H31   H     H_    0.984333 0.808761 0.649658 0.248393
O18   O     O_3   0.161755 0.819905 0.859516 -0.554727
C56   C     C_3   0.286942 0.847416 0.865646 -0.184246
H32   H     H_    0.328512 0.922788 0.810909 0.154024
H33   H     H_    0.301189 0.776558 0.853355 0.142523
H34   H     H_    0.335438 0.870273 0.934161 0.196514
O19   O     O_3   0.142417 0.821777 0.037498 -0.547632
C57   C     C_3   0.053565 0.864176 0.001262 -0.211713
H35   H     H_    0.077510 0.938295 0.033326 0.208916
H36   H     H_    0.960479 0.799005 0.018322 0.148799
H37   H     H_    0.052465 0.895370 0.924988 0.213262
O20   O     O_3   0.060705 0.889860 0.463087 -0.527704
C58   C     C_3   0.003806 0.926719 0.376843 -0.029559
H38   H     H_    0.904405 0.870681 0.373625 0.227439
H39   H     H_    0.037938 0.922921 0.315975 0.121483
H40   H     H_    0.011900 0.013482 0.371594 0.201976

loop_
_geom_bond_atom_site_label_1
_geom_bond_atom_site_label_2
_ccdc_geom_bond_type
C16   C28   A    
C21   C26   A    
O20   C58   S    
C19   C20   A    
C43   C44   A    
C10   H4    S    
C55   H30   S    
O12   C50   S    
C7    C8    A    
C45   C46   A    
C2    C46   A    
C23   O5    A    
C41   Cl4   S    
C30   N2    A    
O14   C52   S    
C36   C37   A    
C19   C21   A    
C1    O2    A    
C56   H33   S    
C30   C31   A    
C27   O20   S    
C16   C17   A    
C20   C25   A    
C34   O8    A    
C33   C36   A    
O18   C56   S    
C18   C19   A    
C48   H9    S    
C29   O13   S    
C44   O14   S    
C33   C35   A    
O10   C48   S    
Cu2   O8    S    
C31   C32   A    
C18   Cl2   S    
C1    C28   S    
C9    O19   S    
C31   Cl7   S    
C14   C27   A    
C51   H18   S    
Cu1   N1    S    
C12   O4    A    
C15   C23   S    
C53   H24   S    
C21   C22   A    
C35   N2    A    
C25   O12   S    
C48   H8    S    
C55   H29   S    
C53   H23   S    
Cu2   O6    S    
C23   O6    A    
C47   H7    S    
C14   Cl1   S    
C36   C40   A    
C38   C39   A    
C24   C25   A    
O11   C49   S    
C56   H34   S    
C24   O10   S    
C8    C9    A    
C15   C26   A    
C20   C28   A    
C52   H22   S    
C3    C45   A    
C17   Cl3   S    
C3    O16   S    
C47   H6    S    
Cu2   N2    S    
C48   H10   S    
C35   C39   A    
C49   H11   S    
C58   H39   S    
C32   H3    S    
C37   C38   A    
Cu1   O3    S    
C15   C27   A    
Cu1   Cu2   S    
C17   C18   A    
C16   H1    S    
C51   H19   S    
C52   H21   S    
C49   H12   S    
C41   N1    A    
O19   C57   S    
C12   O3    A    
C50   H14   S    
C53   H25   S    
C50   H15   S    
C22   C24   A    
C42   C43   A    
C57   H36   S    
C58   H38   S    
C44   C45   A    
Cu1   O1    S    
Cu2   O2    S    
C4    Cl8   S    
C6    C46   A    
O17   C55   S    
C29   C41   A    
C34   C43   S    
C4    C5    A    
Cu1   O7    S    
C11   C12   S    
Cu2   O4    S    
C6    C7    A    
C50   H16   S    
O16   C54   S    
C30   Cl6   S    
C38   Cl5   S    
C32   C33   A    
C14   C22   A    
C57   H37   S    
C1    O1    A    
C58   H40   S    
C5    C10   A    
C13   O17   S    
C56   H32   S    
C47   H5    S    
C11   C13   A    
C39   O15   S    
C5    C6    A    
C54   H27   S    
C2    C42   A    
C40   H2    S    
O15   C53   S    
C26   O11   S    
C34   O7    A    
C52   H20   S    
C49   H13   S    
C10   C11   A    
C8    O18   S    
Cu1   O5    S    
O9    C47   S    
C7    C13   A    
O13   C51   S    
C40   N1    A    
C54   H26   S    
C29   C37   A    
C57   H35   S    
C51   H17   S    
C2    C9    A    
C42   O9    S    
C55   H31   S    
C3    C4    A    
C54   H28   S    
