data_mof_unit_26568.cif
_audit_creation_date              2012-12-11T15:10:49-0500
_audit_creation_method            fapswitch 2.2
_symmetry_space_group_name_H-M    P1
_symmetry_Int_Tables_number       1
_space_group_crystal_system       triclinic
_cell_length_a                    21.12043
_cell_length_b                    7.232749
_cell_length_c                    18.374968
_cell_angle_alpha                 89.999329
_cell_angle_beta                  93.117221
_cell_angle_gamma                 90.000039
_cell_volume                      2802.78426544

loop_
_atom_site_label
_atom_site_type_symbol
_atom_type_description
_atom_site_fract_x
_atom_site_fract_y
_atom_site_fract_z
_atom_type_partial_charge
O1    O     O_R   0.448880 0.506250 0.415280 -0.517587
O2    O     O_R   0.551120 0.006250 0.584720 -0.517587
O3    O     O_R   0.434830 0.174000 0.557310 -0.491246
O4    O     O_R   0.565170 0.674000 0.442690 -0.491245
C1    C     C_R   0.417287 0.344585 0.580055 0.718842
C2    C     C_R   0.582713 0.844586 0.419945 0.718848
O5    O     O_R   0.441680 0.176440 0.414130 -0.533786
O6    O     O_R   0.558320 0.676440 0.585870 -0.533786
O7    O     O_R   0.558020 0.007570 0.440520 -0.530942
O8    O     O_R   0.441980 0.507570 0.559480 -0.530938
C3    C     C_R   0.426600 0.344976 0.389439 0.718249
C4    C     C_R   0.573400 0.844975 0.610561 0.718255
O9    O     O_3   0.538160 0.339670 0.508820 -0.362372
O10   O     O_3   0.461840 0.839670 0.491180 -0.362370
V1    V     V_3+5 0.492920 0.064260 0.498360 1.556595
V2    V     V_3+5 0.507080 0.564260 0.501640 1.556596
C5    C     C_R   0.883070 0.908361 0.689086 -0.029120
C6    C     C_R   0.116929 0.408343 0.310914 -0.029121
H1    H     H_    0.969431 0.943759 0.755106 0.114868
H2    H     H_    0.030567 0.443738 0.244894 0.114867
H3    H     H_    0.806640 0.809185 0.575425 0.145628
H4    H     H_    0.193360 0.309165 0.424575 0.145628
C7    C     C_R   0.888254 0.939261 0.820328 -0.047029
C8    C     C_R   0.111746 0.439256 0.179672 -0.047028
C9    C     C_R   0.580515 0.876661 0.745655 -0.049263
C10   C     C_R   0.419485 0.376679 0.254345 -0.049260
C11   C     C_R   0.615377 0.912199 0.811517 -0.058795
C12   C     C_R   0.384623 0.412221 0.188483 -0.058795
C13   C     C_R   0.681204 0.926734 0.813332 -0.203602
C14   C     C_R   0.318795 0.426749 0.186668 -0.203601
C15   C     C_R   0.715776 0.895567 0.750984 0.082063
C16   C     C_R   0.284223 0.395571 0.249016 0.082062
C17   C     C_R   0.681164 0.852144 0.683653 0.018034
C18   C     C_R   0.318836 0.352144 0.316347 0.018034
C19   C     C_R   0.784018 0.906152 0.754066 0.081098
C20   C     C_R   0.215982 0.406150 0.245934 0.081098
C21   C     C_R   0.816201 0.888648 0.688462 0.072303
C22   C     C_R   0.183798 0.388637 0.311538 0.072304
C23   C     C_R   0.781847 0.839146 0.624245 -0.209942
C24   C     C_R   0.218152 0.339132 0.375755 -0.209944
C25   C     C_R   0.716816 0.807320 0.622718 -0.079232
C26   C     C_R   0.283184 0.307311 0.377282 -0.079234
C27   C     C_R   0.821817 0.928608 0.820241 -0.209010
C28   C     C_R   0.178183 0.428609 0.179759 -0.209011
C29   C     C_R   0.918150 0.933407 0.754755 -0.194492
C30   C     C_R   0.081849 0.433391 0.245246 -0.194491
C31   C     C_R   0.612784 0.853732 0.680498 -0.167837
C32   C     C_R   0.387216 0.353738 0.319503 -0.167836
H5    H     H_    0.801647 0.931347 0.872826 0.098503
H6    H     H_    0.198352 0.431357 0.127173 0.098502
H7    H     H_    0.704257 0.964813 0.864910 0.119305
H8    H     H_    0.295743 0.464832 0.135090 0.119305
C33   C     C_1   0.864468 0.939016 0.132042 -0.198092
C34   C     C_1   0.135532 0.439019 0.867958 -0.198092
C35   C     C_1   0.821556 0.924989 0.175733 0.013269
C36   C     C_1   0.178444 0.424992 0.824267 0.013270
C37   C     C_1   0.770916 0.905874 0.227747 0.019175
C38   C     C_1   0.229084 0.405875 0.772252 0.019175
C39   C     C_1   0.728283 0.889223 0.271658 0.018486
C40   C     C_1   0.271717 0.389223 0.728341 0.018486
C41   C     C_1   0.677688 0.870070 0.323714 0.026481
C42   C     C_1   0.322312 0.370068 0.676286 0.026481
C43   C     C_1   0.634855 0.855999 0.367486 -0.127886
C44   C     C_1   0.365145 0.355997 0.632514 -0.127889
O11   O     O_R   0.058070 0.289240 0.940580 -0.519990
O12   O     O_R   0.941930 0.789240 0.059420 -0.519991
O13   O     O_R   0.058330 0.616740 0.085880 -0.533246
O14   O     O_R   0.941670 0.116740 0.914120 -0.533246
C45   C     C_R   0.072182 0.448552 0.111213 0.692147
C46   C     C_R   0.927817 0.948553 0.888787 0.692148
O15   O     O_R   0.065180 0.619040 0.942700 -0.522871
O16   O     O_R   0.934820 0.119040 0.057300 -0.522870
O17   O     O_R   0.948870 0.787780 0.915270 -0.530072
O18   O     O_R   0.051130 0.287780 0.084730 -0.530073
C47   C     C_R   0.083218 0.450345 0.920216 0.705492
C48   C     C_R   0.916782 0.950344 0.079783 0.705492
O19   O     O_3   0.961870 0.453310 0.991210 -0.366128
O20   O     O_3   0.038130 0.953310 0.008790 -0.366128
V3    V     V_3+5 0.007070 0.728770 0.001630 1.429652
V4    V     V_3+5 0.992930 0.228770 0.998370 1.429652
C49   C     C_1   0.917552 0.899454 0.623259 0.301450
N1    N     N_1   0.945181 0.892378 0.570637 -0.310675
C50   C     C_1   0.082447 0.399431 0.376742 0.301447
N2    N     N_1   0.054818 0.392350 0.429364 -0.310673
C51   C     C_2   0.510126 0.860508 0.746018 0.734872
O21   O     O_2   0.476008 0.951097 0.703616 -0.557187
O22   O     O_R   0.483070 0.742681 0.796052 -0.647097
H9    H     H_    0.435015 0.743308 0.791306 0.307257
C52   C     C_2   0.489874 0.360534 0.253982 0.734872
O23   O     O_2   0.523990 0.451128 0.296383 -0.557187
O24   O     O_R   0.516932 0.242708 0.203950 -0.647097
H10   H     H_    0.564986 0.243340 0.208696 0.307257
C53   C     C_1   0.584106 0.944910 0.878469 0.372031
N3    N     N_1   0.559142 0.971157 0.932041 -0.286974
C54   C     C_1   0.415893 0.444942 0.121531 0.372027
N4    N     N_1   0.440858 0.471197 0.067960 -0.286974
C55   C     C_1   0.693037 0.693068 0.563155 0.268021
N5    N     N_1   0.676625 0.596150 0.515790 -0.329358
C56   C     C_1   0.306965 0.193056 0.436845 0.268023
N6    N     N_1   0.323376 0.096137 0.484210 -0.329354

loop_
_geom_bond_atom_site_label_1
_geom_bond_atom_site_label_2
_ccdc_geom_bond_type
O14   V4    S    
C14   C16   A    
O22   H9    S    
C53   N3    T    
C7    C29   A    
C11   C13   A    
C54   N4    T    
O1    C3    A    
O16   C48   A    
O2    C4    A    
C2    O7    A    
O15   V3    S    
C55   N5    T    
C23   C25   A    
C51   O21   D    
C10   C52   S    
O5    C3    A    
O12   V3    S    
C12   C54   S    
C16   C20   A    
C19   C21   A    
C5    C29   A    
C37   C39   T    
C38   C40   T    
C7    C27   A    
C40   C42   S    
C41   C43   T    
C42   C44   T    
C50   N2    T    
C12   C14   A    
C18   C26   A    
C15   C17   A    
C52   O24   S    
C19   C27   A    
C9    C31   A    
C5    C49   S    
C10   C32   A    
O5    V1    S    
O12   C48   A    
O6    V2    S    
O11   V4    S    
O18   V4    S    
C13   C15   A    
C7    C46   S    
C3    C32   S    
C4    C31   S    
C6    C30   A    
C8    C45   S    
C49   N1    T    
C33   C35   T    
C21   C23   A    
C34   C36   T    
C39   C41   S    
C51   O22   S    
O13   V3    S    
O4    C2    A    
O24   H10   S    
O20   V3    S    
C27   H5    S    
C1    C44   S    
O13   C45   A    
C16   C18   A    
C2    C43   S    
O4    V2    S    
C56   N6    T    
H3    C23   S    
O6    C4    A    
H4    C24   S    
C46   O17   A    
C9    C51   S    
C6    C50   S    
O17   V3    S    
C45   O18   A    
O1    V2    S    
C5    C21   A    
O2    V1    S    
C35   C37   S    
C17   C31   A    
C15   C19   A    
C20   C28   A    
C33   C48   S    
C18   C32   A    
O3    V1    S    
C13   H7    S    
O19   V4    S    
C28   H6    S    
C14   H8    S    
O3    C1    A    
H1    C29   S    
C9    C11   A    
C10   C12   A    
O11   C47   A    
C8    C30   A    
C20   C22   A    
C6    C22   A    
C17   C25   A    
C1    O8    A    
O16   V4    S    
O8    V2    S    
C26   C56   S    
O15   C47   A    
C22   C24   A    
C8    C28   A    
C24   C26   A    
C36   C38   S    
C25   C55   S    
O7    V1    S    
C11   C53   S    
C34   C47   S    
O14   C46   A    
O9    V2    S    
O10   V1    S    
C52   O23   D    
H2    C30   S    
