data_mof_unit_50143.cif
_audit_creation_date              2012-10-26T20:21:29-0400
_audit_creation_method            fapswitch 2.2
_symmetry_space_group_name_H-M    P1
_symmetry_Int_Tables_number       1
_space_group_crystal_system       triclinic
_cell_length_a                    10.910103
_cell_length_b                    9.52186
_cell_length_c                    11.698798
_cell_angle_alpha                 89.970903
_cell_angle_beta                  90.201403
_cell_angle_gamma                 90.181709
_cell_volume                      1215.30969899

loop_
_atom_site_label
_atom_site_type_symbol
_atom_type_description
_atom_site_fract_x
_atom_site_fract_y
_atom_site_fract_z
_atom_type_partial_charge
C1    C     C_R   0.261787 0.499835 0.501602 0.564977
C2    C     C_R   0.936261 0.624087 0.475003 0.198859
C3    C     C_R   0.934874 0.380705 0.538704 0.207864
C4    C     C_R   0.062226 0.628251 0.492674 0.210897
C5    C     C_R   0.870933 0.501608 0.504363 -0.095911
C6    C     C_R   0.127284 0.500149 0.504614 -0.095862
C7    C     C_R   0.443890 0.074127 0.414291 -0.002677
C8    C     C_R   0.558864 0.925801 0.584211 0.017924
C9    C     C_R   0.558183 0.074511 0.584578 0.032779
C10   C     C_R   0.442168 0.925483 0.415213 -0.006241
C11   C     C_3   0.138453 0.181708 0.429361 0.035912
C12   C     C_R   0.737582 0.500414 0.501320 0.559455
C13   C     C_3   0.022675 0.120551 0.373488 -0.253430
C14   C     C_3   0.055523 0.048306 0.261137 -0.493213
C15   C     C_3   0.856825 0.739027 0.321656 0.033381
C16   C     C_3   0.760151 0.847631 0.288338 -0.244922
C17   C     C_3   0.735433 0.846991 0.159828 -0.496302
C18   C     C_3   0.845741 0.300532 0.702824 0.030307
C19   C     C_3   0.859624 0.169900 0.777061 -0.265262
C20   C     C_3   0.808244 0.192948 0.896776 -0.496414
C21   C     C_3   0.146481 0.795823 0.609911 0.045313
C22   C     C_3   0.033688 0.849191 0.674679 -0.267384
C23   C     C_R   0.500384 0.500042 0.283932 0.537888
C24   C     C_3   0.065540 0.877980 0.799742 -0.504336
C25   C     C_R   0.500366 0.499967 0.716074 0.530182
C26   C     C_1   0.501088 0.500096 0.162316 -0.039580
C27   C     C_1   0.501146 0.499889 0.837696 -0.039565
C28   C     C_1   0.501531 0.500036 0.059868 -0.060038
C29   C     C_1   0.501573 0.499922 0.940146 -0.057811
C30   C     C_R   0.060621 0.373785 0.521787 0.219489
Cu1   Cu    Cu3+1 0.500000 0.640660 0.500000 0.933262
Cu2   Cu    Cu3+1 0.500000 0.359340 0.500000 0.951902
H1    H     H_    0.398907 0.129708 0.345408 0.097644
H2    H     H_    0.971113 0.015805 0.215437 0.145012
H3    H     H_    0.112697 0.954132 0.277946 0.172035
H4    H     H_    0.822665 0.633787 0.293592 0.111315
H5    H     H_    0.943970 0.762227 0.276249 0.138746
H6    H     H_    0.673526 0.823305 0.333396 0.214988
H7    H     H_    0.790234 0.954043 0.315418 0.167687
H8    H     H_    0.820712 0.870358 0.111812 0.134089
H9    H     H_    0.666166 0.928253 0.138715 0.148897
H10   H     H_    0.699378 0.742950 0.132694 0.157059
H11   H     H_    0.749065 0.336199 0.705983 0.154594
H12   H     H_    0.606513 0.870154 0.651522 0.114945
H13   H     H_    0.904591 0.384899 0.741037 0.102751
H14   H     H_    0.811407 0.079614 0.736615 0.162838
H15   H     H_    0.958632 0.145023 0.783856 0.181448
H16   H     H_    0.856290 0.281741 0.939400 0.148123
H17   H     H_    0.821741 0.096636 0.948837 0.142418
H18   H     H_    0.708553 0.215879 0.892174 0.152755
H19   H     H_    0.215980 0.881356 0.607957 0.164472
H20   H     H_    0.188883 0.707604 0.658495 0.131087
H21   H     H_    0.999316 0.946756 0.633715 0.206400
H22   H     H_    0.959449 0.769307 0.672803 0.171580
H23   H     H_    0.604527 0.130455 0.652509 0.114669
H24   H     H_    0.104434 0.782536 0.840530 0.144752
H25   H     H_    0.981441 0.906967 0.847185 0.140977
H26   H     H_    0.133104 0.965168 0.806121 0.160144
H27   H     H_    0.395082 0.869608 0.347552 0.124724
H28   H     H_    0.202242 0.093317 0.444444 0.161746
H29   H     H_    0.183803 0.255201 0.368476 0.122752
H30   H     H_    0.978920 0.043557 0.432043 0.227160
H31   H     H_    0.956243 0.205557 0.354461 0.161017
H32   H     H_    0.106629 0.121425 0.204499 0.134040
N1    N     N_R   0.500000 0.852070 0.500000 -0.237670
N2    N     N_R   0.500000 0.147930 0.500000 -0.218290
O1    O     O_R   0.319640 0.618740 0.499990 -0.472320
O2    O     O_3   0.876820 0.745389 0.441068 -0.528487
O3    O     O_3   0.876526 0.266751 0.588328 -0.529898
O4    O     O_3   0.118969 0.758767 0.494917 -0.538048
O5    O     O_R   0.680360 0.381260 0.500010 -0.471368
O6    O     O_R   0.680360 0.618740 0.500010 -0.467272
O7    O     O_R   0.319640 0.381260 0.499990 -0.473406
O8    O     O_R   0.500010 0.618790 0.337200 -0.515131
O9    O     O_R   0.499990 0.381210 0.662800 -0.508141
O10   O     O_R   0.499990 0.618790 0.662800 -0.512222
O11   O     O_R   0.500010 0.381210 0.337200 -0.508248
O12   O     O_3   0.116694 0.244900 0.537146 -0.523805

loop_
_geom_bond_atom_site_label_1
_geom_bond_atom_site_label_2
_ccdc_geom_bond_type
C8    C9    A    
C7    C10   A    
C27   C29   T    
C19   C20   S    
Cu2   O9    S    
C4    O4    S    
C19   H14   S    
C22   H22   S    
Cu1   O1    S    
C28   C29   S    
C3    O3    S    
C2    O2    S    
C19   H15   S    
C15   C16   S    
C18   C19   S    
C23   C26   S    
C9    N2    A    
C15   H5    S    
C20   H18   S    
Cu2   O11   S    
C17   H10   S    
C13   H30   S    
C16   C17   S    
C9    H23   S    
C22   H21   S    
C18   O3    S    
C12   O6    A    
C8    N1    A    
C13   C14   S    
C7    H1    S    
Cu2   O5    S    
C1    C6    S    
C5    C12   S    
C4    C6    A    
Cu2   O7    S    
C24   H25   S    
Cu1   O8    S    
C3    C5    A    
C14   H3    S    
C25   O9    A    
C17   H8    S    
C3    C30   A    
C2    C4    A    
C20   H17   S    
C11   O12   S    
Cu1   Cu2   S    
C13   H31   S    
C14   H32   S    
C23   O11   A    
C20   H16   S    
Cu1   O6    S    
C6    C30   A    
C12   O5    A    
C22   C24   S    
C2    C5    A    
C24   H24   S    
C23   O8    A    
C11   H28   S    
C18   H13   S    
C15   H4    S    
C21   H19   S    
Cu2   N2    S    
C10   N1    A    
Cu1   N1    S    
C8    H12   S    
C11   H29   S    
C14   H2    S    
C25   C27   S    
C26   C28   T    
C21   O4    S    
C25   O10   A    
C1    O7    A    
C10   H27   S    
C18   H11   S    
C7    N2    A    
C11   C13   S    
Cu1   O10   S    
C15   O2    S    
C1    O1    A    
C17   H9    S    
C16   H7    S    
C30   O12   S    
C24   H26   S    
C21   C22   S    
C21   H20   S    
C16   H6    S    
