data_mof_unit_47891.cif
_audit_creation_date              2012-12-11T18:37:38-0500
_audit_creation_method            fapswitch 2.2
_symmetry_space_group_name_H-M    P1
_symmetry_Int_Tables_number       1
_space_group_crystal_system       triclinic
_cell_length_a                    8.255562
_cell_length_b                    14.288351
_cell_length_c                    27.002937
_cell_angle_alpha                 93.334932
_cell_angle_beta                  92.797298
_cell_angle_gamma                 88.36081
_cell_volume                      3174.97877172

loop_
_atom_site_label
_atom_site_type_symbol
_atom_type_description
_atom_site_fract_x
_atom_site_fract_y
_atom_site_fract_z
_atom_type_partial_charge
Ba1   Ba    Ba6+2 0.849670 0.455410 0.524690 1.662261
Ba2   Ba    Ba6+2 0.340150 0.544510 0.475310 1.647863
C1    C     C_3   0.735363 0.134364 0.694255 -0.335642
C2    C     C_R   0.934073 0.591831 0.176198 0.574715
C3    C     C_2   0.768313 0.563612 0.270549 -0.083349
C4    C     C_3   0.179328 0.223440 0.663400 0.395359
C5    C     C_3   0.752739 0.593275 0.324597 -0.047584
C6    C     C_1   0.979394 0.484282 0.343390 0.033093
C7    C     C_2   0.018094 0.478028 0.295685 -0.102994
C8    C     C_2   0.904940 0.517483 0.255833 0.199355
C9    C     C_R   0.015781 0.502363 0.101263 -0.079781
C10   C     C_R   0.023984 0.420951 0.128497 -0.036359
C11   C     C_R   0.066930 0.335364 0.103978 -0.059906
C12   C     C_3   0.688228 0.214292 0.661185 0.353029
C13   C     C_R   0.971367 0.588271 0.125570 -0.024585
C14   C     C_2   0.851966 0.533470 0.359360 -0.288629
C15   C     C_2   0.328472 0.457826 0.638624 -0.256866
C16   C     C_3   0.232925 0.158246 0.704321 0.229582
C17   C     C_R   0.115933 0.405332 0.972812 0.019446
C18   C     C_R   0.088725 0.577546 0.972301 0.020366
C19   C     C_R   0.119390 0.489306 0.947010 0.050288
C20   C     C_R   0.138605 0.319098 0.945183 -0.100795
C21   C     C_R   0.168273 0.315644 0.894725 -0.060198
C22   C     C_R   0.178028 0.397904 0.869298 -0.026783
C23   C     C_3   0.530855 0.668004 0.621979 0.305111
C24   C     C_R   0.153804 0.484987 0.895337 -0.080311
C25   C     C_R   0.163675 0.567701 0.869676 -0.036062
C26   C     C_R   0.201232 0.562350 0.818837 0.596328
C27   C     C_R   0.210994 0.394521 0.818255 0.590593
C28   C     C_3   0.164653 0.257775 0.423511 0.309480
C29   C     C_2   0.403348 0.421109 0.727521 -0.107941
C30   C     C_3   0.429327 0.398065 0.673084 -0.065000
C31   C     C_1   0.205280 0.509977 0.654910 0.037029
C32   C     C_2   0.164649 0.516214 0.702231 -0.084941
C33   C     C_2   0.269916 0.471095 0.741667 0.212451
C34   C     C_3   0.511545 0.688387 0.677301 -0.345595
C35   C     C_R   0.088571 0.410080 0.024905 0.020049
C36   C     C_R   0.050958 0.497931 0.049636 0.049957
C37   C     C_R   0.047454 0.581448 0.023263 0.020118
C38   C     C_R   0.098168 0.329864 0.053523 -0.099267
C39   C     C_R   0.963612 0.669447 0.098731 -0.060314
C40   C     C_3   0.168014 0.152011 0.412748 -0.381240
C41   C     C_R   0.101407 0.659204 0.945510 -0.099044
C42   C     C_R   0.138115 0.654227 0.895557 -0.057875
C43   C     C_R   0.000904 0.666330 0.048948 -0.101799
C44   C     C_R   0.691119 0.064874 0.474396 -0.033074
C45   C     C_3   0.089195 0.746515 0.335100 0.332516
C46   C     C_R   0.510872 0.198753 0.501809 0.050708
C47   C     C_R   0.373787 0.230275 0.526784 -0.288282
C48   C     C_R   0.274364 0.167213 0.547218 0.016028
C49   C     C_R   0.321157 0.073087 0.548255 -0.150134
C50   C     C_R   0.462866 0.040259 0.525518 -0.004710
C51   C     C_R   0.556327 0.102045 0.500152 -0.025246
C52   C     C_3   0.042432 0.753709 0.585909 0.653736
C53   C     C_R   0.644115 0.909037 0.502134 -0.023539
C54   C     C_R   0.737713 0.969761 0.476176 -0.001435
C55   C     C_R   0.688389 0.812958 0.502217 0.090432
C56   C     C_3   0.108169 0.773002 0.282015 -0.305875
C57   C     C_R   0.823678 0.778965 0.477182 -0.255846
C58   C     C_R   0.922628 0.839405 0.454640 0.007675
C59   C     C_R   0.878672 0.934651 0.453227 -0.141849
C60   C     C_R   0.508660 0.945691 0.526830 -0.033866
C61   C     C_3   0.148719 0.839171 0.586698 -0.319783
C62   C     C_3   0.658205 0.339951 0.379944 0.298169
C63   C     C_3   0.658882 0.316577 0.324282 -0.361841
C64   C     C_3   0.554913 0.795881 0.355232 0.351050
C65   C     C_3   0.517260 0.892077 0.335549 -0.362307
C66   C     C_R   0.988658 0.426684 0.179623 0.597507
H1    H     H_    0.733533 0.197909 0.623512 0.087063
H2    H     H_    0.572952 0.400299 0.386647 0.081009
H3    H     H_    0.868819 0.126161 0.698568 0.155054
H4    H     H_    0.749888 0.259680 0.316184 0.134655
H5    H     H_    0.689702 0.379255 0.304701 0.072245
H6    H     H_    0.536952 0.293473 0.310202 0.132658
H7    H     H_    0.553966 0.217771 0.658362 -0.091671
H8    H     H_    0.685743 0.067788 0.677420 0.075696
H9    H     H_    0.414703 0.641891 0.604986 -0.013454
H10   H     H_    0.627061 0.613096 0.616965 0.098372
H11   H     H_    0.411617 0.740902 0.683333 0.141594
H12   H     H_    0.253128 0.132561 0.383012 0.129530
H13   H     H_    0.482746 0.623139 0.695019 0.078631
H14   H     H_    0.626065 0.716070 0.694980 0.134342
H15   H     H_    0.685282 0.148614 0.731460 0.115009
H16   H     H_    0.339743 0.187543 0.726061 0.040543
H17   H     H_    0.168181 0.683727 0.341643 0.099193
H18   H     H_    0.960797 0.729632 0.339513 -0.048964
H19   H     H_    0.221930 0.811215 0.278891 0.142609
H20   H     H_    0.114596 0.708385 0.257402 0.124396
H21   H     H_    0.003928 0.818236 0.269739 0.124353
H22   H     H_    0.688313 0.783233 0.354183 -0.061636
H23   H     H_    0.208060 0.115564 0.446480 0.061100
H24   H     H_    0.518322 0.797298 0.394361 0.066527
H25   H     H_    0.589961 0.945554 0.357500 0.069065
H26   H     H_    0.386865 0.910997 0.338841 0.150513
H27   H     H_    0.130982 0.290405 0.680547 0.022228
H28   H     H_    0.548232 0.892289 0.295995 0.123469
H29   H     H_    0.132830 0.445392 0.285362 0.123709
H30   H     H_    0.076194 0.271501 0.123805 0.121648
H31   H     H_    0.482153 0.387522 0.754954 0.099948
H32   H     H_    0.184532 0.247450 0.875624 0.120518
H33   H     H_    0.131106 0.252216 0.961231 0.069493
H34   H     H_    0.044683 0.128447 0.400501 0.118336
H35   H     H_    0.132574 0.261301 0.038248 0.069009
H36   H     H_    0.680991 0.591387 0.243459 0.114223
H37   H     H_    0.928322 0.736621 0.116243 0.121935
H38   H     H_    0.086865 0.728936 0.962295 0.069352
H39   H     H_    0.288837 0.238540 0.643406 -0.148543
H40   H     H_    0.146535 0.719213 0.877173 0.124223
H41   H     H_    0.053590 0.553154 0.712654 0.119704
H42   H     H_    0.988470 0.732056 0.031401 0.069377
H43   H     H_    0.835734 0.546865 0.398799 0.081426
H44   H     H_    0.343495 0.444501 0.599126 0.081030
H45   H     H_    0.049050 0.716451 0.548770 0.022284
H46   H     H_    0.337872 0.303735 0.527276 0.063681
H47   H     H_    0.245677 0.025732 0.566093 0.091491
H48   H     H_    0.954673 0.980953 0.434785 0.074241
H49   H     H_    0.856743 0.705135 0.477278 0.059211
H50   H     H_    0.762071 0.108723 0.453020 0.097664
H51   H     H_    0.133812 0.153279 0.730258 0.104679
H52   H     H_    0.436711 0.901230 0.547188 0.082407
H53   H     H_    0.289182 0.281004 0.433033 0.003617
H54   H     H_    0.085814 0.274894 0.455108 0.060727
H55   H     H_    0.877756 0.808876 0.628593 0.319196
H56   H     H_    0.120869 0.889446 0.618281 0.132113
H57   H     H_    0.374238 0.072921 0.667035 0.290715
H58   H     H_    0.128349 0.874963 0.551453 0.067866
H59   H     H_    0.277383 0.817055 0.591630 0.111516
H60   H     H_    0.781744 0.358982 0.393721 0.011639
N1    N     N_R   0.944017 0.511686 0.203211 -0.422235
N2    N     N_R   0.225909 0.476278 0.793645 -0.421774
O1    O     O_2   0.918080 0.549800 0.616640 -0.446474
O2    O     O_2   0.259765 0.833899 0.457601 -0.487892
O3    O     O_3   0.134649 0.821987 0.367825 -0.604754
O4    O     O_3   0.150070 0.549720 0.556460 -0.502835
O5    O     O_3   0.546340 0.387390 0.478340 -0.489641
O6    O     O_2   0.398940 0.728800 0.517420 -0.479723
O7    O     O_3   0.573377 0.750535 0.600727 -0.609424
O8    O     O_2   0.418157 0.545370 0.321223 -0.496689
O9    O     O_3   0.469141 0.726945 0.326016 -0.596063
O10   O     O_2   0.994937 0.355592 0.202769 -0.595670
O11   O     O_2   0.225346 0.318432 0.795605 -0.633201
O12   O     O_3   0.609800 0.261071 0.403250 -0.640486
O13   O     O_2   0.892906 0.667015 0.196234 -0.622235
O14   O     O_2   0.214010 0.634437 0.797260 -0.592444
O15   O     O_3   0.658250 0.379560 0.591530 -0.479518
O16   O     O_2   0.734778 0.481320 0.675462 -0.488005
O17   O     O_3   0.096447 0.698133 0.624756 -0.653345
O18   O     O_3   0.755244 0.298352 0.681748 -0.577249
O19   O     O_2   0.790750 0.271170 0.482550 -0.470339
O20   O     O_3   0.062300 0.331660 0.568480 -0.480521
O21   O     O_2   0.935875 0.165179 0.541485 -0.490797
O22   O     O_3   0.883253 0.784462 0.593475 -0.764478
O23   O     O_3   0.056515 0.181458 0.632470 -0.583921
O24   O     O_3   0.271254 0.068162 0.684101 -0.712503
O25   O     O_2   0.271610 0.450170 0.383330 -0.461518
O26   O     O_3   0.039630 0.450200 0.443530 -0.498056
O27   O     O_3   0.531440 0.620360 0.408460 -0.479751
O28   O     O_3   0.104866 0.300306 0.380841 -0.624305
O29   O     O_3   0.643350 0.612530 0.521650 -0.474369
O30   O     O_3   0.127390 0.668260 0.431510 -0.492372
P1    P     P_3+3 0.090020 0.577590 0.608380 1.000593
P2    P     P_3+3 0.614340 0.285150 0.467650 0.971489
P3    P     P_3+3 0.080875 0.210166 0.571284 0.976432
P4    P     P_3+3 0.099670 0.422330 0.391610 0.989941
P5    P     P_3+3 0.111201 0.790829 0.428689 0.944185
P6    P     P_3+3 0.645530 0.391827 0.656094 0.966756
P7    P     P_3+3 0.580861 0.728319 0.536446 0.996732
P8    P     P_3+3 0.541340 0.617265 0.344141 0.940246

loop_
_geom_bond_atom_site_label_1
_geom_bond_atom_site_label_2
_ccdc_geom_bond_type
C53   C54   A    
C53   C60   A    
C40   H12   S    
Ba2   O25   S    
C30   P6    S    
C9    C36   A    
O18   P6    S    
Ba1   O15   S    
C5    P8    S    
C56   H19   S    
C2    O13   D    
C61   H56   S    
C64   H22   S    
H57   O24   S    
O20   P3    S    
C10   C66   A    
C24   C25   A    
Ba2   O4    S    
C20   H33   S    
C39   H37   S    
O23   P3    S    
C23   H9    S    
C45   H17   S    
C17   C19   A    
C22   C24   A    
Ba1   Ba2   S    
C35   C38   A    
C36   C37   A    
C55   C57   A    
C46   P2    S    
C52   C61   S    
O1    P1    D    
C52   H45   S    
C12   O18   S    
C63   H5    S    
C44   H50   S    
O8    P8    D    
C32   C33   S    
C11   H30   S    
C22   C27   A    
C11   C38   A    
C17   C35   A    
C9    C13   A    
C25   C42   A    
C64   O9    S    
C28   H54   S    
C34   H14   S    
C6    C7    D    
C62   H60   S    
C65   H26   S    
C16   H16   S    
C4    H39   S    
Ba1   O19   S    
C26   O14   D    
C29   H31   S    
C7    C8    S    
C60   H52   S    
C16   O24   S    
O28   P4    S    
C37   C43   A    
Ba2   O26   S    
C47   H46   S    
O16   P6    D    
C3    H36   S    
Ba1   P1    S    
C57   C58   A    
C6    C14   D    
C31   P1    S    
C45   O3    S    
C23   O7    S    
C66   N1    Am   
C15   C31   D    
C40   H34   S    
O27   P8    S    
C19   C24   A    
C31   C32   D    
O15   P6    S    
C42   H40   S    
C46   C51   A    
C4    C16   S    
C49   C50   A    
C4    O23   S    
C45   H18   S    
Ba1   O29   S    
C17   C20   A    
O2    P5    D    
C13   C39   A    
O17   P1    S    
Ba2   P4    S    
C3    C5    S    
C18   C37   A    
C43   H42   S    
Ba2   O29   S    
C64   H24   S    
Ba2   O6    S    
C63   H6    S    
C23   H10   S    
C58   C59   A    
C41   H38   S    
Ba1   O26   S    
C1    H3    S    
C41   C42   A    
C35   C36   A    
O3    P5    S    
C27   N2    Am   
C28   H53   S    
C34   H13   S    
C21   C22   A    
C27   O11   D    
C59   H48   S    
C48   C49   A    
Ba1   O20   S    
O30   P5    S    
C10   C11   A    
C1    H8    S    
C33   N2    S    
C1    C12   S    
C46   C47   A    
Ba1   P2    S    
C47   C48   A    
C62   H2    S    
C53   C55   A    
C6    P4    S    
C65   H28   S    
C15   C30   S    
C12   H1    S    
C29   C33   D    
C66   O10   D    
C57   H49   S    
Ba1   O4    S    
C15   H44   S    
O7    P7    S    
C18   C41   A    
C50   C51   A    
C28   O28   S    
H55   O22   S    
C5    C14   S    
C7    H29   S    
C48   P3    S    
C54   C59   A    
C29   C30   S    
Ba2   O5    S    
Ba1   O1    S    
C34   H11   S    
C56   H20   S    
O12   P2    S    
C52   O22   S    
C9    C10   A    
C2    N1    Am   
C55   P7    S    
O6    P7    D    
O25   P4    D    
C63   H4    S    
O21   P3    D    
C58   P5    S    
O4    P1    S    
C21   H32   S    
C62   C63   S    
C2    C13   A    
C8    N1    S    
C3    C8    D    
C50   C60   A    
C12   H7    S    
C38   H35   S    
C1    H15   S    
C62   O12   S    
Ba2   O27   S    
C44   C51   A    
O5    P2    S    
O29   P7    S    
C64   C65   S    
C26   N2    Am   
O9    P8    S    
C56   H21   S    
C49   H47   S    
C61   H58   S    
C23   C34   S    
C18   C19   A    
O26   P4    S    
Ba2   O30   S    
C4    H27   S    
C44   C54   A    
C25   C26   A    
C65   H25   S    
C32   H41   S    
C39   C43   A    
C20   C21   A    
C28   C40   S    
O19   P2    D    
Ba1   O5    S    
C16   H51   S    
C61   H59   S    
C40   H23   S    
C14   H43   S    
C52   O17   S    
C45   C56   S    
