data_mof_unit_63831.cif
_audit_creation_date              2012-10-26T18:22:27-0400
_audit_creation_method            fapswitch 2.2
_symmetry_space_group_name_H-M    P1
_symmetry_Int_Tables_number       1
_space_group_crystal_system       triclinic
_cell_length_a                    27.896569
_cell_length_b                    27.848688
_cell_length_c                    27.905951
_cell_angle_alpha                 109.343015
_cell_angle_beta                  109.670538
_cell_angle_gamma                 109.329519
_cell_volume                      16703.3866563

loop_
_atom_site_label
_atom_site_type_symbol
_atom_type_description
_atom_site_fract_x
_atom_site_fract_y
_atom_site_fract_z
_atom_type_partial_charge
C1    C     C_R   0.420431 0.420381 0.499991 0.554849
C2    C     C_R   0.206271 0.206157 0.499590 0.038719
C3    C     C_R   0.232104 0.190591 0.466218 -0.106270
C4    C     C_R   0.579913 0.500096 0.579859 0.554512
C5    C     C_R   0.275579 0.234047 0.466275 -0.106060
C6    C     C_R   0.293489 0.293339 0.499698 0.037290
C7    C     C_R   0.267636 0.308888 0.533047 -0.105322
C8    C     C_1   0.161526 0.161420 0.499624 -0.058732
C9    C     C_1   0.338299 0.338152 0.499794 -0.059160
C10   C     C_1   0.375795 0.375691 0.499896 -0.024990
C11   C     C_1   0.124092 0.124033 0.499728 -0.024623
C12   C     C_3   0.751586 0.439091 0.734176 -0.213831
C13   C     C_R   0.228355 0.538473 0.264550 -0.105250
C14   C     C_R   0.205305 0.499710 0.205125 0.038821
C15   C     C_R   0.226133 0.460949 0.189570 -0.105771
C16   C     C_R   0.579519 0.579600 0.499968 0.551893
C17   C     C_R   0.269722 0.460962 0.233161 -0.105544
C18   C     C_R   0.292772 0.499735 0.292593 0.037505
C19   C     C_R   0.271935 0.538485 0.308130 -0.105337
C20   C     C_1   0.160396 0.499752 0.160234 -0.059196
C21   C     C_1   0.337710 0.499785 0.337557 -0.058385
C22   C     C_1   0.375319 0.499868 0.375227 -0.024155
C23   C     C_3   0.790518 0.500422 0.790288 0.066880
C24   C     C_1   0.122826 0.499859 0.122723 -0.025485
C25   C     C_R   0.808302 0.782832 0.547582 -0.092344
C26   C     C_R   0.794130 0.793311 0.500278 -0.006649
C27   C     C_R   0.736415 0.760152 0.453096 -0.123584
C28   C     C_R   0.420109 0.499967 0.420092 0.554976
C29   C     C_R   0.693004 0.716926 0.453244 -0.159506
C30   C     C_R   0.706956 0.706307 0.500462 0.042645
C31   C     C_R   0.765082 0.738818 0.547564 0.282615
C32   C     C_1   0.838701 0.838206 0.500229 -0.054996
C33   C     C_1   0.661694 0.661638 0.500113 -0.018751
C34   C     C_3   0.818550 0.545999 0.773819 -0.212614
C35   C     C_1   0.624119 0.624222 0.500016 -0.015837
C36   C     C_1   0.875985 0.875744 0.500126 -0.022095
C37   C     C_R   0.998440 0.420480 0.918897 0.551307
C38   C     C_R   0.918418 0.500139 0.918409 0.554001
C39   C     C_R   0.998036 0.579741 0.077604 0.553887
C40   C     C_3   0.703303 0.439124 0.685871 -0.212970
C41   C     C_R   0.078105 0.500031 0.078070 0.554487
C42   C     C_R   0.999809 0.079578 0.579423 0.554467
C43   C     C_R   0.079546 0.079533 0.499902 0.554497
C44   C     C_R   0.000146 0.920390 0.420590 0.551333
C45   C     C_3   0.770253 0.546034 0.725502 -0.214942
C46   C     C_R   0.920463 0.920407 0.500047 0.553420
C47   C     C_R   0.046482 0.238910 0.764128 -0.092121
C48   C     C_R   0.999479 0.206056 0.706295 -0.006130
C49   C     C_R   0.952400 0.216841 0.692057 -0.123377
C50   C     C_R   0.952361 0.260380 0.735270 -0.160111
C51   C     C_R   0.999281 0.293369 0.793163 0.043087
C52   C     C_3   0.702303 0.516260 0.763703 -0.212729
C53   C     C_R   0.046261 0.282076 0.807961 0.282903
C54   C     C_1   0.999644 0.161466 0.661527 -0.054231
C55   C     C_1   0.998768 0.338299 0.837316 -0.019103
C56   C     C_1   0.836352 0.500344 0.836182 -0.074770
C57   C     C_1   0.998564 0.375823 0.874491 -0.016521
C58   C     C_1   0.999719 0.124108 0.624030 -0.021205
C59   C     C_R   0.025690 0.808818 0.260775 0.282777
C60   C     C_R   0.000433 0.794212 0.293445 0.042861
C61   C     C_R   0.975735 0.736331 0.282537 -0.160113
C62   C     C_R   0.975440 0.692934 0.238862 -0.124124
C63   C     C_R   0.999618 0.706983 0.205535 -0.006610
C64   C     C_3   0.750589 0.516225 0.812008 -0.213411
C65   C     C_R   0.024396 0.764804 0.216304 -0.092647
C66   C     C_1   0.000176 0.838526 0.338442 -0.018628
C67   C     C_1   0.662405 0.500439 0.662179 -0.075773
C68   C     C_1   0.998884 0.662057 0.160241 -0.055822
C69   C     C_1   0.998379 0.624446 0.122439 -0.023025
C70   C     C_1   0.000162 0.875835 0.376004 -0.015507
C71   C     C_1   0.873810 0.500238 0.873726 -0.030457
C72   C     C_3   0.708337 0.500478 0.708076 0.067470
C73   C     C_3   0.804225 0.693782 0.589355 -0.012463
C74   C     C_3   0.813736 0.678582 0.638115 -0.364943
C75   C     C_3   0.087488 0.283882 0.894280 -0.012711
C76   C     C_3   0.135986 0.322733 0.958254 -0.362637
C77   C     C_3   0.109962 0.894861 0.305317 -0.013135
C78   C     C_1   0.624750 0.500308 0.624606 -0.031555
C79   C     C_3   0.134919 0.958845 0.320763 -0.362612
C80   C     C_R   0.224173 0.265442 0.532995 -0.104679
Cu1   Cu    Cu3+1 0.500150 0.458980 0.459120 0.941361
Cu2   Cu    Cu3+1 0.499850 0.541020 0.540880 0.954624
Cu3   Cu    Cu3+1 0.957230 0.459100 0.998270 0.944693
Cu4   Cu    Cu3+1 0.039250 0.541110 0.998230 0.953224
Cu5   Cu    Cu3+1 0.041170 0.999960 0.541120 0.945093
Cu6   Cu    Cu3+1 0.958830 0.000040 0.458870 0.958765
H1    H     H_    0.730638 0.405436 0.744640 0.117476
H2    H     H_    0.212657 0.568655 0.277176 0.110921
H3    H     H_    0.208703 0.430766 0.143809 0.106809
H4    H     H_    0.659266 0.405481 0.673234 0.116929
H5    H     H_    0.285428 0.430787 0.220542 0.111418
H6    H     H_    0.852747 0.808710 0.584485 0.119398
H7    H     H_    0.724922 0.767871 0.416296 0.126085
H8    H     H_    0.648496 0.691843 0.416563 0.118996
H9    H     H_    0.083313 0.231182 0.775316 0.119635
H10   H     H_    0.915829 0.191751 0.647495 0.125315
H11   H     H_    0.915772 0.268413 0.723505 0.116445
H12   H     H_    0.707745 0.426727 0.646006 0.117135
H13   H     H_    0.042675 0.775843 0.190297 0.119090
H14   H     H_    0.706015 0.560321 0.780808 0.119789
H15   H     H_    0.956564 0.724719 0.307727 0.117669
H16   H     H_    0.956149 0.648380 0.230926 0.125032
H17   H     H_    0.658247 0.484072 0.752535 0.117662
H18   H     H_    0.729622 0.484019 0.823935 0.118484
H19   H     H_    0.777391 0.560269 0.852215 0.118470
H20   H     H_    0.775940 0.535642 0.686373 0.113604
H21   H     H_    0.775228 0.590650 0.741881 0.116437
H22   H     H_    0.847333 0.535585 0.757796 0.116872
H23   H     H_    0.779118 0.426674 0.717412 0.115685
H24   H     H_    0.847540 0.716857 0.593094 0.124068
H25   H     H_    0.774877 0.651931 0.546509 0.127864
H26   H     H_    0.771062 0.654813 0.635025 0.161122
H27   H     H_    0.833839 0.650120 0.634038 0.090045
H28   H     H_    0.843461 0.719282 0.681584 0.162288
H29   H     H_    0.091342 0.244353 0.874766 0.124912
H30   H     H_    0.044487 0.270166 0.892979 0.129414
H31   H     H_    0.132782 0.362259 0.979113 0.162766
H32   H     H_    0.131687 0.298110 0.982181 0.093269
H33   H     H_    0.179594 0.336674 0.961305 0.163355
H34   H     H_    0.846621 0.590600 0.813310 0.118205
H35   H     H_    0.129478 0.875120 0.281485 0.124230
H36   H     H_    0.122988 0.893556 0.347098 0.128484
H37   H     H_    0.116749 0.979927 0.345282 0.162898
H38   H     H_    0.183459 0.982556 0.348596 0.091924
H39   H     H_    0.123416 0.961895 0.280116 0.163490
H40   H     H_    0.281070 0.354541 0.559063 0.113328
H41   H     H_    0.204562 0.278061 0.558976 0.112828
H42   H     H_    0.218664 0.144930 0.440206 0.106324
H43   H     H_    0.295202 0.221436 0.440306 0.110755
H44   H     H_    0.289363 0.568675 0.353883 0.112835
O1    O     O_R   0.440300 0.405520 0.465490 -0.502966
O2    O     O_R   0.965060 0.059870 0.524970 -0.502151
O3    O     O_R   0.094600 0.059810 0.534710 -0.502754
O4    O     O_R   0.440040 0.474790 0.534530 -0.502435
O5    O     O_R   0.025070 0.059880 0.465260 -0.499758
O6    O     O_R   0.034940 0.940120 0.475030 -0.507225
O7    O     O_R   0.965400 0.940190 0.405570 -0.496505
O8    O     O_R   0.974930 0.940120 0.534740 -0.503859
O9    O     O_R   0.905400 0.940180 0.465280 -0.502073
O10   O     O_R   0.560200 0.465360 0.525540 -0.504778
O11   O     O_R   0.559940 0.534640 0.594570 -0.501478
O12   O     O_R   0.033070 0.474870 0.938590 -0.496879
O13   O     O_R   0.559960 0.525210 0.465470 -0.507015
O14   O     O_R   0.559700 0.594480 0.534510 -0.496479
O15   O     O_R   0.440060 0.465360 0.405430 -0.502711
O16   O     O_R   0.439800 0.534640 0.474460 -0.501936
O17   O     O_R   0.963810 0.405620 0.938630 -0.506635
O18   O     O_3   0.778847 0.730076 0.595250 -0.551906
O19   O     O_3   0.093654 0.315720 0.864467 -0.551880
O20   O     O_3   0.048319 0.865324 0.269834 -0.551734
O21   O     O_R   0.903540 0.465480 0.938210 -0.503608
O22   O     O_R   0.972800 0.534740 0.938170 -0.503607
O23   O     O_R   0.963400 0.525340 0.057910 -0.502223
O24   O     O_R   0.032660 0.594600 0.057870 -0.503488
O25   O     O_R   0.023680 0.465480 0.058320 -0.502282
O26   O     O_R   0.092940 0.534740 0.058290 -0.500018
O27   O     O_R   0.034600 0.059810 0.594420 -0.502789

loop_
_geom_bond_atom_site_label_1
_geom_bond_atom_site_label_2
_ccdc_geom_bond_type
C25   C31   A    
Cu1   O10   S    
C63   C65   A    
C52   H17   S    
C26   C32   S    
C44   O7    A    
C27   C29   A    
C18   C21   S    
C73   C74   S    
C17   H5    S    
C42   C58   S    
C6    C9    S    
Cu1   Cu2   S    
C23   C56   S    
C66   C70   T    
Cu5   Cu6   S    
C48   C54   S    
Cu2   O4    S    
C12   C23   S    
C28   O15   A    
C29   C30   A    
C39   O23   A    
C32   C36   T    
C16   O14   A    
C18   C19   A    
C44   O6    A    
C16   C35   S    
C40   H12   S    
C30   C31   A    
Cu1   O1    S    
C15   H3    S    
C74   H28   S    
C15   C17   A    
C67   C72   S    
C43   O3    A    
C77   H36   S    
Cu6   O7    S    
C63   C68   S    
Cu4   O24   S    
C20   C24   T    
C68   C69   T    
C50   H11   S    
C11   C43   S    
C9    C10   T    
C30   C33   S    
C46   O8    A    
C41   O26   A    
C23   C34   S    
C19   H44   S    
C5    H43   S    
C79   H39   S    
C60   C66   S    
C59   C60   A    
C7    H40   S    
C22   C28   S    
C13   C14   A    
C45   C72   S    
C53   O19   S    
C24   C41   S    
C67   C78   T    
Cu5   O27   S    
Cu2   O11   S    
C38   O22   A    
C12   H23   S    
Cu2   O16   S    
C73   H25   S    
Cu3   O21   S    
C77   C79   S    
C34   H34   S    
C76   H33   S    
C37   O12   A    
C13   C19   A    
C39   O24   A    
C47   C48   A    
C14   C20   S    
C73   H24   S    
C16   O13   A    
C77   H35   S    
C65   H13   S    
Cu2   O14   S    
C52   C64   S    
C4    O11   A    
C3    H42   S    
C73   O18   S    
C50   C51   A    
C25   C26   A    
C74   H27   S    
C79   H37   S    
C52   H14   S    
C76   H32   S    
C60   C61   A    
C51   C53   A    
C12   C40   S    
C61   H15   S    
C75   C76   S    
C4    C78   S    
C62   C63   A    
C52   C72   S    
C4    O10   A    
Cu3   Cu4   S    
Cu4   O12   S    
C56   C71   T    
C17   C18   A    
C39   C69   S    
C34   C45   S    
C37   O17   A    
C44   C70   S    
Cu6   O9    S    
Cu3   O17   S    
C31   O18   S    
Cu4   O22   S    
C48   C49   A    
Cu1   O15   S    
C55   C57   T    
C26   C27   A    
C29   H8    S    
C27   H7    S    
C42   O27   A    
C75   H29   S    
C1    O4    A    
C38   O21   A    
C45   H20   S    
C54   C58   T    
C59   O20   S    
C64   H18   S    
C38   C71   S    
C23   C64   S    
C25   H6    S    
C40   C72   S    
C12   H1    S    
C64   H19   S    
C2    C8    S    
C1    C10   S    
C3    C5    A    
C77   O20   S    
C6    C7    A    
Cu3   O23   S    
C80   H41   S    
C43   O5    A    
C79   H38   S    
C28   O16   A    
C76   H31   S    
C47   C53   A    
C34   H22   S    
C2    C3    A    
C59   C65   A    
C74   H26   S    
C36   C46   S    
Cu4   O26   S    
Cu6   O2    S    
C5    C6    A    
C75   O19   S    
C8    C11   T    
C1    O1    A    
C13   H2    S    
C33   C35   T    
C51   C55   S    
C49   H10   S    
C61   C62   A    
C41   O25   A    
C2    C80   A    
Cu5   O6    S    
Cu6   O5    S    
Cu1   O13   S    
Cu3   O25   S    
C49   C50   A    
C47   H9    S    
C14   C15   A    
C46   O9    A    
C42   O2    A    
C75   H30   S    
C40   H4    S    
C21   C22   T    
Cu5   O8    S    
C37   C57   S    
C45   H21   S    
Cu5   O3    S    
C7    C80   A    
C62   H16   S    
