data_mof_unit_15786.cif
_audit_creation_date              2013-03-05T16:48:10-0500
_audit_creation_method            fapswitch 2.2
_symmetry_space_group_name_H-M    P1
_symmetry_Int_Tables_number       1
_space_group_crystal_system       triclinic
_cell_length_a                    10.81177
_cell_length_b                    12.486032
_cell_length_c                    13.250873
_cell_angle_alpha                 117.427626
_cell_angle_beta                  75.210511
_cell_angle_gamma                 100.690234
_cell_volume                      1530.32525574

loop_
_atom_site_label
_atom_site_type_symbol
_atom_site_description
_atom_site_fract_x
_atom_site_fract_y
_atom_site_fract_z
_atom_type_partial_charge
O1    O     O_R   0.536940 0.972510 0.318130 -0.561260
O2    O     O_R   0.487330 0.806530 0.359650 -0.568254
C1    C     C_R   0.515858 0.854776 0.286343 0.797036
O3    O     O_R   0.705160 0.082990 0.479250 -0.582536
O4    O     O_R   0.655550 0.917010 0.520760 -0.562124
C2    C     C_R   0.736492 0.000734 0.502235 0.817144
Cu1   Cu    Cu3+1 0.529370 0.098270 0.475420 1.013081
Cu2   Cu    Cu3+1 0.470630 0.901730 0.524580 0.952563
O5    O     O_R   0.512670 0.193470 0.640350 -0.523763
O6    O     O_R   0.463060 0.027490 0.681870 -0.590869
O7    O     O_R   0.344450 0.082990 0.479240 -0.532941
O8    O     O_R   0.294840 0.917010 0.520750 -0.616776
C3    C     C_R   0.478119 0.144809 0.713212 0.849644
C4    C     C_R   0.263477 0.000011 0.498351 0.785793
H1    H     H_    0.592163 0.709513 0.791917 0.188289
C5    C     C_R   0.645917 0.882332 0.789128 -0.217320
H2    H     H_    0.574001 0.925299 0.865471 0.199505
C6    C     C_R   0.730414 0.950839 0.736471 0.407423
C7    C     C_R   0.819209 0.888937 0.633087 -0.038418
C8    C     C_R   0.830472 0.765035 0.594339 -0.195152
H3    H     H_    0.902292 0.718460 0.518904 0.161053
C9    C     C_R   0.752548 0.700549 0.652706 0.246967
C10   C     C_R   0.656375 0.758701 0.747548 -0.221789
C11   C     C_R   0.038348 0.951055 0.561080 -0.191688
H4    H     H_    0.067629 0.912809 0.609350 0.169903
C12   C     C_R   0.130121 0.001928 0.496897 -0.066840
C13   C     C_R   0.091858 0.054981 0.436247 0.049205
C14   C     C_R   0.961993 0.051000 0.439282 -0.235626
H5    H     H_    0.932609 0.085044 0.387723 0.159244
C15   C     C_R   0.870116 0.000431 0.503984 -0.047997
C16   C     C_R   0.908572 0.949578 0.566060 0.078890
C17   C     C_R   0.185306 0.231456 0.386893 0.103051
C18   C     C_R   0.268169 0.275699 0.310236 0.201150
C19   C     C_R   0.352559 0.198565 0.214331 0.123302
C20   C     C_R   0.348893 0.076039 0.190010 0.152344
C21   C     C_R   0.260916 0.031397 0.261955 -0.205123
H6    H     H_    0.251955 0.936068 0.238408 0.132891
C22   C     C_R   0.182701 0.107971 0.362515 0.028587
C23   C     C_R   0.274035 0.300224 0.004585 -0.112283
H7    H     H_    0.270623 0.119571 0.868640 0.165722
H8    H     H_    0.188867 0.491915 0.190278 0.197918
H9    H     H_    0.183167 0.282222 0.054412 0.190438
C24   C     C_R   0.440955 0.228805 0.834469 0.001754
C25   C     C_R   0.643067 0.795089 0.088107 0.120636
C26   C     C_R   0.683365 0.706252 0.977514 -0.181196
C27   C     C_R   0.622294 0.591052 0.940656 -0.145841
C28   C     C_R   0.513940 0.561040 0.011791 0.066527
C29   C     C_R   0.461285 0.654766 0.120570 -0.008357
C30   C     C_R   0.455074 0.440583 0.975940 0.081807
C31   C     C_R   0.337789 0.416685 0.042125 0.103483
C32   C     C_R   0.281666 0.509742 0.142614 -0.147773
C33   C     C_R   0.338989 0.627249 0.182044 0.143797
C34   C     C_R   0.507937 0.342663 0.874573 -0.074555
C35   C     C_R   0.324698 0.206895 0.900247 -0.205147
C36   C     C_R   0.533886 0.770332 0.162026 -0.126834
H10   H     H_    0.599337 0.352061 0.821746 0.151650
H11   H     H_    0.661731 0.528104 0.854288 0.165106
H12   H     H_    0.766890 0.725381 0.920895 0.197386
C37   C     C_R   0.689100 0.321831 0.304546 0.232415
H13   H     H_    0.710526 0.149544 0.293360 0.192645
H14   H     H_    0.716484 0.504641 0.253235 0.213152
N1    N     N_R   0.573890 0.246290 0.438210 -0.260716
C38   C     C_R   0.322267 0.762303 0.645476 -0.034069
C39   C     C_R   0.271204 0.662591 0.667562 0.256290
C40   C     C_R   0.334619 0.556069 0.605587 -0.179248
C41   C     C_R   0.451565 0.548201 0.525782 -0.084970
C42   C     C_R   0.493025 0.648381 0.497338 0.255166
C43   C     C_R   0.523136 0.440890 0.467228 -0.145152
C44   C     C_R   0.618508 0.425708 0.366816 -0.060132
C45   C     C_R   0.646091 0.516072 0.331304 -0.242405
C46   C     C_R   0.597952 0.628501 0.398864 0.156346
C47   C     C_R   0.507687 0.348442 0.504710 0.464459
C48   C     C_R   0.660655 0.231349 0.340769 -0.087812
N2    N     N_R   0.426890 0.754320 0.561170 -0.225358
H15   H     H_    0.274642 0.845451 0.691104 0.173921
H16   H     H_    0.285784 0.477774 0.615524 0.238897
N3    N     N_3   0.440725 0.245459 0.140545 -0.555394
H17   H     H_    0.533678 0.238732 0.145141 0.259993
H18   H     H_    0.429761 0.189446 0.055364 0.279678
N4    N     N_3   0.431703 0.996809 0.089357 -0.584905
H19   H     H_    0.412683 0.907815 0.079945 0.229988
H20   H     H_    0.525590 0.023762 0.103451 0.240776
N5    N     N_3   0.719144 0.908345 0.127664 -0.580217
H21   H     H_    0.727707 0.945347 0.069446 0.248281
H22   H     H_    0.811103 0.891142 0.125394 0.237147
N6    N     N_3   0.260190 0.715785 0.276812 -0.579900
H23   H     H_    0.286261 0.801708 0.281567 0.191071
H24   H     H_    0.264482 0.712968 0.353386 0.260566
N7    N     N_R   0.791439 0.307965 0.206754 0.121428
O9    O     O_R   0.891038 0.386255 0.219376 -0.375807
O10   O     O_R   0.798254 0.205446 0.114029 -0.346805
N8    N     N_R   0.438006 0.367808 0.618470 0.120929
O11   O     O_R   0.329576 0.305932 0.632425 -0.362495
O12   O     O_R   0.474979 0.457609 0.708812 -0.423879
N9    N     N_R   0.153113 0.668052 0.749887 0.136631
O13   O     O_R   0.090375 0.764890 0.802194 -0.377714
O14   O     O_R   0.107147 0.576360 0.773466 -0.316769
N10   N     N_3   0.668170 0.718437 0.364884 -0.495948
H25   H     H_    0.762842 0.726787 0.375305 0.206965
H26   H     H_    0.672787 0.688949 0.276189 0.209405
N11   N     N_R   0.727997 0.081134 0.792123 0.108581
O15   O     O_R   0.817606 0.149897 0.758904 -0.355058
O16   O     O_R   0.645435 0.133014 0.887219 -0.387249
N12   N     N_3   0.776915 0.578075 0.617771 -0.548027
H27   H     H_    0.709143 0.540823 0.667064 0.242945
H28   H     H_    0.766316 0.527279 0.531778 0.227790
N13   N     N_3   0.104476 0.312180 0.488075 -0.578578
H29   H     H_    0.008957 0.287433 0.478686 0.242478
H30   H     H_    0.115450 0.304437 0.560486 0.283471
N14   N     N_3   0.263345 0.396234 0.323886 -0.572002
H31   H     H_    0.202035 0.447037 0.400306 0.251758
H32   H     H_    0.354777 0.440872 0.329279 0.234605

loop_
_geom_bond_atom_site_label_1
_geom_bond_atom_site_label_2
_geom_bond_distance
_ccdc_geom_bond_type
H14   C45   1.082631 S    
C29   C36   1.438652 A    
C41   C43   1.454816 A    
N11   O15   1.300540 A    
H13   C48   1.081172 S    
N9    O13   1.301800 A    
C25   N5    1.434136 S    
C7    C16   1.485145 S    
N12   H28   1.042938 S    
Cu1   Cu2   2.744648 S    
C28   C30   1.426128 A    
N3    H17   1.043092 S    
Cu1   O7    1.962633 S    
C12   C13   1.420446 A    
C40   H16   1.069305 S    
N5    H21   1.045542 S    
C14   H5    1.084809 S    
C11   C12   1.394397 A    
C6    C7    1.422727 A    
C19   N3    1.432465 S    
C15   C16   1.416462 A    
C47   N8    1.431902 S    
O7    C4    1.302325 A    
N6    H24   1.044256 S    
C23   C35   1.391183 A    
C13   C22   1.490473 S    
N10   H25   1.047349 S    
C20   N4    1.436147 S    
C9    N12   1.434308 S    
C19   C20   1.405611 A    
C37   N7    1.437289 S    
O5    C3    1.308802 A    
N14   H31   1.043421 S    
C1    C36   1.474969 S    
C24   C34   1.395147 A    
C7    C8    1.406405 A    
C5    H2    1.081175 S    
C17   N13   1.435580 S    
N13   H29   1.043680 S    
N1    C48   1.344092 A    
C45   C46   1.385053 A    
C17   C22   1.418481 A    
N7    O10   1.301335 A    
C37   C48   1.377192 A    
C43   C47   1.421716 A    
H1    C10   1.082092 S    
C41   C42   1.430979 A    
N11   O16   1.300988 A    
N13   H30   1.044940 S    
C33   N6    1.431476 S    
O3    Cu1   1.960601 S    
N8    O12   1.300591 A    
N12   H27   1.043547 S    
C31   C32   1.383846 A    
C23   H9    1.084103 S    
N3    H18   1.042838 S    
C46   N10   1.419537 S    
C26   H12   1.083789 S    
C32   C33   1.389787 A    
C11   H4    1.085465 S    
N4    H20   1.044364 S    
N6    H23   1.033935 S    
C43   C44   1.417478 A    
C26   C27   1.381509 A    
O1    C1    1.320842 A    
C6    N11   1.446330 S    
Cu1   N1    2.068546 S    
C24   C35   1.395430 A    
C28   C29   1.430217 A    
Cu2   O8    1.960599 S    
Cu2   N2    2.056344 S    
C18   C19   1.407661 A    
N1    C47   1.377291 A    
C42   N2    1.409887 A    
C4    C12   1.451611 S    
C37   C44   1.416123 A    
O3    C2    1.316165 A    
N5    H22   1.045735 S    
C8    C9    1.394855 A    
C40   C41   1.412216 A    
C5    C10   1.395942 A    
H7    C35   1.083450 S    
C27   H11   1.075109 S    
C3    C24   1.455117 S    
C25   C26   1.386930 A    
C34   H10   1.076939 S    
Cu1   O5    1.925286 S    
C27   C28   1.414253 A    
C21   H6    1.074251 S    
C2    C15   1.451529 S    
O1    Cu1   1.939569 S    
Cu2   O6    1.939568 S    
O2    Cu2   1.925287 S    
C39   N9    1.441351 S    
O8    C4    1.319935 A    
N4    H19   1.045566 S    
O6    C3    1.315424 A    
O4    Cu2   1.962634 S    
N9    O14   1.301729 A    
C18   N14   1.440132 S    
C38   N2    1.353343 A    
N10   H26   1.047657 S    
C17   C18   1.417153 A    
C21   C22   1.398499 A    
O2    C1    1.311029 A    
C11   C16   1.384799 A    
C39   C40   1.399320 A    
C25   C36   1.414801 A    
O4    C2    1.306231 A    
C38   H15   1.081493 S    
C30   C34   1.407153 A    
C14   C15   1.397035 A    
N8    O11   1.300129 A    
C42   C46   1.449685 A    
C44   C45   1.369685 A    
N14   H32   1.043034 S    
C38   C39   1.392365 A    
C29   C33   1.438507 A    
C23   C31   1.404951 A    
C8    H3    1.084465 S    
C5    C6    1.409828 A    
C30   C31   1.413891 A    
C13   C14   1.386592 A    
C9    C10   1.400028 A    
C20   C21   1.397921 A    
N7    O9    1.301509 A    
H8    C32   1.085470 S    
