data_mof_unit_18699.cif
_audit_creation_date              2013-03-05T15:56:22-0500
_audit_creation_method            fapswitch 2.2
_symmetry_space_group_name_H-M    P1
_symmetry_Int_Tables_number       1
_space_group_crystal_system       triclinic
_cell_length_a                    12.312653
_cell_length_b                    13.041514
_cell_length_c                    23.522921
_cell_angle_alpha                 77.379539
_cell_angle_beta                  101.01843
_cell_angle_gamma                 116.227807
_cell_volume                      3287.10606861

loop_
_atom_site_label
_atom_site_type_symbol
_atom_site_description
_atom_site_fract_x
_atom_site_fract_y
_atom_site_fract_z
_atom_type_partial_charge
O1    O     O_R   0.972510 0.318130 0.516820 -0.498335
O2    O     O_R   0.806530 0.359650 0.494230 -0.610824
C1    C     C_R   0.855073 0.285026 0.505304 0.846440
O3    O     O_R   0.082990 0.479200 0.593420 -0.582811
O4    O     O_R   0.917010 0.520720 0.570830 -0.596417
C2    C     C_R   0.999097 0.499506 0.608918 0.824503
Cu1   Cu    Cu3+1 0.098270 0.475410 0.513370 1.026962
Cu2   Cu    Cu3+1 0.901730 0.524590 0.486630 0.983545
O5    O     O_R   0.193470 0.640350 0.505770 -0.582210
O6    O     O_R   0.027490 0.681870 0.483180 -0.533606
O7    O     O_R   0.082990 0.479280 0.429170 -0.586955
O8    O     O_R   0.917010 0.520800 0.406580 -0.608641
C3    C     C_R   0.144630 0.714623 0.491537 0.830658
C4    C     C_R   0.000317 0.499699 0.391071 0.805048
C5    C     C_R   0.075827 0.586510 0.117621 0.640589
N1    N     N_R   0.996000 0.490561 0.148824 -0.468767
C6    C     C_R   0.913338 0.397011 0.123808 0.650028
C7    C     C_R   0.909732 0.394228 0.063710 -0.121334
C8    C     C_R   0.992779 0.494041 0.030319 -0.093377
C9    C     C_R   0.076901 0.592414 0.056988 -0.127493
C10   C     C_R   0.827534 0.296893 0.035342 0.416077
C11   C     C_R   0.829077 0.302403 0.975500 -0.186734
C12   C     C_R   0.909778 0.399616 0.942670 -0.080186
C13   C     C_R   0.991767 0.495463 0.969830 -0.000491
C14   C     C_R   0.072885 0.592674 0.936162 -0.081949
C15   C     C_R   0.154179 0.688718 0.962340 -0.173395
C16   C     C_R   0.157910 0.691296 0.021725 0.401115
C17   C     C_R   0.910954 0.402353 0.882720 0.591297
N2    N     N_R   0.991179 0.497538 0.850998 -0.472367
C18   C     C_R   0.071056 0.592055 0.876324 0.586238
O9    O     O_2   0.153199 0.674786 0.146213 -0.426404
O10   O     O_2   0.835904 0.307899 0.157928 -0.430603
H1    H     H_    0.766661 0.229179 0.954074 0.237729
O11   O     O_2   0.833545 0.310164 0.856442 -0.479431
O12   O     O_2   0.148015 0.685379 0.843571 -0.489858
H2    H     H_    0.215791 0.763078 0.935900 0.248128
C19   C     C_R   0.894311 0.499910 0.749510 -0.035796
H3    H     H_    0.816521 0.501438 0.763763 0.186753
C20   C     C_R   0.896320 0.500690 0.690366 -0.136574
H4    H     H_    0.819093 0.502291 0.659742 0.184873
C21   C     C_R   0.996827 0.498812 0.671276 -0.077211
C22   C     C_R   0.095127 0.496350 0.712307 -0.165619
H5    H     H_    0.173892 0.495711 0.698694 0.210676
C23   C     C_R   0.093081 0.495885 0.771382 -0.057994
H6    H     H_    0.169393 0.494002 0.802647 0.176121
C24   C     C_R   0.992765 0.497712 0.790184 0.291099
C25   C     C_R   0.909027 0.511136 0.228228 -0.125897
H7    H     H_    0.839570 0.526261 0.196299 0.175246
C26   C     C_R   0.909958 0.514971 0.286941 -0.185817
H8    H     H_    0.840082 0.532109 0.299491 0.174987
C27   C     C_R   0.000106 0.497074 0.328772 -0.093868
C28   C     C_R   0.089307 0.475088 0.310835 -0.254042
H9    H     H_    0.158686 0.460342 0.342974 0.194492
C29   C     C_R   0.088894 0.469978 0.251811 0.384294
C30   C     C_R   0.997540 0.488921 0.210220 0.222177
C31   C     C_R   0.272723 0.038616 0.439613 -0.198160
H10   H     H_    0.456042 0.232934 0.400736 0.162025
H11   H     H_    0.243373 0.103639 0.414076 0.191823
C32   C     C_R   0.225711 0.839037 0.483317 -0.190072
C33   C     C_R   0.810236 0.073932 0.544843 0.372317
C34   C     C_R   0.723509 0.971881 0.571431 -0.224900
C35   C     C_R   0.600450 0.948770 0.562188 0.297168
C36   C     C_R   0.559243 0.017013 0.514954 0.002947
C37   C     C_R   0.646749 0.124467 0.489751 0.025396
C38   C     C_R   0.434971 0.984712 0.492537 0.147995
C39   C     C_R   0.396871 0.066741 0.455864 0.086223
C40   C     C_R   0.483383 0.172211 0.432313 -0.174426
C41   C     C_R   0.606107 0.196147 0.445292 -0.108755
C42   C     C_R   0.349971 0.869958 0.499994 -0.201687
C43   C     C_R   0.185733 0.926287 0.455472 0.346403
C44   C     C_R   0.772422 0.159171 0.510479 -0.225424
H12   H     H_    0.381733 0.803169 0.516477 0.212532
H13   H     H_    0.753151 0.913792 0.603802 0.242345
H14   H     H_    0.668455 0.271697 0.419834 0.163272
C45   C     C_R   0.372482 0.375402 0.609728 0.361325
H15   H     H_    0.196316 0.360570 0.618424 0.190350
N3    N     N_R   0.246280 0.438190 0.533650 -0.210071
C46   C     C_R   0.755954 0.641416 0.418684 0.153175
C47   C     C_R   0.656853 0.669608 0.400003 -0.196235
C48   C     C_R   0.554491 0.615393 0.430623 -0.152794
C49   C     C_R   0.550352 0.532335 0.480909 0.025274
C50   C     C_R   0.654461 0.507121 0.498546 0.222821
C51   C     C_R   0.448805 0.476305 0.515222 -0.106842
C52   C     C_R   0.459049 0.406219 0.569905 -0.095683
C53   C     C_R   0.554715 0.369975 0.582105 0.365728
C54   C     C_R   0.650990 0.423172 0.547731 -0.254281
C55   C     C_R   0.337269 0.487928 0.497907 0.058436
C56   C     C_R   0.263416 0.385273 0.588686 0.106087
N4    N     N_R   0.754320 0.561190 0.466710 -0.205259
H16   H     H_    0.321146 0.536559 0.456450 0.126862
H17   H     H_    0.834679 0.683510 0.394465 0.157637
H18   H     H_    0.481369 0.642097 0.414835 0.145720
H19   H     H_    0.659483 0.733880 0.361720 0.179087
H20   H     H_    0.720897 0.393523 0.560286 0.238166
S1    S     S_3+6 0.721843 0.164322 0.071033 0.087032
O13   O     O_2   0.629940 0.186723 0.094226 -0.219746
O14   O     O_2   0.655560 0.078001 0.029301 -0.260520
O15   O     O_3   0.796824 0.107552 0.126652 -0.444429
H21   H     H_    0.732288 0.039334 0.146743 0.396007
N5    N     N_R   0.180847 0.445652 0.235087 0.147450
O16   O     O_R   0.160761 0.398392 0.188607 -0.304907
O17   O     O_R   0.282484 0.462880 0.268770 -0.336958
N6    N     N_R   0.059271 0.902229 0.440248 0.126472
O18   O     O_R   0.988197 0.866854 0.481497 -0.294192
O19   O     O_R   0.021874 0.939634 0.387752 -0.344556
S2    S     S_3+6 0.963426 0.091026 0.560970 0.057627
O20   O     O_2   0.030785 0.149391 0.507677 -0.253990
O21   O     O_2   0.023558 0.162117 0.609687 -0.288190
O22   O     O_3   0.967694 0.961038 0.583110 -0.480906
H22   H     H_    0.055446 0.978049 0.591631 0.401518
S3    S     S_3+6 0.512105 0.852584 0.619273 0.025075
O23   O     O_2   0.468927 0.729725 0.609587 -0.297558
O24   O     O_2   0.590449 0.867800 0.676980 -0.218457
O25   O     O_3   0.392249 0.880049 0.622402 -0.484851
H23   H     H_    0.339588 0.812692 0.648470 0.384824
S4    S     S_3+6 0.545312 0.239915 0.629091 0.071857
O26   O     O_2   0.601800 0.263781 0.690006 -0.212960
O27   O     O_2   0.414743 0.153391 0.630298 -0.191439
O28   O     O_3   0.622284 0.182974 0.604127 -0.563870
H24   H     H_    0.629035 0.122199 0.636328 0.405816
S5    S     S_3+6 0.411402 0.366908 0.686828 0.084112
O29   O     O_2   0.546219 0.433768 0.700639 -0.251295
O30   O     O_2   0.346625 0.419020 0.711408 -0.299939
O31   O     O_3   0.368001 0.228321 0.718879 -0.418268
H25   H     H_    0.398578 0.232137 0.760836 0.396650
S6    S     S_3+6 0.265838 0.822030 0.047414 0.102000
O32   O     O_2   0.201008 0.873269 0.072643 -0.209384
O33   O     O_2   0.357353 0.797148 0.093720 -0.186260
O34   O     O_3   0.340688 0.919491 0.992554 -0.500205
H26   H     H_    0.392656 0.990418 0.010236 0.415842

loop_
_geom_bond_atom_site_label_1
_geom_bond_atom_site_label_2
_geom_bond_distance
_ccdc_geom_bond_type
C51   C55   1.420581 A    
C36   C38   1.419758 A    
S6    O32   1.503900 D    
C7    C10   1.434359 A    
C21   C22   1.404185 A    
C8    C9    1.428660 A    
O25   H23   0.990559 S    
S1    O15   1.682649 S    
Cu1   Cu2   2.697556 S    
C20   C21   1.406304 A    
C53   C54   1.390916 A    
C28   H9    1.083083 S    
Cu1   O7    1.945022 S    
C15   C16   1.396129 A    
N2    C18   1.366371 A    
C50   N4    1.387332 A    
C18   O12   1.350084 S    
C37   C41   1.415691 A    
C17   N2    1.366258 A    
C19   H3    1.082930 S    
C47   H19   1.082550 S    
O4    C2    1.301335 A    
C16   S6    1.782887 S    
C38   C42   1.391712 A    
C45   C52   1.419022 A    
S2    O20   1.503741 D    
C41   H14   1.080773 S    
C5    N1    1.363061 A    
S4    O26   1.502137 D    
C7    C8    1.428527 A    
C37   C44   1.423365 A    
O5    C3    1.306960 A    
S5    O31   1.680924 S    
C54   H20   1.060514 S    
C35   S3    1.782165 S    
C51   C52   1.425509 A    
N3    C56   1.353030 A    
C28   C29   1.403412 A    
N1    C6    1.363033 A    
C26   C27   1.402097 A    
C2    C21   1.470432 S    
C12   C13   1.406001 A    
H15   C56   1.078346 S    
Cu1   N3    2.032905 S    
C39   C40   1.389624 A    
C17   O11   1.350066 S    
O1    Cu1   1.944102 S    
C10   C11   1.397102 A    
C29   N5    1.442067 S    
C22   C23   1.393293 A    
H10   C40   1.084067 S    
O3    Cu1   1.941098 S    
C49   C51   1.438469 A    
C23   C24   1.400445 A    
C49   C50   1.425864 A    
C31   H11   1.084356 S    
C46   N4    1.358268 A    
C5    C9    1.413752 A    
C36   C37   1.422228 A    
C40   C41   1.386489 A    
C25   H7    1.083142 S    
C13   C14   1.405864 A    
N6    O19   1.301090 A    
C20   H4    1.082889 S    
C43   N6    1.433633 S    
C10   S1    1.783863 S    
C33   C44   1.423685 A    
C34   H13   1.083050 S    
C14   C15   1.394003 A    
C50   C54   1.401092 A    
C27   C28   1.405310 A    
C33   C34   1.392166 A    
O1    C1    1.303912 A    
C48   H18   1.078235 S    
C42   H12   1.075881 S    
C1    C44   1.492689 S    
C35   C36   1.426710 A    
C4    C27   1.472788 S    
Cu2   O8    1.941099 S    
N5    O17   1.301751 A    
C6    C7    1.413792 A    
S3    O24   1.503493 D    
C12   C17   1.405520 A    
C52   C53   1.413091 A    
S5    O29   1.503208 D    
C32   C42   1.397024 A    
C15   H2    1.081344 S    
O8    C4    1.302816 A    
O15   H21   0.990573 S    
C31   C43   1.399808 A    
O3    C2    1.303046 A    
C22   H5    1.081734 S    
N6    O18   1.300873 A    
C33   S2    1.772873 S    
C23   H6    1.082904 S    
C25   C30   1.400093 A    
O34   H26   0.990611 S    
C14   C18   1.405182 A    
Cu1   O5    1.927809 S    
C11   H1    1.081726 S    
C29   C30   1.415174 A    
S6    O33   1.503657 D    
S3    O23   1.504036 D    
C45   S5    1.777081 S    
C53   S4    1.779936 S    
O2    Cu2   1.927811 S    
C48   C49   1.410481 A    
O6    C3    1.298122 A    
O4    Cu2   1.945022 S    
O28   H24   0.990306 S    
S1    O14   1.503879 D    
C5    O9    1.345114 S    
C3    C32   1.473646 S    
C9    C16   1.434517 A    
C46   H17   1.081469 S    
C25   C26   1.390584 A    
S6    O34   1.683064 S    
S4    O28   1.679240 S    
N2    C24   1.433869 S    
O2    C1    1.309984 A    
N1    C30   1.436301 S    
C19   C20   1.393925 A    
O22   H22   0.990748 S    
C46   C47   1.392177 A    
S2    O21   1.501403 D    
C31   C39   1.399863 A    
N5    O16   1.301086 A    
O7    C4    1.302632 A    
S4    O27   1.502882 D    
C8    C13   1.416682 A    
S3    O25   1.682792 S    
C38   C39   1.412182 A    
C34   C35   1.390320 A    
S5    O30   1.503142 D    
C32   C43   1.418532 A    
C47   C48   1.394260 A    
C45   C56   1.391332 A    
N3    C55   1.364612 A    
Cu2   O6    1.944100 S    
C26   H8    1.083144 S    
C55   H16   1.076877 S    
S1    O13   1.503743 D    
C6    O10   1.345106 S    
C11   C12   1.393938 A    
Cu2   N4    2.021031 S    
C19   C24   1.400391 A    
O31   H25   0.990526 S    
S2    O22   1.682346 S    
