data_mof_unit_48807.cif
_audit_creation_date              2012-12-10T17:23:40-0500
_audit_creation_method            fapswitch 2.2
_symmetry_space_group_name_H-M    P1
_symmetry_Int_Tables_number       1
_space_group_crystal_system       triclinic
_cell_length_a                    9.600454
_cell_length_b                    10.773807
_cell_length_c                    17.271868
_cell_angle_alpha                 92.309305
_cell_angle_beta                  85.635165
_cell_angle_gamma                 90.149618
_cell_volume                      1779.86040596

loop_
_atom_site_label
_atom_site_type_symbol
_atom_type_description
_atom_site_fract_x
_atom_site_fract_y
_atom_site_fract_z
_atom_type_partial_charge
C1    C     C_R   0.500154 0.737138 0.499943 0.767710
C2    C     C_R   0.347493 0.478715 0.782622 -0.083600
C3    C     C_R   0.417741 0.460034 0.144707 -0.144357
C4    C     C_R   0.408250 0.473698 0.225116 -0.190775
C5    C     C_R   0.661190 0.484125 0.223105 -0.166349
C6    C     C_R   0.670546 0.470710 0.142325 -0.166704
C7    C     C_R   0.548727 0.459695 0.102848 0.082020
C8    C     C_2   0.478419 0.533049 0.981885 -0.203070
C9    C     C_2   0.556611 0.451948 0.017612 -0.048136
C10   C     C_R   0.529774 0.486430 0.264978 -0.027241
C11   C     C_R   0.396406 0.877713 0.637577 -0.171527
C12   C     C_R   0.480901 0.501089 0.650269 0.771382
C13   C     C_R   0.347758 0.946065 0.704443 -0.127987
C14   C     C_R   0.349942 0.075253 0.705478 -0.122980
C15   C     C_R   0.400127 0.136597 0.639508 -0.153869
C16   C     C_R   0.447867 0.069220 0.570826 0.106439
C17   C     C_R   0.447200 0.938225 0.569782 0.092783
C18   C     C_R   0.500295 0.871336 0.501650 -0.179213
C19   C     C_R   0.555394 0.933269 0.435547 -0.014914
C20   C     C_R   0.554719 0.062499 0.437843 -0.188534
C21   C     C_R   0.499875 0.129441 0.503739 -0.124934
C22   C     C_R   0.869535 0.335946 0.396471 -0.144710
C23   C     C_R   0.499899 0.262908 0.500740 0.776518
C24   C     C_R   0.948249 0.255558 0.345946 -0.198084
C25   C     C_R   0.091726 0.255028 0.346167 -0.208110
C26   C     C_R   0.157362 0.334933 0.396878 -0.144878
C27   C     C_R   0.081432 0.419043 0.449248 0.207671
C28   C     C_R   0.931880 0.419313 0.449148 0.209105
C29   C     C_R   0.919728 0.576596 0.548497 -0.035076
C30   C     C_R   0.067620 0.576570 0.548475 -0.033896
C31   C     C_R   0.518736 0.497163 0.349961 0.746645
C32   C     C_R   0.470361 0.510274 0.735920 -0.156417
C33   C     C_R   0.587124 0.557618 0.771568 -0.162365
C34   C     C_R   0.586266 0.570121 0.851518 -0.135523
C35   C     C_R   0.469793 0.533185 0.897840 0.143142
C36   C     C_R   0.348486 0.490307 0.864533 0.289787
Cu1   Cu    Cu3+1 0.359340 0.500010 0.500010 0.935928
Cu2   Cu    Cu3+1 0.640660 0.499990 0.499990 0.945321
H1    H     H_    0.680452 0.585644 0.737447 0.170558
H2    H     H_    0.772316 0.471135 0.110598 0.120051
H3    H     H_    0.394988 0.777555 0.639995 0.135565
H4    H     H_    0.309496 0.898544 0.755871 0.142745
H5    H     H_    0.313686 0.128164 0.757727 0.137346
H6    H     H_    0.403529 0.236780 0.643030 0.116847
H7    H     H_    0.595044 0.112205 0.387517 0.165533
H8    H     H_    0.859323 0.639423 0.588268 0.138543
H9    H     H_    0.760448 0.328280 0.391527 0.194860
H10   H     H_    0.897180 0.193009 0.306398 0.173765
H11   H     H_    0.305665 0.473684 0.255903 0.157471
H12   H     H_    0.152997 0.192083 0.306762 0.160637
H13   H     H_    0.267693 0.326329 0.392230 0.198255
H14   H     H_    0.117623 0.639346 0.588238 0.146609
H15   H     H_    0.756532 0.492900 0.252609 0.155328
H16   H     H_    0.322729 0.450023 0.114943 0.140108
H17   H     H_    0.414044 0.600899 0.016340 0.146554
H18   H     H_    0.678746 0.604563 0.877614 0.151559
N1    N     N_R   0.852190 0.498790 0.499250 -0.202510
N2    N     N_R   0.148060 0.498710 0.499220 -0.205293
O1    O     O_R   0.381190 0.680360 0.500010 -0.569922
O2    O     O_R   0.618760 0.680340 0.500000 -0.579133
O3    O     O_R   0.367440 0.500030 0.613600 -0.597024
O4    O     O_R   0.605010 0.500010 0.613590 -0.563794
O5    O     O_R   0.381240 0.319660 0.500000 -0.597182
O6    O     O_R   0.618810 0.319640 0.499990 -0.583645
O7    O     O_R   0.394990 0.499990 0.386410 -0.599157
O8    O     O_R   0.632560 0.499970 0.386400 -0.608065
C37   C     C_2   0.610734 0.864546 0.363143 0.377936
H19   H     H_    0.604966 0.764145 0.357941 0.075560
O9    O     O_2   0.663537 0.919629 0.307839 -0.555052
C38   C     C_2   0.645092 0.352011 0.977033 0.384492
H20   H     H_    0.714249 0.299081 0.010082 0.063332
O10   O     O_2   0.639425 0.324577 0.908099 -0.527453
N3    N     N_2   0.233520 0.448411 0.914028 -0.420666
H21   H     H_    0.182033 0.370011 0.895258 0.272568
C39   C     C_3   0.143925 0.543793 0.952465 -0.641999
H22   H     H_    0.042116 0.544760 0.925951 0.254551
H23   H     H_    0.191647 0.637708 0.948283 0.214745
H24   H     H_    0.124788 0.523202 0.014808 0.210717
C40   C     C_2   0.219818 0.432314 0.747322 0.353235
H25   H     H_    0.227343 0.366160 0.698359 0.093908
O11   O     O_2   0.104210 0.469349 0.772084 -0.543687

loop_
_geom_bond_atom_site_label_1
_geom_bond_atom_site_label_2
_ccdc_geom_bond_type
C31   O8    A    
C34   H18   S    
C16   C21   A    
N3    H21   S    
C19   C20   A    
C28   N1    A    
C1    C18   S    
Cu1   Cu2   S    
C5    H15   S    
C15   H6    S    
C18   C19   A    
C3    C7    A    
C1    O1    A    
C5    C6    A    
C3    H16   S    
C15   C16   A    
C2    C32   A    
C34   C35   A    
C25   H12   S    
C2    C40   S    
C10   C31   S    
Cu2   O8    S    
C16   C17   A    
Cu1   O7    S    
C19   C37   S    
C38   H20   S    
Cu1   N2    S    
C23   O5    A    
C22   H9    S    
C22   C28   A    
C13   C14   A    
C12   C32   S    
N3    C39   S    
C8    H17   S    
C13   H4    S    
Cu1   O5    S    
C33   C34   A    
Cu2   O6    S    
C37   H19   S    
C24   H10   S    
C24   C25   A    
C1    O2    A    
C40   O11   D    
C31   O7    A    
C8    C9    D    
C25   C26   A    
C37   O9    D    
C35   C36   A    
C39   H22   S    
C29   C30   A    
Cu2   N1    S    
C12   O4    A    
C17   C18   A    
C26   C27   A    
C33   H1    S    
C9    C38   S    
C39   H23   S    
Cu1   O1    S    
Cu2   O2    S    
C23   O6    A    
C29   N1    A    
C21   C23   S    
C6    H2    S    
C4    C10   A    
C3    C4    A    
C2    C36   A    
C7    C9    S    
C30   H14   S    
C11   C17   A    
C20   H7    S    
C27   N2    A    
Cu1   O3    S    
C6    C7    A    
C4    H11   S    
C29   H8    S    
C32   C33   A    
C5    C10   A    
C26   H13   S    
C12   O3    A    
C11   C13   A    
C30   N2    A    
C11   H3    S    
C22   C24   A    
C39   H24   S    
C36   N3    S    
C40   H25   S    
C20   C21   A    
C27   C28   A    
C14   C15   A    
C38   O10   D    
C8    C35   S    
C14   H5    S    
Cu2   O4    S    
