data_mof_unit_64307.cif
_audit_creation_date              2012-12-10T21:32:46-0500
_audit_creation_method            fapswitch 2.2
_symmetry_space_group_name_H-M    P1
_symmetry_Int_Tables_number       1
_space_group_crystal_system       triclinic
_cell_length_a                    11.555855
_cell_length_b                    16.149605
_cell_length_c                    16.803226
_cell_angle_alpha                 90.21878
_cell_angle_beta                  90.530533
_cell_angle_gamma                 92.580286
_cell_volume                      3132.51809843

loop_
_atom_site_label
_atom_site_type_symbol
_atom_type_description
_atom_site_fract_x
_atom_site_fract_y
_atom_site_fract_z
_atom_type_partial_charge
C1    C     C_R   0.498665 0.490904 0.652973 0.935153
C2    C     C_R   0.501335 0.509096 0.347026 0.935153
C3    C     C_R   0.575322 0.435840 0.779317 0.042557
C4    C     C_R   0.424678 0.564160 0.220683 0.042557
C5    C     C_R   0.445557 0.760778 0.460127 -0.086800
C6    C     C_R   0.554443 0.239222 0.539873 -0.086800
C7    C     C_R   0.448659 0.848038 0.462483 -0.323225
C8    C     C_R   0.551341 0.151962 0.537516 -0.323224
C9    C     C_R   0.523065 0.891747 0.516821 0.291769
C10   C     C_R   0.476935 0.108252 0.483179 0.291769
C11   C     C_R   0.592412 0.845404 0.567377 -0.068617
C12   C     C_R   0.407588 0.154596 0.432623 -0.068617
C13   C     C_R   0.586738 0.757745 0.562982 0.455105
C14   C     C_R   0.413262 0.242255 0.437018 0.455105
C15   C     C_R   0.718299 0.499988 0.500097 0.915950
C16   C     C_R   0.281701 0.500012 0.499903 0.915950
C17   C     C_1   0.838646 0.499984 0.500093 -0.152885
C18   C     C_1   0.161354 0.500016 0.499907 -0.152885
C19   C     C_1   0.940724 0.499993 0.500043 0.014861
C20   C     C_1   0.059276 0.500007 0.499957 0.014861
C21   C     C_R   0.504421 0.490959 0.739341 -0.063867
C22   C     C_R   0.495579 0.509041 0.260659 -0.063867
C23   C     C_R   0.451595 0.554981 0.781172 0.037052
C24   C     C_R   0.548405 0.445019 0.218828 0.037052
C25   C     C_R   0.473887 0.566059 0.862546 0.092702
C26   C     C_R   0.526113 0.433941 0.137454 0.092702
C27   C     C_R   0.541444 0.508188 0.902346 0.244415
C28   C     C_R   0.458556 0.491812 0.097654 0.244415
C29   C     C_R   0.592717 0.444784 0.860940 -0.262302
C30   C     C_R   0.407283 0.555216 0.139060 -0.262301
H1    H     H_    0.644609 0.401206 0.892709 0.157679
H2    H     H_    0.355391 0.598794 0.107290 0.157679
H3    H     H_    0.611882 0.272025 0.581618 0.171950
H4    H     H_    0.388118 0.727975 0.418382 0.171950
H5    H     H_    0.606789 0.119419 0.577864 0.184913
H6    H     H_    0.393211 0.880581 0.422136 0.184913
N1    N     N_2   0.548624 0.507269 0.985340 -0.183220
N2    N     N_2   0.451376 0.492731 0.014660 -0.183220
N3    N     N_R   0.513820 0.716920 0.509720 -0.119446
N4    N     N_R   0.486180 0.283080 0.490280 -0.119446
N5    N     N_2   0.531715 0.980834 0.523256 -0.146418
N6    N     N_2   0.468284 0.019166 0.476744 -0.146418
O1    O     O_R   0.495050 0.422540 0.612660 -0.618669
O2    O     O_R   0.504950 0.577460 0.387340 -0.618669
O3    O     O_R   0.503930 0.561840 0.618900 -0.559281
O4    O     O_R   0.496070 0.438160 0.381100 -0.559281
O5    O     O_R   0.661110 0.430350 0.496870 -0.625197
O6    O     O_R   0.338890 0.569650 0.503130 -0.625197
O7    O     O_R   0.669990 0.569650 0.503110 -0.565569
O8    O     O_R   0.330010 0.430350 0.496890 -0.565569
Zn1   Zn    Zn3+2 0.494070 0.406980 0.495830 1.010614
Zn2   Zn    Zn3+2 0.505930 0.593020 0.504170 1.010614
N7    N     N_3   0.625702 0.391845 0.259543 -0.434421
H7    H     H_    0.705250 0.394369 0.230302 0.200986
H8    H     H_    0.590954 0.331000 0.256972 0.213457
N8    N     N_3   0.374298 0.608155 0.740457 -0.434420
H9    H     H_    0.294750 0.605631 0.769698 0.200986
H10   H     H_    0.409046 0.669000 0.743028 0.213457
N9    N     N_3   0.573630 0.364649 0.096620 -0.457949
H11   H     H_    0.545409 0.360785 0.037519 0.204699
H12   H     H_    0.539204 0.310499 0.122876 0.180481
N10   N     N_3   0.426370 0.635351 0.903380 -0.457949
H13   H     H_    0.454591 0.639215 0.962480 0.204699
H14   H     H_    0.460796 0.689501 0.877124 0.180481
N11   N     N_3   0.632026 0.372272 0.736939 -0.446219
H15   H     H_    0.721331 0.381262 0.746126 0.190596
H16   H     H_    0.606244 0.315081 0.761549 0.188872
N12   N     N_3   0.367973 0.627728 0.263060 -0.446219
H17   H     H_    0.278669 0.618738 0.253873 0.190596
H18   H     H_    0.393756 0.684919 0.238451 0.188872
N13   N     N_3   0.668527 0.888253 0.623139 -0.438242
H19   H     H_    0.646690 0.868525 0.680476 0.219221
H20   H     H_    0.753330 0.871958 0.611686 0.226700
N14   N     N_3   0.331473 0.111747 0.376861 -0.438242
H21   H     H_    0.353310 0.131475 0.319524 0.219221
H22   H     H_    0.246669 0.128042 0.388313 0.226700
Cl1   Cl    Cl    0.674953 0.701319 0.626947 -0.627408
Cl2   Cl    Cl    0.325047 0.298681 0.373053 -0.627408

loop_
_geom_bond_atom_site_label_1
_geom_bond_atom_site_label_2
_ccdc_geom_bond_type
C1    C21   S    
C12   N14   S    
C10   N6    S    
C7    H6    S    
C19   C20   S    
C15   O5    A    
O1    Zn1   S    
C16   O6    A    
C23   N8    S    
N7    H7    S    
C2    O4    A    
N10   H13   S    
N14   H22   S    
C16   O8    A    
C11   N13   S    
C27   C29   A    
N8    H9    S    
C15   C17   S    
N5    N6    D    
C3    C29   A    
N10   H14   S    
C1    O1    A    
C2    O2    A    
N12   H17   S    
N11   H16   S    
C2    C22   S    
C26   N9    S    
O2    Zn2   S    
C14   Cl2   S    
N3    Zn2   S    
N9    H11   S    
C3    N11   S    
N7    H8    S    
C13   Cl1   S    
N9    H12   S    
N14   H21   S    
C6    N4    A    
C5    C7    A    
C6    C8    A    
O3    Zn2   S    
C24   N7    S    
C4    N12   S    
O4    Zn1   S    
C8    H5    S    
N1    N2    D    
C4    C22   A    
C28   N2    S    
O7    Zn2   S    
C5    H4    S    
O8    Zn1   S    
C9    C11   A    
C10   C12   A    
N12   H18   S    
C12   C14   A    
C21   C23   A    
C22   C24   A    
C3    C21   A    
N13   H20   S    
C7    C9    A    
C26   C28   A    
C8    C10   A    
C24   C26   A    
O5    Zn1   S    
C25   C27   A    
N4    Zn1   S    
C9    N5    S    
C6    H3    S    
C5    N3    A    
N13   H19   S    
C29   H1    S    
C30   H2    S    
C11   C13   A    
C1    O3    A    
C27   N1    S    
C28   C30   A    
C17   C19   T    
N8    H10   S    
C18   C20   T    
C25   N10   S    
C15   O7    A    
C13   N3    A    
C14   N4    A    
O6    Zn2   S    
C23   C25   A    
C16   C18   S    
N11   H15   S    
C4    C30   A    
