data_mof_unit_24918.cif
_audit_creation_date              2012-12-10T20:28:40-0500
_audit_creation_method            fapswitch 2.2
_symmetry_space_group_name_H-M    P1
_symmetry_Int_Tables_number       1
_space_group_crystal_system       triclinic
_cell_length_a                    10.706749
_cell_length_b                    10.779666
_cell_length_c                    9.958407
_cell_angle_alpha                 89.289114
_cell_angle_beta                  88.07691
_cell_angle_gamma                 92.29301
_cell_volume                      1147.67538957

loop_
_atom_site_label
_atom_site_type_symbol
_atom_type_description
_atom_site_fract_x
_atom_site_fract_y
_atom_site_fract_z
_atom_type_partial_charge
C1    C     C_R   0.498092 0.260210 0.500693 0.958621
C2    C     C_R   0.063730 0.584804 0.587610 -0.006296
C3    C     C_R   0.126938 0.493604 0.514138 -0.197226
C4    C     C_R   0.061855 0.402158 0.442404 0.338808
C5    C     C_R   0.933356 0.407701 0.434032 0.333153
C6    C     C_R   0.873434 0.509856 0.489073 -0.214431
C7    C     C_R   0.477120 0.059027 0.618882 0.122618
C8    C     C_R   0.496774 0.127744 0.500024 -0.146637
C9    C     C_R   0.508980 0.067706 0.376857 -0.179717
C10   C     C_R   0.497529 0.940297 0.371443 0.427932
C11   C     C_R   0.486024 0.871048 0.492914 -0.145607
C12   C     C_R   0.260241 0.498471 0.503537 0.939502
C13   C     C_R   0.472393 0.931105 0.614197 0.087854
C14   C     C_3   0.358488 0.918260 0.703342 -0.540330
C15   C     C_3   0.362970 0.057064 0.710095 -0.412723
C16   C     C_R   0.401328 0.447900 0.075285 0.103656
C17   C     C_R   0.590856 0.563000 0.067111 0.443704
C18   C     C_R   0.579405 0.578761 0.924995 0.025070
C19   C     C_R   0.403526 0.445360 0.933535 0.145549
C20   C     C_3   0.360954 0.314231 0.930475 0.168124
C21   C     C_3   0.355860 0.315171 0.082981 -0.472730
C22   C     C_R   0.491410 0.738865 0.498275 0.958337
C23   C     C_R   0.739822 0.504453 0.497163 1.023546
C24   C     C_R   0.117238 0.655706 0.692171 -0.165147
C25   C     C_R   0.051464 0.750619 0.753806 0.082847
C26   C     C_R   0.943391 0.789108 0.693922 -0.185168
C27   C     C_R   0.889527 0.718938 0.592657 0.349257
C28   C     C_R   0.940315 0.604807 0.555697 -0.025347
H1    H     H_    0.376337 0.872471 0.800826 0.213876
H2    H     H_    0.281962 0.100516 0.663891 0.254462
H3    H     H_    0.382540 0.085159 0.813344 0.214051
H4    H     H_    0.436401 0.258540 0.887180 0.119687
H5    H     H_    0.259558 0.304746 0.127197 0.281835
H6    H     H_    0.424303 0.253683 0.128124 0.190618
H7    H     H_    0.204772 0.633910 0.734749 0.186504
H8    H     H_    0.901698 0.873884 0.724540 0.177259
H9    H     H_    0.521073 0.119523 0.283219 0.198122
H10   H     H_    0.275890 0.880049 0.650593 0.222452
N1    N     N_R   0.499160 0.499140 0.142800 -0.145970
N2    N     N_R   0.499160 0.499180 0.857150 -0.171878
O1    O     O_R   0.500020 0.316790 0.614690 -0.612940
O2    O     O_R   0.500000 0.316760 0.385350 -0.612126
O3    O     O_R   0.316770 0.500020 0.614690 -0.612263
O4    O     O_R   0.316760 0.499980 0.385350 -0.593713
O5    O     O_R   0.500000 0.683240 0.614650 -0.665418
O6    O     O_R   0.499980 0.683210 0.385310 -0.535681
O7    O     O_R   0.683240 0.500020 0.614650 -0.641025
O8    O     O_R   0.683230 0.499980 0.385310 -0.510176
Zn1   Zn    Zn3+2 0.500010 0.500020 0.653130 0.970882
Zn2   Zn    Zn3+2 0.499990 0.499980 0.346870 1.084119
Cl1   Cl    Cl    0.139167 0.272433 0.377652 -0.572728
Cl2   Cl    Cl    0.733214 0.605810 0.140331 -0.543527
C29   C     C_3   0.625925 0.698677 0.854198 -0.336326
C30   C     C_3   0.695770 0.801082 0.932246 -0.347411
C31   C     C_3   0.683897 0.929361 0.867391 -0.848216
H11   H     H_    0.701822 0.926744 0.757213 0.282384
H12   H     H_    0.588132 0.962402 0.886816 0.275969
H13   H     H_    0.751296 0.996817 0.911720 0.269647
H14   H     H_    0.656013 0.808171 0.035087 0.319870
H15   H     H_    0.796118 0.779920 0.937058 0.252373
H16   H     H_    0.683281 0.677265 0.764049 0.252919
H17   H     H_    0.538910 0.742000 0.826022 0.235824
Cl3   Cl    Cl    0.211055 0.298602 0.857744 -0.607765
C32   C     C_3   0.092616 0.801754 0.887225 -0.423637
C33   C     C_3   0.081179 0.942676 0.900870 -0.366149
C34   C     C_3   0.148682 0.990407 0.023920 -0.675146
H18   H     H_    0.112558 0.939773 0.115942 0.277064
H19   H     H_    0.250886 0.977959 0.011583 0.258436
H20   H     H_    0.132483 0.090618 0.036816 0.294148
H21   H     H_    0.120412 0.991843 0.809597 0.262311
H22   H     H_    0.981106 0.964798 0.913066 0.234179
H23   H     H_    0.033610 0.754782 0.968172 0.239208
H24   H     H_    0.190608 0.777030 0.904610 0.209695
Cl4   Cl    Cl    0.778095 0.789588 0.495961 -0.616109
Cl5   Cl    Cl    0.847888 0.284395 0.358324 -0.500473
Cl6   Cl    Cl    0.481752 0.877563 0.210113 -0.656438

loop_
_geom_bond_atom_site_label_1
_geom_bond_atom_site_label_2
_ccdc_geom_bond_type
C34   H19   S    
C31   H11   S    
C16   C21   S    
C1    C8    S    
C19   C20   S    
C7    C8    A    
O7    Zn1   S    
C30   H15   S    
C29   C30   S    
C26   C27   A    
C12   O3    A    
C5    C6    A    
C34   H20   S    
C21   H5    S    
N2    Zn1   S    
C26   H8    S    
C17   N1    A    
C18   N2    A    
C3    C12   S    
C18   C29   S    
C29   H16   S    
C6    C28   A    
C8    C9    A    
C32   H24   S    
C27   Cl4   S    
C9    C10   A    
O8    Zn2   S    
C34   H18   S    
C13   C14   S    
C10   Cl6   S    
C17   Cl2   S    
O1    Zn1   S    
C30   H14   S    
C24   H7    S    
C23   O7    A    
C4    Cl1   S    
C24   C25   A    
C10   C11   A    
O3    Zn1   S    
C21   H6    S    
C25   C26   A    
C33   H22   S    
C25   C32   S    
C5    Cl5   S    
C14   H10   S    
C29   H17   S    
O5    Zn1   S    
C22   O5    A    
C9    H9    S    
C17   C18   A    
O2    Zn2   S    
C1    O1    A    
C22   O6    A    
C31   H12   S    
C2    C24   A    
C14   H1    S    
C3    C4    A    
C15   H2    S    
C20   H4    S    
O4    Zn2   S    
C30   C31   S    
C23   O8    A    
C4    C5    A    
C15   H3    S    
O6    Zn2   S    
C11   C22   S    
C32   C33   S    
C20   Cl3   S    
C2    C3    A    
C12   O4    A    
C11   C13   A    
C16   C19   A    
C6    C23   S    
C7    C15   S    
C32   H23   S    
C19   N2    A    
C16   N1    A    
C1    O2    A    
C7    C13   A    
N1    Zn2   S    
C20   C21   S    
C33   C34   S    
C31   H13   S    
C27   C28   A    
C14   C15   S    
C2    C28   A    
C33   H21   S    
