data_mof_unit_43405.cif
_audit_creation_date              2013-03-05T16:03:53-0500
_audit_creation_method            fapswitch 2.2
_symmetry_space_group_name_H-M    P1
_symmetry_Int_Tables_number       1
_space_group_crystal_system       triclinic
_cell_length_a                    11.101834
_cell_length_b                    10.787718
_cell_length_c                    9.602081
_cell_angle_alpha                 89.865589
_cell_angle_beta                  102.626932
_cell_angle_gamma                 91.160971
_cell_volume                      1121.93222705

loop_
_atom_site_label
_atom_site_type_symbol
_atom_site_description
_atom_site_fract_x
_atom_site_fract_y
_atom_site_fract_z
_atom_type_partial_charge
O1    O     O_R   0.499990 0.319660 0.618740 -0.550055
O2    O     O_R   0.500010 0.680340 0.381260 -0.550096
O3    O     O_R   0.499990 0.319630 0.381170 -0.504367
O4    O     O_R   0.500010 0.680370 0.618830 -0.504335
C1    C     C_R   0.500571 0.262710 0.500346 0.934851
C2    C     C_R   0.499432 0.737290 0.499653 0.934910
O5    O     O_R   0.320690 0.500020 0.575130 -0.509781
O6    O     O_R   0.679310 0.499980 0.424870 -0.509810
O7    O     O_R   0.320680 0.499990 0.337560 -0.580602
O8    O     O_R   0.679320 0.500010 0.662440 -0.580502
C3    C     C_R   0.263551 0.501263 0.442261 0.894758
C4    C     C_R   0.736448 0.498731 0.557739 0.894795
Cu1   Cu    Cu3+1 0.500000 0.500020 0.640660 1.122455
Cu2   Cu    Cu3+1 0.500000 0.499980 0.359340 1.122400
C5    C     C_R   0.431875 0.413782 0.058336 0.443066
C6    C     C_R   0.568105 0.586236 0.941655 0.443053
C7    C     C_R   0.435118 0.410955 0.910478 0.289445
C8    C     C_R   0.564897 0.589035 0.089528 0.289454
C9    C     C_2   0.129724 0.491612 0.411163 -0.339173
C10   C     C_2   0.870274 0.508370 0.588840 -0.339066
C11   C     C_2   0.065044 0.521191 0.509534 0.281527
C12   C     C_2   0.934959 0.478748 0.490489 0.281552
H1    H     H_    0.913404 0.553765 0.688174 0.149811
H2    H     H_    0.086594 0.446247 0.311811 0.149855
C13   C     C_R   0.407295 0.063994 0.405293 0.396381
C14   C     C_R   0.592712 0.936004 0.594695 0.396357
C15   C     C_R   0.407517 0.934528 0.401340 0.223135
C16   C     C_R   0.592483 0.065469 0.598661 0.223124
C17   C     C_R   0.498774 0.871198 0.499015 -0.327641
C18   C     C_R   0.501228 0.128802 0.500981 -0.327627
N1    N     N_R   0.500030 0.500030 0.852080 -0.291658
N2    N     N_R   0.499970 0.499970 0.147920 -0.291696
N3    N     N_R   0.878876 0.404133 0.368081 0.129370
O9    O     O_R   0.861810 0.450360 0.240141 -0.364440
O10   O     O_R   0.835200 0.293780 0.385776 -0.305266
N4    N     N_R   0.121136 0.595756 0.631983 0.129373
O11   O     O_R   0.138205 0.549471 0.759897 -0.364555
O12   O     O_R   0.164796 0.706129 0.614349 -0.305233
O13   O     O_3   0.361252 0.327698 0.113668 -0.497971
C19   C     C_3   0.234850 0.355290 0.067021 -0.051957
H3    H     H_    0.194342 0.305126 0.966685 0.213890
H4    H     H_    0.216863 0.456517 0.053770 0.142602
H5    H     H_    0.185021 0.321379 0.147989 0.162843
O14   O     O_3   0.638674 0.672353 0.886292 -0.498069
C20   C     C_3   0.765115 0.644960 0.933056 -0.051401
H6    H     H_    0.783245 0.543791 0.947143 0.142488
H7    H     H_    0.805621 0.695777 0.032971 0.214054
H8    H     H_    0.814837 0.678333 0.851734 0.162533
N5    N     N_R   0.377385 0.307926 0.826488 0.152891
O15   O     O_R   0.271604 0.320799 0.738220 -0.365354
O16   O     O_R   0.416291 0.196690 0.860977 -0.275417
N6    N     N_R   0.622698 0.692014 0.173552 0.152795
O17   O     O_R   0.728551 0.679095 0.261668 -0.365370
O18   O     O_R   0.583783 0.803269 0.139186 -0.275626
O19   O     O_3   0.312637 0.127353 0.317927 -0.513570
C21   C     C_3   0.215561 0.138867 0.390372 -0.184057
H9    H     H_    0.135557 0.180870 0.317303 0.188322
H10   H     H_    0.243321 0.201099 0.484526 0.162887
H11   H     H_    0.183595 0.047138 0.423577 0.199240
O20   O     O_3   0.687369 0.872630 0.682050 -0.513645
C22   C     C_3   0.784486 0.861221 0.609650 -0.184292
H12   H     H_    0.756670 0.799386 0.515160 0.163022
H13   H     H_    0.864335 0.818827 0.682554 0.188139
H14   H     H_    0.816687 0.953027 0.576973 0.199492
N7    N     N_R   0.312822 0.868720 0.300940 0.159210
O21   O     O_R   0.249118 0.779633 0.343806 -0.356416
O22   O     O_R   0.281949 0.905509 0.168982 -0.228896
N8    N     N_R   0.687151 0.131274 0.699099 0.159178
O23   O     O_R   0.750862 0.220379 0.656278 -0.356389
O24   O     O_R   0.717983 0.094474 0.831058 -0.228926

loop_
_geom_bond_atom_site_label_1
_geom_bond_atom_site_label_2
_geom_bond_distance
_ccdc_geom_bond_type
C22   H14   1.113699 S    
O7    Cu2   1.955743 S    
C21   H11   1.113807 S    
N5    O16   1.301078 A    
C15   N7    1.438209 S    
C13   C15   1.397312 A    
C15   C17   1.407985 A    
C6    O14   1.381932 S    
C14   C16   1.397319 A    
C10   H1    1.082518 S    
O5    Cu1   1.952194 S    
O6    C4    1.294880 A    
C5    O13   1.381917 S    
N8    O24   1.301448 A    
C4    C10   1.451633 S    
O19   C21   1.412229 S    
N4    O12   1.301102 A    
C9    H2    1.082510 S    
C8    N6    1.430315 S    
C5    N2    1.366339 A    
N7    O21   1.300414 A    
C11   N4    1.442662 S    
O8    Cu1   1.955741 S    
C11   C12   1.478804 S    
C21   H9    1.108523 S    
C6    N1    1.366330 A    
O5    C3    1.294881 A    
O7    C3    1.300910 A    
N3    O10   1.301093 A    
C3    C9    1.451649 S    
O2    C2    1.294787 A    
O3    Cu2   1.956336 S    
O8    C4    1.300903 A    
C7    N1    1.379570 A    
C16   C18   1.408000 A    
C19   H3    1.107456 S    
C9    C11   1.347926 D    
C21   H10   1.111610 S    
N6    O18   1.301074 A    
N3    O9    1.301142 A    
C13   O19   1.384288 S    
C20   H7    1.107717 S    
C22   H12   1.111543 S    
O2    Cu2   1.957509 S    
O1    C1    1.294795 A    
O4    C2    1.296246 A    
C8    N2    1.379565 A    
C7    N5    1.430334 S    
O13   C19   1.414204 S    
C20   H6    1.116341 S    
O4    Cu1   1.956335 S    
C2    C17   1.444720 S    
O1    Cu1   1.957509 S    
N6    O17   1.299115 A    
C14   C17   1.405340 A    
C6    C8    1.428495 A    
N5    O15   1.299105 A    
C1    C18   1.444722 S    
C20   H8    1.105964 S    
Cu2   N2    2.029999 S    
C13   C18   1.405358 A    
C5    C7    1.428455 A    
C12   N3    1.442657 S    
Cu1   N1    2.029999 S    
C19   H4    1.116071 S    
N4    O11   1.301155 A    
O6    Cu2   1.952193 S    
C16   N8    1.438208 S    
Cu1   Cu2   2.701258 S    
C14   O20   1.384310 S    
N8    O23   1.300416 A    
C22   H13   1.108446 S    
O14   C20   1.414227 S    
N7    O22   1.301435 A    
C10   C12   1.347918 D    
O20   C22   1.412226 S    
O3    C1    1.296241 A    
C19   H5    1.105797 S    
