data_mof_unit_29170.cif
_audit_creation_date              2013-03-05T16:05:15-0500
_audit_creation_method            fapswitch 2.2
_symmetry_space_group_name_H-M    P1
_symmetry_Int_Tables_number       1
_space_group_crystal_system       triclinic
_cell_length_a                    11.554832
_cell_length_b                    14.9894
_cell_length_c                    15.183501
_cell_angle_alpha                 82.764827
_cell_angle_beta                  89.907657
_cell_angle_gamma                 103.982965
_cell_volume                      2530.13375923

loop_
_atom_site_label
_atom_site_type_symbol
_atom_site_description
_atom_site_fract_x
_atom_site_fract_y
_atom_site_fract_z
_atom_type_partial_charge
O1    O     O_R   0.466720 0.383110 0.605620 -0.616117
O2    O     O_R   0.533280 0.616890 0.394380 -0.611683
O3    O     O_R   0.509090 0.531900 0.639510 -0.610296
O4    O     O_R   0.490910 0.468100 0.360490 -0.597515
C1    C     C_R   0.486191 0.442120 0.663087 0.897523
C2    C     C_R   0.519264 0.557619 0.336802 0.890635
O5    O     O_R   0.644370 0.425610 0.483050 -0.592065
O6    O     O_R   0.355630 0.574390 0.516950 -0.608621
O7    O     O_R   0.686740 0.574390 0.516930 -0.601853
O8    O     O_R   0.313260 0.425610 0.483070 -0.609434
C3    C     C_R   0.718044 0.500753 0.500122 0.911794
C4    C     C_R   0.281954 0.499250 0.499870 0.899505
Zn1   Zn    Zn3+2 0.471710 0.400660 0.477370 1.002041
Zn2   Zn    Zn3+2 0.528290 0.599340 0.522630 0.987845
C5    C     C_1   0.838981 0.501891 0.500414 -0.111777
C6    C     C_1   0.161000 0.498113 0.499591 -0.148828
C7    C     C_1   0.940914 0.500978 0.500225 0.067038
C8    C     C_1   0.059063 0.499029 0.499789 0.049417
C9    C     C_R   0.496545 0.406247 0.756434 -0.136197
C10   C     C_R   0.555883 0.590114 0.243430 -0.139071
C11   C     C_R   0.478203 0.276473 0.873888 0.331617
C12   C     C_R   0.671634 0.705687 0.129018 0.323638
C13   C     C_R   0.461087 0.310999 0.786082 -0.222446
C14   C     C_R   0.619886 0.681205 0.215135 -0.221222
C15   C     C_R   0.553100 0.467006 0.814051 -0.147769
C16   C     C_R   0.542803 0.523887 0.185333 -0.136415
C17   C     C_R   0.575926 0.434548 0.901216 0.093055
C18   C     C_R   0.606772 0.542451 0.104541 0.081799
C19   C     C_R   0.530636 0.339260 0.933357 -0.032361
C20   C     C_R   0.666428 0.635490 0.073296 -0.037602
C21   C     C_R   0.630202 0.497368 0.959838 -0.049351
C22   C     C_R   0.604281 0.471056 0.051203 -0.058010
C23   C     C_R   0.572289 0.374768 0.084030 0.275199
C24   C     C_R   0.704749 0.586658 0.931191 0.269267
C25   C     C_R   0.535389 0.310179 0.024451 -0.165680
C26   C     C_R   0.722492 0.654606 0.988706 -0.171006
H1    H     H_    0.506407 0.237671 0.050736 0.245854
H2    H     H_    0.780869 0.721893 0.966898 0.244889
H3    H     H_    0.483907 0.456260 0.204798 0.180182
H4    H     H_    0.576452 0.540564 0.791046 0.178397
H5    H     H_    0.629417 0.733320 0.259762 0.205367
H6    H     H_    0.420893 0.262969 0.740670 0.200473
N1    N     N_R   0.566020 0.731700 0.552730 -0.129823
N2    N     N_R   0.433980 0.268300 0.447270 -0.123505
C27   C     C_R   0.701744 0.848295 0.619931 0.247640
C28   C     C_R   0.313219 0.156480 0.365547 0.265901
C29   C     C_R   0.658551 0.756116 0.606313 -0.027128
C30   C     C_R   0.350662 0.247051 0.385750 -0.002015
C31   C     C_R   0.507191 0.793333 0.514785 -0.007131
C32   C     C_R   0.490289 0.205751 0.486639 0.011233
C33   C     C_R   0.542953 0.887548 0.527975 -0.038521
C34   C     C_R   0.459254 0.113437 0.467722 -0.031385
C35   C     C_R   0.649941 0.917005 0.574576 -0.107067
C36   C     C_R   0.358513 0.086146 0.414737 -0.087627
C37   C     C_R   0.478120 0.953030 0.493423 0.063243
C38   C     C_R   0.523894 0.047966 0.501443 0.040498
C39   C     C_R   0.637303 0.076376 0.536855 -0.232867
C40   C     C_R   0.365996 0.925845 0.455035 -0.248842
C41   C     C_R   0.702274 0.013479 0.570557 0.440853
C42   C     C_R   0.305536 0.990220 0.416400 0.413514
H7    H     H_    0.555171 0.228844 0.535059 0.137278
H8    H     H_    0.436925 0.767594 0.471290 0.138687
H9    H     H_    0.315356 0.301754 0.350974 0.165293
H10   H     H_    0.699299 0.703176 0.638294 0.189049
H11   H     H_    0.680886 0.148928 0.533670 0.197813
H12   H     H_    0.320819 0.853844 0.457071 0.157229
N3    N     N_R   0.442139 0.178126 0.900900 0.212939
O9    O     O_R   0.344344 0.129458 0.871504 -0.300842
O10   O     O_R   0.516870 0.135136 0.940378 -0.302364
N4    N     N_R   0.728415 0.801312 0.099835 0.215135
O11   O     O_R   0.789307 0.852492 0.155193 -0.288727
O12   O     O_R   0.701752 0.841327 0.024109 -0.293093
N5    N     N_R   0.589802 0.341184 0.174954 0.205600
O13   O     O_R   0.680068 0.384121 0.217164 -0.346979
O14   O     O_R   0.526228 0.261167 0.211647 -0.362969
N6    N     N_R   0.774030 0.605470 0.849172 0.196585
O15   O     O_R   0.812438 0.539953 0.818972 -0.354471
O16   O     O_R   0.812956 0.690243 0.811093 -0.318412
S1    S     S_3+6 0.855611 0.061694 0.588965 0.102938
O17   O     O_2   0.872476 0.071590 0.685659 -0.199609
O18   O     O_2   0.931204 0.001156 0.560305 -0.190507
O19   O     O_3   0.900959 0.167402 0.529697 -0.543658
H13   H     H_    0.986417 0.188942 0.542829 0.393065
S2    S     S_3+6 0.154816 0.945102 0.388731 0.118808
O20   O     O_2   0.080162 0.012457 0.400070 -0.170079
O21   O     O_2   0.150219 0.924962 0.294094 -0.213650
O22   O     O_3   0.095822 0.845998 0.455877 -0.500659
H14   H     H_    0.106134 0.795411 0.422751 0.356372
N7    N     N_R   0.787963 0.868188 0.686672 0.257166
O23   O     O_R   0.886182 0.840588 0.683510 -0.235391
O24   O     O_R   0.757257 0.895231 0.759450 -0.266131
N8    N     N_R   0.245063 0.140834 0.287640 0.256045
O25   O     O_R   0.163446 0.185810 0.267440 -0.308481
O26   O     O_R   0.282354 0.098734 0.227496 -0.261164

loop_
_geom_bond_atom_site_label_1
_geom_bond_atom_site_label_2
_geom_bond_distance
_ccdc_geom_bond_type
C37   C38   1.414112 A    
C17   C19   1.419332 A    
N5    O13   1.301724 A    
S2    O22   1.684559 S    
O22   H14   0.990798 S    
C35   C41   1.419726 A    
C36   C42   1.417139 A    
O5    C3    1.292837 A    
C13   H6    1.083484 S    
O1    C1    1.301241 A    
C25   H1    1.080319 S    
N6    O16   1.299686 A    
C15   H4    1.081409 S    
C16   H3    1.080995 S    
C39   C41   1.391419 A    
C28   N8    1.434605 S    
C40   C42   1.395634 A    
C38   C39   1.406386 A    
O4    Zn1   1.912839 S    
C3    C5    1.393409 S    
C40   H12   1.075886 S    
C4    C6    1.393610 S    
C31   C33   1.412349 A    
C32   C34   1.409424 A    
N4    O11   1.301356 A    
N7    O24   1.300909 A    
C27   N7    1.429723 S    
C24   C26   1.402038 A    
C27   C35   1.419114 A    
C11   N3    1.437119 S    
C14   H5    1.083273 S    
N5    O14   1.301220 A    
O2    C2    1.306288 A    
O2    Zn2   1.930730 S    
C34   C36   1.423152 A    
C27   C29   1.392832 A    
C28   C30   1.394944 A    
C17   C21   1.414136 A    
N3    O9    1.301370 A    
C10   C14   1.399659 A    
C18   C22   1.416149 A    
N6    O15   1.301940 A    
O4    C2    1.304920 A    
C41   S1    1.781379 S    
C29   H10   1.082317 S    
S1    O18   1.502323 D    
N1    C31   1.348393 A    
C30   H9    1.082063 S    
C11   C19   1.417171 A    
C33   C35   1.428843 A    
C9    C13   1.401322 A    
O7    Zn2   1.959071 S    
C21   C22   1.404797 A    
O6    C4    1.292841 A    
C28   C36   1.418724 A    
N8    O26   1.301186 A    
C7    C8    1.372576 S    
C21   C24   1.420381 A    
S2    O20   1.502413 D    
O7    C3    1.295330 A    
O3    Zn2   1.912841 S    
O8    C4    1.295351 A    
C23   N5    1.440604 S    
C11   C13   1.400314 A    
C12   C14   1.404456 A    
O1    Zn1   1.930730 S    
N2    C32   1.347058 A    
C5    C7    1.181192 T    
O6    Zn2   1.943105 S    
C31   H8    1.076432 S    
C12   C20   1.421401 A    
C39   H11   1.077325 S    
O3    C1    1.309752 A    
O8    Zn1   1.959071 S    
S1    O19   1.683172 S    
C1    C9    1.466951 S    
C15   C17   1.399564 A    
C2    C10   1.466540 S    
C19   C25   1.402156 A    
C16   C18   1.392926 A    
C20   C26   1.402242 A    
C22   C23   1.424280 A    
C18   C20   1.418745 A    
C42   S2    1.780892 S    
C10   C16   1.391021 A    
C26   H2    1.080862 S    
N8    O25   1.301566 A    
C23   C25   1.399921 A    
C33   C37   1.423647 A    
C9    C15   1.391653 A    
S1    O17   1.502424 D    
N2    C30   1.352942 A    
O5    Zn1   1.943105 S    
C6    C8    1.181252 T    
O19   H13   0.990878 S    
C37   C40   1.411171 A    
C32   H7    1.078349 S    
S2    O21   1.503477 D    
N4    O12   1.301322 A    
N3    O10   1.301327 A    
N7    O23   1.301233 A    
N1    C29   1.351928 A    
C12   N4    1.437335 S    
Zn1   N2    2.036226 S    
C34   C38   1.418445 A    
C24   N6    1.438912 S    
Zn2   N1    2.036224 S    
