data_mof_unit_67868.cif
_audit_creation_date              2013-03-05T15:41:51-0500
_audit_creation_method            fapswitch 2.2
_symmetry_space_group_name_H-M    P1
_symmetry_Int_Tables_number       1
_space_group_crystal_system       triclinic
_cell_length_a                    8.008953
_cell_length_b                    8.847002
_cell_length_c                    10.577168
_cell_angle_alpha                 92.511061
_cell_angle_beta                  83.899115
_cell_angle_gamma                 93.799708
_cell_volume                      743.054052938

loop_
_atom_site_label
_atom_site_type_symbol
_atom_site_description
_atom_site_fract_x
_atom_site_fract_y
_atom_site_fract_z
_atom_type_partial_charge
O1    O     O_R   0.389250 0.738570 0.508410 -0.612031
O2    O     O_R   0.610750 0.261430 0.491590 -0.607764
O3    O     O_R   0.678390 0.711620 0.486450 -0.607462
O4    O     O_R   0.321610 0.288380 0.513550 -0.608913
C1    C     C_R   0.544737 0.793004 0.495488 0.894273
C2    C     C_R   0.455469 0.206859 0.502396 0.919411
O5    O     O_R   0.355460 0.513510 0.697030 -0.555235
O6    O     O_R   0.644540 0.486490 0.302970 -0.550961
O7    O     O_R   0.644600 0.486560 0.675070 -0.564636
O8    O     O_R   0.355400 0.513440 0.324930 -0.581067
C3    C     C_R   0.500380 0.508069 0.741562 1.019753
C4    C     C_R   0.499538 0.490875 0.258721 1.018014
Zn1   Zn    Zn3+2 0.306940 0.517990 0.514670 1.115191
Zn2   Zn    Zn3+2 0.693060 0.482010 0.485330 1.125543
N1    N     N_2   0.950320 0.457950 0.465730 -0.131955
N2    N     N_2   0.049680 0.542050 0.534270 -0.127931
C5    C     C_3   0.401112 0.609726 0.978752 -0.315415
C6    C     C_3   0.599583 0.388513 0.021952 -0.320630
C7    C     C_3   0.558999 0.629609 0.049671 0.222027
C8    C     C_3   0.441554 0.368055 0.951122 0.271712
C9    C     C_3   0.502058 0.487316 0.123471 -0.311391
C10   C     C_3   0.498309 0.510595 0.877207 -0.358502
C11   C     C_3   0.344473 0.466630 0.053927 0.288759
C12   C     C_3   0.656022 0.531736 0.947053 0.372036
H1    H     H_    0.007341 0.368627 0.417735 0.248864
H2    H     H_    0.992649 0.631511 0.582203 0.258372
C13   C     C_2   0.568233 0.955496 0.496156 -0.258711
C14   C     C_2   0.433097 0.044213 0.496578 -0.255714
S1    S     S_3+6 0.638375 0.802506 0.121060 0.071014
O9    O     O_2   0.501477 0.879058 0.202369 -0.233549
O10   O     O_2   0.775570 0.772661 0.201386 -0.217287
O11   O     O_3   0.716122 0.914384 0.003094 -0.482515
H3    H     H_    0.628490 0.908225 0.943559 0.384001
S2    S     S_3+6 0.365691 0.193032 0.880010 0.053470
O12   O     O_2   0.284657 0.096388 0.984909 -0.197597
O13   O     O_2   0.239244 0.218868 0.789274 -0.268668
O14   O     O_3   0.526057 0.105784 0.799917 -0.521526
H4    H     H_    0.475365 0.008672 0.767468 0.372899
C15   C     C_2   0.303874 0.741886 0.958585 1.062974
O15   O     O_2   0.247369 0.816596 0.051194 -0.462392
O16   O     O_R   0.275168 0.778010 0.835799 -0.785299
H5    H     H_    0.199444 0.865161 0.834986 0.401157
C16   C     C_2   0.700291 0.258702 0.041885 1.206009
O17   O     O_2   0.769744 0.193072 0.948952 -0.440855
O18   O     O_R   0.717443 0.214426 0.164776 -0.736668
H6    H     H_    0.797708 0.130792 0.165729 0.424884
S3    S     S_3+6 0.144768 0.404113 0.128720 0.125300
O19   O     O_2   0.163998 0.277184 0.214898 -0.249709
O20   O     O_2   0.060353 0.532042 0.202268 -0.220044
O21   O     O_3   0.032557 0.337865 0.013607 -0.442634
H7    H     H_    0.088673 0.386553 0.937348 0.414203
S4    S     S_3+6 0.853661 0.594551 0.870098 0.067192
O22   O     O_2   0.928790 0.469006 0.787429 -0.264343
O23   O     O_2   0.834288 0.727084 0.789659 -0.310556
O24   O     O_3   0.973967 0.648535 0.984429 -0.493855
H8    H     H_    0.965875 0.759456 0.993027 0.437687
C17   C     C_2   0.744848 0.015339 0.503732 1.021175
O25   O     O_2   0.842226 0.022347 0.406859 -0.567688
O26   O     O_R   0.795233 0.071638 0.620107 -0.682683
H9    H     H_    0.908791 0.129781 0.610675 0.388928
C18   C     C_2   0.257955 0.984003 0.483846 1.019144
O27   O     O_2   0.156807 0.974168 0.578467 -0.585616
O28   O     O_R   0.213433 0.930163 0.365112 -0.659564
H10   H     H_    0.098835 0.873794 0.370542 0.387371

loop_
_geom_bond_atom_site_label_1
_geom_bond_atom_site_label_2
_geom_bond_distance
_ccdc_geom_bond_type
C12   S4    1.768070 S    
O7    Zn2   2.002343 S    
C8    C11   1.540961 S    
O14   H4    0.989097 S    
S3    O21   1.653448 S    
S2    O14   1.675077 S    
O7    C3    1.307560 A    
O16   H5    1.012929 S    
C3    C10   1.432291 S    
S2    O13   1.501799 D    
C5    C10   1.535884 S    
S4    O24   1.659808 S    
O6    C4    1.300883 A    
C16   O17   1.220390 D    
C8    S2    1.789669 S    
C14   C18   1.484686 S    
O24   H8    0.987323 S    
C7    C12   1.535977 S    
O26   H9    1.012382 S    
S1    O10   1.501813 D    
C5    C11   1.541471 S    
C6    C16   1.481230 S    
O11   H3    0.988918 S    
O5    C3    1.302649 A    
C16   O18   1.396997 S    
C1    C13   1.437218 S    
C17   O25   1.221178 D    
O2    C2    1.299162 A    
O3    Zn2   2.041959 S    
O8    C4    1.307420 A    
O1    C1    1.300557 A    
N2    H2    1.027431 S    
C10   C12   1.526814 S    
S3    O20   1.501892 D    
C7    C9    1.528522 S    
C8    C10   1.530674 S    
O21   H7    0.982791 S    
S1    O11   1.669032 S    
C6    C8    1.534665 S    
C9    C11   1.523927 S    
C5    C15   1.482200 S    
C18   O27   1.221241 D    
O2    Zn2   2.019588 S    
C6    C12   1.540582 S    
N1    H1    1.026718 S    
C17   O26   1.396890 S    
C11   S3    1.772583 S    
C15   O15   1.220595 D    
S1    O9    1.499126 D    
N1    N2    1.307398 D    
C6    C9    1.535289 S    
O5    Zn1   2.010252 S    
O1    Zn1   2.019588 S    
S4    O22   1.500636 D    
C15   O16   1.396872 S    
O4    C2    1.323465 A    
S2    O12   1.496602 D    
C13   C17   1.486152 S    
Zn1   N2    2.072905 S    
C13   C14   1.377922 D    
C18   O28   1.396959 S    
Zn2   N1    2.072905 S    
O6    Zn2   2.010250 S    
C5    C7    1.534010 S    
O18   H6    1.012853 S    
C4    C9    1.427560 S    
C2    C14   1.437642 S    
S3    O19   1.502674 D    
O4    Zn1   2.041959 S    
S4    O23   1.504112 D    
O28   H10   1.012431 S    
O3    C1    1.322014 A    
O8    Zn1   2.002343 S    
C7    S1    1.784934 S    
