data_mof_unit_21696.cif
_audit_creation_date              2012-12-10T17:25:23-0500
_audit_creation_method            fapswitch 2.2
_symmetry_space_group_name_H-M    P1
_symmetry_Int_Tables_number       1
_space_group_crystal_system       triclinic
_cell_length_a                    27.879168
_cell_length_b                    10.814262
_cell_length_c                    9.584077
_cell_angle_alpha                 90.431011
_cell_angle_beta                  90.17395
_cell_angle_gamma                 92.831346
_cell_volume                      2885.90274293

loop_
_atom_site_label
_atom_site_type_symbol
_atom_type_description
_atom_site_fract_x
_atom_site_fract_y
_atom_site_fract_z
_atom_type_partial_charge
C1    C     C_R   0.504650 0.263409 0.500428 0.901072
C2    C     C_R   0.278347 0.432861 0.612460 -0.190295
C3    C     C_R   0.253257 0.489767 0.505812 0.277203
C4    C     C_R   0.101527 0.487993 0.526856 -0.072373
C5    C     C_R   0.125384 0.377679 0.550563 -0.050337
C6    C     C_R   0.097935 0.269944 0.590943 -0.005735
C7    C     C_R   0.128587 0.597891 0.495899 -0.008395
C8    C     C_R   0.354433 0.488390 0.499688 -0.156706
C9    C     C_R   0.645593 0.495772 0.495304 -0.053603
C10   C     C_R   0.972392 0.375581 0.542065 -0.009298
C11   C     C_R   0.976664 0.603278 0.526392 -0.036932
C12   C     C_R   0.407540 0.495783 0.499766 0.870711
C13   C     C_R   0.949326 0.488801 0.528200 0.071711
C14   C     C_R   0.943806 0.264101 0.539994 -0.289881
C15   C     C_R   0.893793 0.262677 0.526671 0.487579
C16   C     C_R   0.870549 0.375426 0.522200 -0.122161
C17   C     C_R   0.898500 0.487866 0.518323 -0.103587
C18   C     C_R   0.875514 0.599954 0.504931 -0.045715
C19   C     C_R   0.825592 0.597990 0.486620 0.579991
C20   C     C_R   0.819982 0.379769 0.520607 0.609887
C21   C     C_R   0.719416 0.419799 0.392180 -0.023691
C22   C     C_R   0.668549 0.415076 0.400986 -0.114496
C23   C     C_R   0.497471 0.737755 0.501093 0.808025
C24   C     C_R   0.674199 0.578727 0.578721 -0.054438
C25   C     C_R   0.723623 0.567490 0.584824 -0.196332
C26   C     C_R   0.746834 0.491328 0.490998 0.329561
C27   C     C_R   0.023278 0.376983 0.554446 0.070933
C28   C     C_R   0.050596 0.488681 0.531945 0.092844
C29   C     C_R   0.027353 0.600910 0.511247 0.032899
C30   C     C_R   0.047823 0.270268 0.588860 -0.281732
C31   C     C_R   0.105042 0.705174 0.463506 -0.135359
C32   C     C_R   0.951861 0.715002 0.539888 -0.010754
C33   C     C_R   0.902187 0.712167 0.518392 -0.128563
C34   C     C_R   0.592457 0.499223 0.499375 0.934181
C35   C     C_R   0.055312 0.705367 0.466517 -0.239466
C36   C     C_R   0.532179 0.118478 0.759720 0.016842
C37   C     C_R   0.518100 0.063562 0.886049 -0.237549
C38   C     C_R   0.490455 0.953067 0.885926 -0.127651
C39   C     C_R   0.480799 0.890489 0.760652 -0.147051
C40   C     C_R   0.497121 0.940830 0.632352 0.071111
C41   C     C_R   0.514626 0.065137 0.631407 0.103878
C42   C     C_R   0.511652 0.130105 0.503222 -0.037863
C43   C     C_R   0.507354 0.063994 0.377435 -0.173334
C44   C     C_R   0.502802 0.936317 0.378265 -0.213345
C45   C     C_R   0.175595 0.379364 0.528641 0.578436
C46   C     C_R   0.496809 0.873045 0.504579 -0.093236
C47   C     C_R   0.561730 0.670383 0.146744 -0.151927
C48   C     C_R   0.589621 0.758845 0.075734 -0.214240
C49   C     C_R   0.588750 0.760418 0.932147 -0.190590
C50   C     C_R   0.560611 0.672148 0.859194 -0.139080
C51   C     C_R   0.529858 0.584610 0.926792 0.174384
C52   C     C_R   0.530116 0.584173 0.076199 0.198601
C53   C     C_R   0.471597 0.419057 0.073015 -0.048654
C54   C     C_R   0.471763 0.418788 0.925042 -0.084183
C55   C     C_R   0.178813 0.597649 0.494766 0.542695
C56   C     C_R   0.278877 0.544562 0.394981 -0.180150
C57   C     C_R   0.329149 0.548784 0.393997 0.362185
C58   C     C_R   0.328218 0.425616 0.607035 -0.088635
Cu1   Cu    Cu3+1 0.500000 0.499990 0.640660 0.968359
Cu2   Cu    Cu3+1 0.500000 0.500010 0.359340 0.972626
H1    H     H_    0.259825 0.585869 0.309902 0.172317
H2    H     H_    0.124934 0.788959 0.432206 0.189633
H3    H     H_    0.883665 0.797713 0.523333 0.204893
H4    H     H_    0.744968 0.625925 0.656250 0.159446
H5    H     H_    0.039182 0.787629 0.429062 0.153274
H6    H     H_    0.507088 0.110836 0.277920 0.165446
H7    H     H_    0.529543 0.104614 0.984918 0.131453
H8    H     H_    0.258456 0.388903 0.697196 0.173088
H9    H     H_    0.478754 0.912204 0.983613 0.139441
H10   H     H_    0.459287 0.804860 0.766045 0.159710
H11   H     H_    0.502402 0.887615 0.279068 0.167359
H12   H     H_    0.448326 0.352738 0.127555 0.145320
H13   H     H_    0.566801 0.673799 0.256438 0.214881
H14   H     H_    0.612603 0.825407 0.132688 0.178993
H15   H     H_    0.610705 0.829135 0.876804 0.182079
H16   H     H_    0.564405 0.675189 0.750079 0.239183
H17   H     H_    0.448830 0.351832 0.869189 0.183139
H18   H     H_    0.959357 0.175168 0.544449 0.196427
H19   H     H_    0.028683 0.186749 0.622743 0.152581
N1    N     N_R   0.201471 0.489084 0.509428 -0.452737
N2    N     N_R   0.798607 0.489180 0.496988 -0.437565
N3    N     N_R   0.500460 0.501210 0.147910 -0.201842
N4    N     N_R   0.500480 0.501290 0.852040 -0.212968
O1    O     O_R   0.500000 0.319640 0.618810 -0.580722
O2    O     O_2   0.792287 0.276292 0.544281 -0.494132
O3    O     O_2   0.204763 0.705400 0.479630 -0.546936
O4    O     O_2   0.804139 0.704420 0.459193 -0.543247
O5    O     O_R   0.500000 0.319660 0.381240 -0.582380
O6    O     O_R   0.430260 0.500010 0.618770 -0.570825
O7    O     O_R   0.430270 0.500030 0.381200 -0.542966
O8    O     O_R   0.500000 0.680340 0.618760 -0.615096
O9    O     O_R   0.500000 0.680360 0.381190 -0.613896
O10   O     O_R   0.569730 0.499970 0.618800 -0.590110
O11   O     O_R   0.569740 0.499990 0.381230 -0.599583
O12   O     O_2   0.198239 0.272265 0.520000 -0.491808
C59   C     C_2   0.350399 0.344288 0.710188 0.406183
H20   H     H_    0.334764 0.333619 0.813260 0.068278
O13   O     O_2   0.384154 0.282164 0.678431 -0.556719
C60   C     C_2   0.975010 0.830898 0.598815 0.317573
H21   H     H_    0.008333 0.828178 0.657213 0.092823
O14   O     O_2   0.956668 0.930355 0.585519 -0.578239
C61   C     C_2   0.655414 0.689446 0.645648 0.337533
H22   H     H_    0.671030 0.724121 0.743013 0.082484
O15   O     O_2   0.625407 0.749001 0.586530 -0.572184
C62   C     C_2   0.570718 0.217867 0.766523 0.420957
H23   H     H_    0.576834 0.270622 0.862327 0.050610
O16   O     O_2   0.597283 0.238210 0.667454 -0.516791
C63   C     C_2   0.119013 0.156831 0.646174 0.476445
H24   H     H_    0.102142 0.066508 0.622071 0.042969
O17   O     O_2   0.152993 0.163698 0.727009 -0.495571
C64   C     C_2   0.640032 0.328533 0.307970 0.391519
H25   H     H_    0.649762 0.318428 0.199126 0.040391
O18   O     O_2   0.606338 0.264858 0.353230 -0.515362
C65   C     C_2   0.743696 0.351145 0.279620 0.367034
H26   H     H_    0.728229 0.263743 0.240154 0.066761
O19   O     O_2   0.780803 0.393368 0.227229 -0.546525
O20   O     O_3   0.867495 0.150336 0.525509 -0.543233
C66   C     C_3   0.874548 0.085788 0.398447 0.110056
H27   H     H_    0.864211 0.986843 0.416486 0.197206
H28   H     H_    0.912734 0.088846 0.364229 0.132282
C67   C     C_3   0.842419 0.132732 0.282132 -0.357956
H29   H     H_    0.804370 0.126476 0.316574 0.263635
H30   H     H_    0.852787 0.231006 0.259521 0.239235
C68   C     C_3   0.847040 0.056744 0.148511 -0.843267
H31   H     H_    0.884704 0.063019 0.110715 0.258584
H32   H     H_    0.823427 0.093128 0.066499 0.276972
H33   H     H_    0.836009 0.958174 0.167324 0.267658
O21   O     O_3   0.353496 0.608023 0.285999 -0.593837
C69   C     C_3   0.355870 0.736697 0.313319 0.078543
H34   H     H_    0.372294 0.757536 0.417783 0.121795
H35   H     H_    0.319273 0.773606 0.309276 0.168880
C70   C     C_3   0.387083 0.801746 0.202536 -0.328473
H36   H     H_    0.424148 0.768740 0.208858 0.227610
H37   H     H_    0.372427 0.778356 0.097084 0.229669
C71   C     C_3   0.388661 0.942085 0.222645 -0.906736
H38   H     H_    0.352291 0.977508 0.207678 0.274178
H39   H     H_    0.413312 0.986562 0.145061 0.248713
H40   H     H_    0.401748 0.967764 0.329028 0.268092

loop_
_geom_bond_atom_site_label_1
_geom_bond_atom_site_label_2
_ccdc_geom_bond_type
C10   C27   A    
C71   H40   S    
C21   C26   A    
C23   O8    A    
C41   C42   A    
C64   H25   S    
C34   O10   A    
C7    C55   A    
O21   C69   S    
C57   O21   S    
C65   H26   S    
Cu2   O5    S    
C71   H38   S    
C53   C54   A    
C63   H24   S    
C1    O1    A    
C40   C46   A    
C62   O16   D    
C12   O7    A    
C28   C29   A    
Cu1   N4    S    
C2    H8    S    
C43   H6    S    
C5    C6    A    
C9    C22   A    
C35   H5    S    
C15   C16   A    
C56   C57   A    
C44   H11   S    
C18   C19   A    
Cu1   O6    S    
C58   C59   S    
C66   H27   S    
C67   C68   S    
C20   N2    A    
C8    C58   A    
Cu2   N3    S    
C60   H21   S    
C16   C17   A    
C59   O13   D    
C36   C37   A    
C49   H15   S    
C16   C20   A    
C69   C70   S    
C1    O5    A    
C38   H9    S    
Cu1   Cu2   S    
C23   C46   S    
C21   C22   A    
C20   O2    S    
C27   C30   A    
C31   H2    S    
C36   C41   A    
C4    C7    A    
C3    N1    S    
C54   N4    A    
C4    C28   A    
C44   C46   A    
C17   C18   A    
Cu2   O9    S    
C33   H3    S    
C7    C31   A    
C51   C52   A    
C48   H14   S    
C12   O6    A    
Cu1   O1    S    
C47   H13   S    
C10   C14   A    
C39   C40   A    
C21   C65   S    
C25   C26   A    
C5    C45   A    
C15   O20   S    
C53   N3    A    
C66   C67   S    
C52   N3    A    
C43   C44   A    
C37   C38   A    
C50   H16   S    
C8    C57   A    
C3    C56   A    
C47   C48   A    
C14   C15   A    
C8    C12   S    
C59   H20   S    
C50   C51   A    
C64   O18   D    
Cu1   O8    S    
C24   C25   A    
C61   O15   D    
C67   H29   S    
C68   H33   S    
C30   H19   S    
C40   C41   A    
C60   O14   D    
C11   C32   A    
C22   C64   S    
C26   N2    S    
C9    C34   S    
C31   C35   A    
C42   C43   A    
C45   O12   S    
C51   N4    A    
C68   H32   S    
C69   H34   S    
C71   H39   S    
C48   C49   A    
C6    C30   A    
C36   C62   S    
C23   O9    A    
C34   O11   A    
C4    C5    A    
C10   C13   A    
C65   O19   D    
C2    C58   A    
C9    C24   A    
C47   C52   A    
Cu2   O7    S    
C62   H23   S    
C29   C35   A    
C19   O4    S    
C32   C60   S    
C13   C17   A    
C32   C33   A    
C54   H17   S    
C55   O3    S    
C2    C3    A    
O20   C66   S    
C55   N1    A    
C11   C13   A    
C38   C39   A    
C70   C71   S    
C37   H7    S    
C39   H10   S    
C63   O17   D    
C70   H36   S    
C45   N1    A    
C24   C61   S    
C14   H18   S    
C61   H22   S    
C18   C33   A    
C66   H28   S    
C67   H30   S    
C1    C42   S    
C11   C29   A    
C70   H37   S    
C49   C50   A    
C27   C28   A    
C6    C63   S    
C56   H1    S    
Cu1   O10   S    
C19   N2    A    
C53   H12   S    
C25   H4    S    
C68   H31   S    
C69   H35   S    
Cu2   O11   S    
