data_mof_unit_56297.cif
_audit_creation_date              2012-12-10T17:07:08-0500
_audit_creation_method            fapswitch 2.2
_symmetry_space_group_name_H-M    P1
_symmetry_Int_Tables_number       1
_space_group_crystal_system       triclinic
_cell_length_a                    17.189714
_cell_length_b                    11.038818
_cell_length_c                    9.80565
_cell_angle_alpha                 111.251151
_cell_angle_beta                  93.16339
_cell_angle_gamma                 91.990676
_cell_volume                      1728.49804333

loop_
_atom_site_label
_atom_site_type_symbol
_atom_type_description
_atom_site_fract_x
_atom_site_fract_y
_atom_site_fract_z
_atom_type_partial_charge
C1    C     C_R   0.494314 0.254205 0.441306 0.862896
C2    C     C_R   0.505606 0.745794 0.558711 0.861628
C3    C     C_2   0.491157 0.114823 0.408243 -0.360722
C4    C     C_2   0.508604 0.885172 0.591807 -0.361973
C5    C     C_2   0.501244 0.069563 0.516370 -0.156774
C6    C     C_2   0.498347 0.930431 0.483714 -0.155473
C7    C     C_2   0.506491 0.510656 0.080116 -0.074257
C8    C     C_2   0.493622 0.489183 0.919852 -0.072497
C9    C     C_R   0.352085 0.504040 0.521607 0.779541
C10   C     C_R   0.648287 0.497209 0.478575 0.785397
C11   C     C_R   0.269748 0.519445 0.541771 -0.005036
C12   C     C_R   0.732038 0.497885 0.461358 -0.025437
C13   C     C_R   0.216055 0.413402 0.476443 -0.202606
C14   C     C_R   0.782229 0.458023 0.552279 -0.192138
C15   C     C_R   0.136649 0.431261 0.487568 -0.134296
C16   C     C_R   0.862201 0.462259 0.538803 -0.142079
C17   C     C_R   0.110451 0.556536 0.558174 0.123052
C18   C     C_R   0.893160 0.511164 0.438162 0.129613
C19   C     C_R   0.164839 0.661562 0.628095 -0.172831
C20   C     C_R   0.842773 0.547694 0.344409 -0.174202
C21   C     C_R   0.244358 0.642779 0.620702 -0.192439
C22   C     C_R   0.762459 0.540286 0.355310 -0.195523
C23   C     C_2   0.026035 0.578215 0.557121 -0.096488
C24   C     C_2   0.978613 0.523753 0.431169 -0.096536
Cu1   Cu    Cu3+1 0.513640 0.521550 0.643210 0.938166
Cu2   Cu    Cu3+1 0.486360 0.478450 0.356790 0.940683
H1    H     H_    0.235610 0.317536 0.416527 0.126423
H2    H     H_    0.759558 0.422890 0.632935 0.147086
H3    H     H_    0.724326 0.571191 0.283949 0.140686
H4    H     H_    0.285995 0.725142 0.671560 0.130983
H5    H     H_    0.145747 0.758469 0.684426 0.137924
H6    H     H_    0.865706 0.584309 0.265132 0.135010
H7    H     H_    0.900153 0.429334 0.608569 0.133035
H8    H     H_    0.095526 0.348129 0.437554 0.132729
H9    H     H_    0.487753 0.864641 0.370081 0.181363
H10   H     H_    0.511793 0.135353 0.630012 0.180838
H11   H     H_    0.519221 0.951245 0.705239 0.150038
H12   H     H_    0.480585 0.048746 0.294802 0.150035
H13   H     H_    0.448877 0.417050 0.853213 0.159270
H14   H     H_    0.551316 0.582650 0.146728 0.154350
H15   H     H_    0.575881 0.622571 0.924326 0.190751
H16   H     H_    0.424048 0.377556 0.075707 0.192227
N1    N     N_2   0.465840 0.446060 0.141630 -0.284254
N2    N     N_2   0.534160 0.553940 0.858370 -0.286563
O1    O     O_R   0.507280 0.332200 0.576490 -0.579644
O2    O     O_R   0.492720 0.667800 0.423510 -0.578837
O3    O     O_R   0.484240 0.295800 0.334620 -0.574475
O4    O     O_R   0.515760 0.704200 0.665380 -0.574570
O5    O     O_R   0.399260 0.520290 0.634950 -0.578899
O6    O     O_R   0.600740 0.479710 0.365050 -0.581304
O7    O     O_R   0.376220 0.483890 0.393080 -0.566083
O8    O     O_R   0.623780 0.516110 0.606920 -0.573332
C25   C     C_R   0.010124 0.471858 0.283168 0.120156
C26   C     C_R   0.983132 0.348672 0.181727 -0.159415
C27   C     C_R   0.012182 0.300150 0.042871 -0.136640
C28   C     C_R   0.068131 0.374145 0.003796 -0.116159
C29   C     C_R   0.094957 0.496976 0.103336 -0.150086
C30   C     C_R   0.065773 0.546231 0.242001 -0.134466
H17   H     H_    0.940144 0.289727 0.210611 0.127767
H18   H     H_    0.991366 0.205032 0.965606 0.125193
H19   H     H_    0.090511 0.336512 0.896218 0.120236
H20   H     H_    0.137921 0.554573 0.072584 0.131694
H21   H     H_    0.086308 0.642458 0.316977 0.127702
C31   C     C_R   0.995043 0.660505 0.698334 0.118577
C32   C     C_R   0.013430 0.636695 0.827504 -0.155358
C33   C     C_R   0.984633 0.714179 0.959835 -0.136947
C34   C     C_R   0.937981 0.816588 0.964631 -0.117916
C35   C     C_R   0.920094 0.841906 0.837164 -0.141024
C36   C     C_R   0.948576 0.764551 0.704553 -0.126861
H22   H     H_    0.049337 0.557421 0.825248 0.128917
H23   H     H_    0.998412 0.694982 0.058800 0.135174
H24   H     H_    0.915853 0.876530 0.067212 0.118817
H25   H     H_    0.884289 0.921703 0.841168 0.123014
H26   H     H_    0.934761 0.786053 0.606911 0.123169

loop_
_geom_bond_atom_site_label_1
_geom_bond_atom_site_label_2
_ccdc_geom_bond_type
C2    O4    A    
C1    C3    S    
C2    C4    S    
C23   C24   D    
C25   C26   A    
C22   H3    S    
C7    N1    D    
C16   H7    S    
C9    C11   S    
C21   H4    S    
C26   C27   A    
C15   H8    S    
C8    N2    D    
C33   H23   S    
C9    O7    A    
C25   C30   A    
C10   O8    A    
C31   C32   A    
C27   C28   A    
C13   C15   A    
C33   C34   A    
C24   C25   S    
Cu1   O8    S    
C19   H5    S    
C36   H26   S    
Cu1   Cu2   S    
Cu2   O7    S    
C4    H11   S    
C11   C13   A    
Cu1   O4    S    
C1    O1    A    
C29   C30   A    
C17   C23   S    
C10   C12   S    
Cu2   O3    S    
C27   H18   S    
C18   C24   S    
C15   C17   A    
Cu1   N2    S    
C16   C18   A    
C23   C31   S    
C19   C21   A    
C12   C14   A    
Cu2   N1    S    
C32   C33   A    
C18   C20   A    
C26   H17   S    
Cu2   O6    S    
C5    C6    S    
H15   N2    S    
C14   C16   A    
C7    C8    S    
H16   N1    S    
Cu2   O2    S    
Cu1   O1    S    
C17   C19   A    
C34   C35   A    
C10   O6    A    
C5    H10   S    
C12   C22   A    
C29   H20   S    
C9    O5    A    
C6    H9    S    
C4    C6    D    
C34   H24   S    
C20   H6    S    
C30   H21   S    
C28   C29   A    
C8    H13   S    
C28   H19   S    
C13   H1    S    
C2    O2    A    
C14   H2    S    
C35   H25   S    
C31   C36   A    
C7    H14   S    
C11   C21   A    
C1    O3    A    
C32   H22   S    
C3    H12   S    
C20   C22   A    
C35   C36   A    
C3    C5    D    
Cu1   O5    S    
