data_mof_unit_51726.cif
_audit_creation_date              2012-10-26T20:07:47-0400
_audit_creation_method            fapswitch 2.2
_symmetry_space_group_name_H-M    P1
_symmetry_Int_Tables_number       1
_space_group_crystal_system       triclinic
_cell_length_a                    9.581189
_cell_length_b                    10.782175
_cell_length_c                    17.108918
_cell_angle_alpha                 87.744715
_cell_angle_beta                  94.573021
_cell_angle_gamma                 88.962512
_cell_volume                      1760.06305291

loop_
_atom_site_label
_atom_site_type_symbol
_atom_type_description
_atom_site_fract_x
_atom_site_fract_y
_atom_site_fract_z
_atom_type_partial_charge
C1    C     C_R   0.500975 0.262680 0.499555 0.584455
C2    C     C_R   0.062564 0.578871 0.449646 0.111651
C3    C     C_R   0.517973 0.498291 0.650860 0.547255
C4    C     C_R   0.482027 0.501699 0.349140 0.547262
C5    C     C_R   0.527843 0.497938 0.736875 0.006043
C6    C     C_R   0.472159 0.502019 0.263126 0.006055
C7    C     C_R   0.404888 0.499604 0.776305 -0.160603
C8    C     C_R   0.595115 0.500078 0.223704 -0.160639
C9    C     C_R   0.412078 0.499805 0.857658 -0.092108
C10   C     C_R   0.587926 0.499863 0.142352 -0.092108
C11   C     C_R   0.543235 0.498320 0.901427 0.226658
C12   C     C_R   0.499026 0.737320 0.500443 0.584454
C13   C     C_R   0.456768 0.501619 0.098574 0.226655
C14   C     C_R   0.665703 0.496438 0.862043 -0.112583
C15   C     C_R   0.334300 0.503750 0.137951 -0.112576
C16   C     C_R   0.658490 0.496277 0.780312 -0.158530
C17   C     C_R   0.341511 0.503923 0.219682 -0.158499
C18   C     C_R   0.442135 0.063622 0.560785 0.083410
C19   C     C_R   0.557880 0.936378 0.439218 0.083408
C20   C     C_3   0.378269 0.859482 0.627857 -0.385055
C21   C     C_3   0.621766 0.140514 0.372148 -0.385079
C22   C     C_3   0.883889 0.328900 0.608614 -0.356862
C23   C     C_R   0.439099 0.933401 0.561709 -0.041513
C24   C     C_3   0.116111 0.671119 0.391397 -0.356870
C25   C     C_R   0.560920 0.066599 0.438293 -0.041502
C26   C     C_R   0.497213 0.871506 0.500386 0.040904
C27   C     C_R   0.502791 0.128495 0.499613 0.040908
C28   C     C_R   0.085155 0.422379 0.549742 0.024755
C29   C     C_R   0.914845 0.577623 0.450259 0.024753
C30   C     C_R   0.937436 0.421133 0.550356 0.111642
Cu1   Cu    Cu3+1 0.640660 0.500020 0.500000 0.929695
Cu2   Cu    Cu3+1 0.359340 0.499980 0.500000 0.929711
H1    H     H_    0.697459 0.498558 0.255622 0.129179
H2    H     H_    0.849882 0.639555 0.410697 0.128480
H3    H     H_    0.280454 0.111914 0.624443 0.227777
H4    H     H_    0.441716 0.107318 0.675412 0.227201
H5    H     H_    0.719588 0.888063 0.375587 0.227776
H6    H     H_    0.558352 0.892695 0.324589 0.227210
H7    H     H_    0.457062 0.790027 0.654284 0.135003
H8    H     H_    0.346743 0.916560 0.676065 0.120291
H9    H     H_    0.283627 0.810769 0.604712 0.159036
H10   H     H_    0.542951 0.209925 0.345688 0.134989
H11   H     H_    0.716361 0.189282 0.395304 0.159051
H12   H     H_    0.302543 0.500911 0.744393 0.129171
H13   H     H_    0.653381 0.083424 0.323966 0.120286
H14   H     H_    0.770494 0.325347 0.609551 0.206236
H15   H     H_    0.920929 0.234143 0.595864 0.095339
H16   H     H_    0.926587 0.350562 0.668697 0.084352
H17   H     H_    0.229505 0.674649 0.390446 0.206223
H18   H     H_    0.073383 0.649494 0.331314 0.084317
H19   H     H_    0.079102 0.765875 0.404171 0.095365
H20   H     H_    0.685125 0.498258 0.114155 0.132947
H21   H     H_    0.314879 0.501183 0.885860 0.132940
H22   H     H_    0.767132 0.495221 0.894946 0.114002
H23   H     H_    0.232872 0.505166 0.105042 0.114002
H24   H     H_    0.754880 0.494942 0.751294 0.127951
H25   H     H_    0.245122 0.505469 0.248695 0.127920
H26   H     H_    0.150118 0.360448 0.589305 0.128458
N1    N     N_2   0.556817 0.498685 0.984583 -0.253878
N2    N     N_2   0.443187 0.501264 0.015418 -0.253878
N3    N     N_R   0.852070 0.500030 0.499980 -0.228000
N4    N     N_R   0.147930 0.499970 0.500020 -0.227992
N5    N     N_3   0.386250 0.132488 0.621878 -0.628900
N6    N     N_3   0.613782 0.867509 0.378131 -0.628887
O1    O     O_R   0.618740 0.319660 0.500000 -0.526924
O2    O     O_R   0.381260 0.680340 0.500000 -0.526907
O3    O     O_R   0.381170 0.319630 0.500010 -0.474064
O4    O     O_R   0.618830 0.680370 0.499990 -0.474066
O5    O     O_R   0.631780 0.498870 0.613920 -0.518737
O6    O     O_R   0.368220 0.501130 0.386080 -0.518733
O7    O     O_R   0.394210 0.498840 0.613930 -0.504840
O8    O     O_R   0.605790 0.501160 0.386070 -0.504841

loop_
_geom_bond_atom_site_label_1
_geom_bond_atom_site_label_2
_ccdc_geom_bond_type
C3    O7    A    
C16   H24   S    
C12   O2    A    
C1    O3    A    
C28   H26   S    
C25   C27   A    
H4    N5    S    
C9    C11   A    
Cu1   N3    S    
C1    O1    A    
Cu1   Cu2   S    
C20   C23   S    
C4    O8    A    
C19   N6    S    
C10   H20   S    
C11   N1    S    
C24   H19   S    
C4    O6    A    
C20   H9    S    
C20   H7    S    
Cu2   N4    S    
N1    N2    D    
C1    C27   S    
C13   N2    S    
C7    H12   S    
C24   H18   S    
C12   O4    A    
C18   C23   A    
C21   C25   S    
Cu2   O3    S    
C6    C8    A    
C29   H2    S    
C4    C6    S    
Cu1   O8    S    
C3    O5    A    
C15   H23   S    
C22   H16   S    
C22   H15   S    
Cu2   O7    S    
C21   H13   S    
C8    H1    S    
C13   C15   A    
C2    C24   S    
Cu1   O4    S    
C19   C25   A    
C11   C14   A    
C14   C16   A    
C18   N5    S    
C23   C26   A    
C9    H21   S    
C29   N3    A    
C21   H10   S    
C22   H14   S    
C7    C9    A    
Cu1   O5    S    
H5    N6    S    
C2    C29   A    
C19   C26   A    
Cu2   O2    S    
C30   N3    A    
C12   C26   S    
C24   H17   S    
C15   C17   A    
C6    C17   A    
Cu1   O1    S    
C5    C7    A    
C5    C16   A    
Cu2   O6    S    
C22   C30   S    
C14   H22   S    
C21   H11   S    
H6    N6    S    
C20   H8    S    
H3    N5    S    
C8    C10   A    
C18   C27   A    
C2    N4    A    
C17   H25   S    
C28   C30   A    
C3    C5    S    
C10   C13   A    
C28   N4    A    
