data_mof_unit_38359.cif
_audit_creation_date              2012-12-10T17:37:46-0500
_audit_creation_method            fapswitch 2.2
_symmetry_space_group_name_H-M    P1
_symmetry_Int_Tables_number       1
_space_group_crystal_system       triclinic
_cell_length_a                    12.305083
_cell_length_b                    13.363906
_cell_length_c                    17.360203
_cell_angle_alpha                 105.481655
_cell_angle_beta                  74.702718
_cell_angle_gamma                 117.102744
_cell_volume                      2415.20464768

loop_
_atom_site_label
_atom_site_type_symbol
_atom_type_description
_atom_site_fract_x
_atom_site_fract_y
_atom_site_fract_z
_atom_type_partial_charge
C1    C     C_R   0.145256 0.712739 0.505697 0.786129
C2    C     C_R   0.887037 0.524357 0.796381 -0.192849
C3    C     C_R   0.955908 0.544824 0.161812 -0.148581
C4    C     C_R   0.945214 0.537164 0.241727 -0.203486
C5    C     C_R   0.115972 0.480062 0.204042 -0.197650
C6    C     C_R   0.126355 0.487432 0.123776 -0.167582
C7    C     C_R   0.044962 0.517719 0.102089 0.193568
C8    C     C_2   0.954806 0.494130 0.984941 -0.228400
C9    C     C_2   0.054479 0.519985 0.016693 -0.229727
C10   C     C_R   0.024502 0.503956 0.263380 -0.022732
C11   C     C_R   0.742378 0.973306 0.399289 -0.194872
C12   C     C_R   0.986873 0.502503 0.651983 0.786141
C13   C     C_R   0.774946 0.164317 0.471558 -0.055634
C14   C     C_R   0.181162 0.915781 0.539193 -0.220393
C15   C     C_R   0.255158 0.030526 0.536779 -0.196327
C16   C     C_R   0.380717 0.066413 0.503782 -0.011324
C17   C     C_R   0.435007 0.986648 0.479522 0.014214
C18   C     C_R   0.355860 0.869190 0.466643 0.069960
C19   C     C_R   0.565085 0.019433 0.464182 0.108533
C20   C     C_R   0.613916 0.939734 0.418694 0.170575
C21   C     C_R   0.533746 0.828261 0.392242 -0.242957
C22   C     C_R   0.406602 0.793128 0.416000 -0.182416
C23   C     C_R   0.855500 0.286355 0.488353 0.805705
C24   C     C_R   0.647456 0.128332 0.495754 -0.204597
C25   C     C_R   0.822553 0.085714 0.424181 -0.190592
C26   C     C_R   0.228674 0.833498 0.502497 -0.098374
C27   C     C_R   0.636506 0.665028 0.635802 -0.299793
C28   C     C_R   0.256208 0.361875 0.384261 0.064542
C29   C     C_R   0.365234 0.347248 0.351731 -0.237895
C30   C     C_R   0.467245 0.407881 0.391560 -0.148788
C31   C     C_R   0.459426 0.479592 0.466760 0.032921
C32   C     C_R   0.348980 0.497994 0.494732 0.287793
C33   C     C_R   0.557007 0.534734 0.514610 -0.007539
C34   C     C_R   0.013646 0.498254 0.348088 0.785941
C35   C     C_R   0.544961 0.612391 0.586449 0.172221
C36   C     C_R   0.441488 0.636916 0.608770 -0.281822
C37   C     C_R   0.345910 0.581208 0.563849 -0.191404
C38   C     C_R   0.664493 0.513232 0.496313 0.060258
C39   C     C_R   0.738356 0.638334 0.615263 0.065629
C40   C     C_R   0.978328 0.500167 0.737062 -0.031092
C41   C     C_R   0.060599 0.471181 0.759296 -0.205718
C42   C     C_R   0.052660 0.467524 0.839694 -0.146930
C43   C     C_R   0.963337 0.494429 0.899296 0.190605
C44   C     C_R   0.879363 0.520948 0.877100 -0.170517
Cu1   Cu    Cu3+1 0.900140 0.524980 0.518800 0.944481
Cu2   Cu    Cu3+1 0.099860 0.475020 0.481200 0.925060
H1    H     H_    0.130747 0.450448 0.714601 0.166901
H2    H     H_    0.196383 0.467490 0.078336 0.123782
H3    H     H_    0.921329 0.111553 0.404968 0.154084
H4    H     H_    0.569364 0.767306 0.354375 0.141090
H5    H     H_    0.613333 0.187107 0.538448 0.149953
H6    H     H_    0.084691 0.891065 0.566622 0.166103
H7    H     H_    0.212923 0.090712 0.557437 0.172095
H8    H     H_    0.350027 0.707152 0.390610 0.181171
H9    H     H_    0.808692 0.677832 0.653574 0.122567
H10   H     H_    0.875320 0.558152 0.286525 0.149007
H11   H     H_    0.433274 0.698791 0.662394 0.153457
H12   H     H_    0.628408 0.725183 0.690552 0.137099
H13   H     H_    0.681586 0.456433 0.442661 0.104279
H14   H     H_    0.178525 0.316968 0.351916 0.124396
H15   H     H_    0.552040 0.399844 0.361421 0.115886
H16   H     H_    0.371654 0.290864 0.294596 0.146752
H17   H     H_    0.271981 0.607420 0.585284 0.208332
H18   H     H_    0.179077 0.455412 0.219473 0.148425
H19   H     H_    0.145039 0.539974 0.979012 0.145124
H20   H     H_    0.809075 0.540634 0.922430 0.123579
H21   H     H_    0.895217 0.573083 0.147293 0.122595
H22   H     H_    0.821885 0.546090 0.780576 0.151663
H23   H     H_    0.864289 0.474007 0.022723 0.145418
H24   H     H_    0.115410 0.442060 0.854583 0.127854
N1    N     N_R   0.749710 0.562810 0.547300 -0.184413
N2    N     N_R   0.249640 0.437820 0.453210 -0.209142
O1    O     O_R   0.025490 0.682370 0.523640 -0.580791
O2    O     O_R   0.194150 0.640180 0.491890 -0.612032
O3    O     O_R   0.905900 0.523560 0.631310 -0.587665
O4    O     O_R   0.074570 0.481370 0.599560 -0.602909
O5    O     O_R   0.805850 0.359820 0.508110 -0.572234
O6    O     O_R   0.974510 0.317630 0.476360 -0.585857
O7    O     O_R   0.925430 0.518630 0.400440 -0.595057
O8    O     O_R   0.094100 0.476440 0.368690 -0.601822
H25   H     H_    0.780675 0.913409 0.363302 0.133905
C45   C     C_2   0.446083 0.179127 0.478342 0.817044
O9    O     O_2   0.428456 0.261345 0.520443 -0.610306
O10   O     O_R   0.528465 0.189665 0.404954 -0.759853
H26   H     H_    0.582685 0.271188 0.397995 0.315232

loop_
_geom_bond_atom_site_label_1
_geom_bond_atom_site_label_2
_ccdc_geom_bond_type
Cu1   N1    S    
C41   C42   A    
C44   H20   S    
C19   C20   A    
C18   C26   A    
C8    C43   S    
Cu2   O4    S    
C22   H8    S    
Cu1   Cu2   S    
C11   H25   S    
C8    H23   S    
C6    H2    S    
C1    O2    A    
C15   H7    S    
C36   C37   A    
C3    C7    A    
C5    C6    A    
C11   C25   A    
C15   C16   A    
C42   H24   S    
C13   C23   S    
Cu1   O1    S    
C34   O8    A    
C29   H16   S    
C14   H6    S    
C35   C36   A    
C2    C44   A    
C8    C9    D    
C31   C33   A    
Cu2   N2    S    
C24   H5    S    
C21   C22   A    
C4    H10   S    
C13   C25   A    
C28   N2    A    
C21   H4    S    
C37   H17   S    
C9    H19   S    
C28   H14   S    
C39   H9    S    
C11   C20   A    
O10   H26   S    
Cu1   O7    S    
C36   H11   S    
C27   C39   A    
Cu2   O6    S    
C16   C17   A    
C27   C35   A    
C23   O5    A    
C5    H18   S    
C12   C40   S    
C43   C44   A    
C29   C30   A    
C34   O7    A    
C31   C32   A    
C16   C45   S    
C17   C18   A    
C41   H1    S    
C10   C34   S    
C32   C37   A    
C14   C26   A    
C40   C41   A    
C45   O10   S    
C12   O4    A    
C1    C26   S    
C12   O3    A    
C42   C43   A    
C4    C10   A    
C3    C4    A    
Cu2   O2    S    
C7    C9    S    
C38   N1    A    
C28   C29   A    
C18   C22   A    
C3    H21   S    
C27   H12   S    
C6    C7    A    
C2    H22   S    
C33   C38   A    
Cu1   O3    S    
C1    O1    A    
C19   C24   A    
C5    C10   A    
Cu2   O8    S    
C30   C31   A    
C33   C35   A    
C23   O6    A    
C25   H3    S    
C38   H13   S    
C17   C19   A    
C2    C40   A    
C20   C21   A    
C13   C24   A    
C45   O9    D    
C30   H15   S    
C39   N1    A    
C14   C15   A    
Cu1   O5    S    
C32   N2    A    
