data_mof_unit_34135.cif
_audit_creation_date              2012-12-10T18:32:47-0500
_audit_creation_method            fapswitch 2.2
_symmetry_space_group_name_H-M    P1
_symmetry_Int_Tables_number       1
_space_group_crystal_system       triclinic
_cell_length_a                    15.024488
_cell_length_b                    15.459272
_cell_length_c                    15.724144
_cell_angle_alpha                 90.438094
_cell_angle_beta                  105.082645
_cell_angle_gamma                 81.729033
_cell_volume                      3488.02197182

loop_
_atom_site_label
_atom_site_type_symbol
_atom_type_description
_atom_site_fract_x
_atom_site_fract_y
_atom_site_fract_z
_atom_type_partial_charge
C1    C     C_R   0.441183 0.662420 0.489464 0.905287
C2    C     C_3   0.396031 0.510412 0.021645 0.221982
C3    C     C_3   0.497473 0.506880 0.082096 -0.143673
C4    C     C_3   0.559607 0.422965 0.062054 0.036743
C5    C     C_3   0.570060 0.429680 0.965707 0.719608
C6    C     C_1   0.495555 0.501635 0.173283 0.160549
C7    C     C_1   0.501246 0.511046 0.825828 0.083641
C8    C     C_1   0.501992 0.506579 0.750671 -0.213140
C9    C     C_R   0.404453 0.755545 0.492306 -0.228313
C10   C     C_R   0.594950 0.245478 0.532700 -0.085511
C11   C     C_R   0.279621 0.879519 0.467676 0.437837
C12   C     C_R   0.501050 0.501185 0.661618 0.877467
C13   C     C_R   0.308185 0.789216 0.466602 0.343582
C14   C     C_R   0.469254 0.811928 0.524314 -0.346072
C15   C     C_R   0.442136 0.901581 0.527528 0.036547
C16   C     C_R   0.346646 0.936149 0.494372 -0.024414
C17   C     C_R   0.509247 0.958284 0.556155 0.130205
C18   C     C_R   0.482991 0.047860 0.532896 0.057560
C19   C     C_R   0.387340 0.081891 0.504912 -0.232344
C20   C     C_R   0.320036 0.026766 0.487444 -0.185508
C21   C     C_R   0.601093 0.929009 0.607509 -0.231347
C22   C     C_R   0.665841 0.986779 0.631180 -0.211723
C23   C     C_R   0.558617 0.337857 0.513059 0.918412
C24   C     C_R   0.642833 0.073107 0.598814 0.135830
C25   C     C_R   0.553024 0.101778 0.543055 -0.036698
C26   C     C_R   0.707476 0.131851 0.622087 -0.211775
C27   C     C_R   0.681808 0.218989 0.592561 -0.284467
C28   C     C_R   0.536220 0.184120 0.499767 0.364731
C29   C     C_R   0.847505 0.619743 0.649412 -0.281303
C30   C     C_R   0.756383 0.603142 0.619770 -0.004197
C31   C     C_R   0.792182 0.519497 0.503090 -0.021723
C32   C     C_R   0.885123 0.536665 0.527720 -0.069628
C33   C     C_R   0.913347 0.585283 0.604557 0.071248
C34   C     C_R   0.498796 0.499008 0.338342 0.895852
C35   C     C_R   0.950817 0.504101 0.480676 0.075394
C36   C     C_R   0.046381 0.514510 0.514672 0.049612
C37   C     C_R   0.072453 0.560096 0.593231 -0.360709
C38   C     C_R   0.006848 0.597300 0.636442 0.460904
C39   C     C_R   0.923481 0.461465 0.400408 -0.196415
C40   C     C_R   0.988206 0.424184 0.357955 -0.181723
C41   C     C_R   0.081863 0.430612 0.392033 0.078257
C42   C     C_R   0.112722 0.477365 0.469395 0.037870
C43   C     C_R   0.144537 0.391941 0.347251 -0.287518
C44   C     C_R   0.237664 0.399876 0.377430 0.575228
C45   C     C_3   0.399560 0.505891 0.923983 0.163034
C46   C     C_R   0.208657 0.485731 0.496397 -0.154738
C47   C     C_3   0.530780 0.601279 0.961547 0.662173
C48   C     C_3   0.539901 0.591155 0.065202 0.700971
C49   C     C_1   0.495676 0.499066 0.248645 -0.197890
C50   C     C_3   0.501026 0.512572 0.917837 -0.126474
H1    H     H_    0.366987 0.451757 0.037310 0.133662
H2    H     H_    0.630070 0.418499 0.108459 0.196008
H3    H     H_    0.247454 0.055445 0.464941 0.185239
H4    H     H_    0.728913 0.265656 0.617453 0.182107
H5    H     H_    0.734390 0.963504 0.673627 0.142590
H6    H     H_    0.542305 0.785537 0.542382 0.190619
H7    H     H_    0.351893 0.563612 0.887941 0.149380
H8    H     H_    0.363589 0.151561 0.498003 0.201491
H9    H     H_    0.622732 0.862975 0.634455 0.139681
H10   H     H_    0.775669 0.111559 0.666495 0.148053
H11   H     H_    0.237345 0.524749 0.550825 0.144470
H12   H     H_    0.964453 0.390663 0.297193 0.148263
H13   H     H_    0.866155 0.658218 0.707517 0.178804
H14   H     H_    0.705475 0.628315 0.654812 0.133042
H15   H     H_    0.766348 0.477385 0.450504 0.131085
H16   H     H_    0.143858 0.566927 0.624280 0.150477
H17   H     H_    0.852094 0.456455 0.367504 0.142544
H18   H     H_    0.121289 0.356131 0.287897 0.170301
N1    N     N_R   0.731690 0.552720 0.548990 -0.098476
N2    N     N_R   0.268300 0.447240 0.450950 -0.151395
O1    O     O_R   0.383120 0.605620 0.475300 -0.595149
O2    O     O_R   0.531890 0.639510 0.506740 -0.624201
O3    O     O_R   0.425580 0.483050 0.607130 -0.624110
O4    O     O_R   0.574360 0.516930 0.638570 -0.619548
O5    O     O_R   0.468110 0.360490 0.493260 -0.596911
O6    O     O_R   0.616880 0.394380 0.524700 -0.627369
O7    O     O_R   0.425640 0.483070 0.361430 -0.601407
O8    O     O_R   0.574420 0.516950 0.392870 -0.619091
Zn1   Zn    Zn3+2 0.400660 0.477370 0.479010 0.968387
Zn2   Zn    Zn3+2 0.599340 0.522630 0.520990 0.933912
O9    O     O_3   0.339054 0.589444 0.032843 -0.591201
C51   C     C_3   0.270503 0.575550 0.076220 0.121665
H19   H     H_    0.250880 0.637850 0.106987 0.183924
H20   H     H_    0.297150 0.525477 0.130958 0.140779
C52   C     C_3   0.183531 0.551807 0.010054 -0.401537
H21   H     H_    0.158787 0.602532 0.956059 0.238811
H22   H     H_    0.200801 0.487989 0.980846 0.219827
C53   C     C_3   0.105480 0.545279 0.054262 -0.896210
H23   H     H_    0.128463 0.494137 0.107854 0.273226
H24   H     H_    0.043773 0.527524 0.004885 0.268747
H25   H     H_    0.084963 0.609015 0.082120 0.265484
O10   O     O_3   0.371852 0.425702 0.889404 -0.622646
C54   C     C_3   0.293468 0.439517 0.815794 0.087941
H26   H     H_    0.310567 0.473175 0.760977 0.145646
H27   H     H_    0.233610 0.479570 0.833723 0.138528
C55   C     C_3   0.265905 0.350801 0.785297 -0.297191
H28   H     H_    0.325871 0.309589 0.768961 0.238268
H29   H     H_    0.247986 0.317348 0.839614 0.221715
C56   C     C_3   0.182607 0.360381 0.704500 -0.953575
H30   H     H_    0.121923 0.402148 0.718819 0.278508
H31   H     H_    0.162985 0.294986 0.685644 0.264718
H32   H     H_    0.200923 0.389760 0.648377 0.270457
O11   O     O_3   0.466645 0.205107 0.422861 -0.778301
H33   H     H_    0.455815 0.150568 0.390711 0.347013
O12   O     O_3   0.186107 0.912699 0.436907 -0.614314
C57   C     C_3   0.144126 0.912747 0.507530 0.071863
H34   H     H_    0.181211 0.949223 0.564142 0.122065
H35   H     H_    0.144375 0.844501 0.529942 0.153029
C58   C     C_3   0.043236 0.957483 0.476101 -0.285688
H36   H     H_    0.042097 0.025752 0.453663 0.220916
H37   H     H_    0.005372 0.922010 0.419471 0.238469
C59   C     C_3   0.993481 0.959025 0.549316 -0.995703
H38   H     H_    0.991920 0.891293 0.571195 0.261494
H39   H     H_    0.920657 0.992295 0.524473 0.274658
H40   H     H_    0.029493 0.995163 0.606260 0.269055
O13   O     O_3   0.240750 0.736429 0.437889 -0.723623
H41   H     H_    0.246000 0.695638 0.487869 0.327989
O14   O     O_3   0.036682 0.636179 0.716363 -0.655888
C60   C     C_3   0.053018 0.721481 0.700563 0.046052
H42   H     H_    0.986974 0.762000 0.663515 0.140768
H43   H     H_    0.106410 0.720327 0.662656 0.138062
C61   C     C_3   0.088958 0.762976 0.789004 -0.306759
H44   H     H_    0.036996 0.763919 0.828179 0.227633
H45   H     H_    0.154880 0.722945 0.826339 0.222744
C62   C     C_3   0.106512 0.856287 0.776644 -0.983480
H46   H     H_    0.155765 0.857648 0.734975 0.267686
H47   H     H_    0.137102 0.882798 0.841836 0.275380
H48   H     H_    0.039905 0.898578 0.745162 0.268608
O15   O     O_3   0.294931 0.362629 0.327645 -0.758162
H49   H     H_    0.359089 0.354746 0.364335 0.407528
O16   O     O_3   0.617109 0.613978 0.943727 -0.665752
C63   C     C_3   0.649266 0.693632 0.973686 0.104270
H50   H     H_    0.702893 0.681106 0.037515 0.180687
H51   H     H_    0.593514 0.745355 0.983049 0.144435
C64   C     C_3   0.695931 0.727455 0.907474 -0.364299
H52   H     H_    0.754872 0.677647 0.901089 0.239769
H53   H     H_    0.645305 0.738529 0.841717 0.206575
C65   C     C_3   0.732611 0.812989 0.936353 -0.968777
H54   H     H_    0.674437 0.864332 0.941233 0.263099
H55   H     H_    0.766246 0.835405 0.887103 0.267346
H56   H     H_    0.784983 0.803373 0.001272 0.271019
O17   O     O_3   0.457457 0.672637 0.926984 -0.638424
C66   C     C_3   0.455577 0.709575 0.843971 0.102179
H57   H     H_    0.505267 0.673558 0.810418 0.158227
H58   H     H_    0.473960 0.776616 0.854540 0.154097
C67   C     C_3   0.356842 0.717411 0.783347 -0.357134
H59   H     H_    0.336639 0.651480 0.769304 0.199812
H60   H     H_    0.307376 0.755096 0.816349 0.249793
C68   C     C_3   0.349948 0.763218 0.695999 -1.007272
H61   H     H_    0.366783 0.830766 0.706698 0.272447
H62   H     H_    0.278034 0.766506 0.652994 0.246018
H63   H     H_    0.399055 0.725709 0.662629 0.265107
O18   O     O_3   0.484418 0.664950 0.091497 -0.568030
C69   C     C_3   0.533319 0.726748 0.144320 0.195273
H64   H     H_    0.489546 0.791704 0.127702 0.143221
H65   H     H_    0.600843 0.733626 0.130787 0.131449
C70   C     C_3   0.546577 0.705719 0.242335 -0.331226
H66   H     H_    0.478566 0.696477 0.253854 0.221051
H67   H     H_    0.596043 0.644301 0.262151 0.256854
C71   C     C_3   0.584830 0.778725 0.300083 -0.943862
H68   H     H_    0.653392 0.788648 0.290506 0.265447
H69   H     H_    0.594139 0.760786 0.370463 0.279290
H70   H     H_    0.535548 0.840733 0.283660 0.266153
O19   O     O_3   0.633567 0.582251 0.117462 -0.859372
H71   H     H_    0.674838 0.544498 0.088308 0.357144
O20   O     O_3   0.546854 0.353639 0.917209 -0.605830
C72   C     C_3   0.614690 0.278131 0.942627 0.170226
H72   H     H_    0.580081 0.226062 0.963169 0.167851
H73   H     H_    0.674416 0.287281 0.999493 0.174030
C73   C     C_3   0.650247 0.246962 0.863166 -0.375552
H74   H     H_    0.590212 0.236802 0.807283 0.237379
H75   H     H_    0.686271 0.297649 0.842250 0.222390
C74   C     C_3   0.717641 0.161519 0.884590 -0.948506
H76   H     H_    0.779075 0.170416 0.939372 0.268503
H77   H     H_    0.742053 0.140950 0.825676 0.268742
H78   H     H_    0.682407 0.109150 0.903577 0.264858
O21   O     O_3   0.662765 0.441037 0.969357 -0.830425
H79   H     H_    0.670169 0.438698 0.908476 0.356075
O22   O     O_3   0.526482 0.345914 0.080032 -0.759847
H80   H     H_    0.470382 0.338240 0.032724 0.382835

loop_
_geom_bond_atom_site_label_1
_geom_bond_atom_site_label_2
_ccdc_geom_bond_type
C10   C27   A    
C66   C67   S    
C14   H6    S    
C48   O18   S    
C29   H13   S    
C54   H26   S    
C12   O4    A    
C64   C65   S    
C41   C42   A    
C36   C42   A    
C35   C36   A    
C23   O6    A    
C9    C14   A    
C3    C6    S    
O1    Zn1   S    
O9    C51   S    
C27   H4    S    
C7    C8    T    
C72   H73   S    
C74   H76   S    
C25   C28   A    
C47   O17   S    
C45   H7    S    
C26   C27   A    
C1    O1    A    
C57   H35   S    
C4    H2    S    
O19   H71   S    
C24   C26   A    
C21   H9    S    
C30   H14   S    
C58   H37   S    
C34   O7    A    
O8    Zn2   S    
C52   C53   S    
C73   H74   S    
C66   H57   S    
C55   C56   S    
C29   C33   A    
C3    C48   S    
C40   H12   S    
O13   H41   S    
C66   H58   S    
C18   C19   A    
C42   C46   A    
C45   O10   S    
C9    C13   A    
O14   C60   S    
C70   H66   S    
C56   H30   S    
C43   H18   S    
C55   H29   S    
C11   O12   S    
C62   H48   S    
C44   N2    A    
C72   C73   S    
C29   C30   A    
C69   H65   S    
C8    C12   S    
C52   H22   S    
C70   H67   S    
O4    Zn2   S    
C12   O3    A    
C55   H28   S    
C41   C43   A    
C18   C25   A    
C59   H39   S    
C59   H38   S    
C47   C50   S    
C67   H60   S    
C60   H43   S    
C19   H8    S    
C1    O2    A    
C46   H11   S    
C71   H70   S    
C64   H52   S    
C1    C9    S    
C24   C25   A    
C69   C70   S    
C2    H1    S    
C68   H63   S    
C72   H72   S    
C31   H15   S    
C63   H50   S    
C44   O15   S    
C52   H21   S    
C17   C21   A    
C3    C4    S    
C47   O16   S    
C71   H69   S    
C35   C39   A    
C43   C44   A    
C32   C35   A    
C37   C38   A    
C67   C68   S    
C11   C16   A    
C47   C48   S    
C53   H25   S    
C31   N1    A    
C16   C20   A    
C37   H16   S    
C17   C18   A    
O3    Zn1   S    
O7    Zn1   S    
C5    O20   S    
C5    O21   S    
C69   H64   S    
C74   H77   S    
C65   H55   S    
C63   H51   S    
C40   C41   A    
C56   H31   S    
C53   H24   S    
O21   H79   S    
C70   C71   S    
C51   H20   S    
C2    C45   S    
O20   C72   S    
C22   C24   A    
C5    C50   S    
C58   C59   S    
C4    O22   S    
C61   H45   S    
O16   C63   S    
C39   C40   A    
C30   N1    A    
C26   H10   S    
C67   H59   S    
C74   H78   S    
C10   C28   A    
C64   H53   S    
C36   C37   A    
C34   C49   S    
N2    Zn1   S    
O17   C66   S    
C39   H17   S    
C31   C32   A    
O6    Zn2   S    
C7    C50   S    
C23   O5    A    
C20   H3    S    
N1    Zn2   S    
C65   H56   S    
C60   H42   S    
C15   C17   A    
C22   H5    S    
C48   O19   S    
C10   C23   S    
C54   C55   S    
C51   C52   S    
O12   C57   S    
C33   C38   A    
C32   C33   A    
C19   C20   A    
C68   H62   S    
C2    C3    S    
O15   H49   S    
O2    Zn2   S    
C68   H61   S    
C34   O8    A    
C11   C13   A    
C28   O11   S    
C62   H46   S    
C73   H75   S    
C45   C50   S    
C61   C62   S    
C63   C64   S    
O10   C54   S    
C60   C61   S    
C6    C49   T    
C71   H68   S    
C46   N2    A    
C13   O13   S    
C65   H54   S    
O22   H80   S    
C38   O14   S    
C4    C5    S    
C56   H32   S    
C53   H23   S    
C54   H27   S    
C51   H19   S    
C57   H34   S    
C58   H36   S    
O11   H33   S    
C62   H47   S    
C14   C15   A    
C2    O9    S    
C61   H44   S    
C21   C22   A    
O5    Zn1   S    
C73   C74   S    
C59   H40   S    
C15   C16   A    
O18   C69   S    
C57   C58   S    
