data_mof_unit_26957.cif
_audit_creation_date              2012-10-26T18:31:58-0400
_audit_creation_method            fapswitch 2.2
_symmetry_space_group_name_H-M    P1
_symmetry_Int_Tables_number       1
_space_group_crystal_system       triclinic
_cell_length_a                    12.355828
_cell_length_b                    13.271566
_cell_length_c                    14.271734
_cell_angle_alpha                 93.340218
_cell_angle_beta                  107.504192
_cell_angle_gamma                 117.048794
_cell_volume                      1934.68154095

loop_
_atom_site_label
_atom_site_type_symbol
_atom_type_description
_atom_site_fract_x
_atom_site_fract_y
_atom_site_fract_z
_atom_type_partial_charge
C1    C     C_R   0.650957 0.714075 0.508780 0.532822
C2    C     C_R   0.175294 0.445298 0.002774 0.051599
C3    C     C_R   0.127417 0.465103 0.076547 0.031967
C4    C     C_R   0.618102 0.516504 0.686582 0.545826
C5    C     C_R   0.288112 0.434849 0.030874 -0.136852
C6    C     C_R   0.355617 0.445871 0.131942 -0.141080
C7    C     C_R   0.199828 0.479823 0.178055 -0.136174
C8    C     C_R   0.139600 0.966950 0.362627 -0.125923
C9    C     C_R   0.249181 0.162438 0.463366 0.000966
C10   C     C_R   0.731479 0.920931 0.575526 -0.129019
C11   C     C_R   0.822188 0.037771 0.594960 -0.136813
C12   C     C_R   0.844416 0.493316 0.917333 0.033896
C13   C     C_R   0.922951 0.072511 0.558496 -0.119915
C14   C     C_R   0.932232 0.990277 0.498057 0.034490
C15   C     C_R   0.830349 0.872983 0.468318 0.024567
C16   C     C_R   0.345297 0.285321 0.485044 0.551451
C17   C     C_R   0.038605 0.020771 0.465350 0.031538
C18   C     C_R   0.035097 0.937493 0.395558 0.053443
C19   C     C_R   0.926215 0.826660 0.357735 -0.137744
C20   C     C_R   0.824525 0.795198 0.392495 -0.122220
C21   C     C_R   0.149419 0.131500 0.500945 -0.130555
C22   C     C_R   0.245958 0.079397 0.395834 -0.131365
C23   C     C_R   0.788084 0.500468 0.988880 0.051838
C24   C     C_R   0.736249 0.837311 0.514557 -0.002918
C25   C     C_R   0.253985 0.681368 0.666272 0.250279
C26   C     C_R   0.655421 0.343391 0.362872 0.043910
C27   C     C_R   0.733656 0.310190 0.332059 -0.164017
C28   C     C_R   0.381153 0.482484 0.313295 0.543616
C29   C     C_R   0.868781 0.369259 0.383564 -0.137103
C30   C     C_R   0.928220 0.463231 0.467221 -0.001330
C31   C     C_R   0.843694 0.494680 0.495572 0.181526
C32   C     C_R   0.067684 0.526947 0.523684 -0.056514
C33   C     C_R   0.118840 0.619523 0.607697 0.040179
C34   C     C_R   0.952703 0.473636 0.944811 0.033061
C35   C     C_R   0.034801 0.649394 0.632804 -0.165232
C36   C     C_R   0.901388 0.589199 0.577952 -0.122392
C37   C     C_R   0.159542 0.503110 0.500983 0.011757
C38   C     C_R   0.338252 0.654356 0.638179 0.060438
C39   C     C_R   0.679126 0.518280 0.792461 -0.000928
C40   C     C_R   0.312047 0.469293 0.206041 -0.003509
C41   C     C_R   0.678528 0.515891 0.961544 -0.134436
C42   C     C_R   0.623392 0.523489 0.863465 -0.135973
C43   C     C_R   0.791043 0.507389 0.820739 -0.133951
C44   C     C_3   0.320964 0.729555 0.836531 -0.138561
C45   C     C_R   0.011325 0.473091 0.046964 0.032375
C46   C     C_R   0.950655 0.478418 0.115640 -0.139071
C47   C     C_R   0.840849 0.491293 0.086681 -0.136069
C48   C     C_R   0.002268 0.451661 0.873172 -0.147417
C49   C     C_R   0.110669 0.436702 0.901835 -0.147178
Cu1   Cu    Cu3+1 0.416420 0.526630 0.522910 0.920996
Cu2   Cu    Cu3+1 0.583580 0.473370 0.477090 0.914610
H1    H     H_    0.797306 0.494630 0.141577 0.107788
H2    H     H_    0.740095 0.710002 0.356904 0.148566
H3    H     H_    0.442277 0.702766 0.681377 0.131166
H4    H     H_    0.172769 0.502853 0.237407 0.122409
H5    H     H_    0.072122 0.720656 0.696001 0.162689
H6    H     H_    0.128937 0.434171 0.438637 0.128433
H7    H     H_    0.550807 0.296871 0.322207 0.122910
H8    H     H_    0.924195 0.339518 0.356413 0.099189
H9    H     H_    0.689281 0.238196 0.267883 0.106687
H10   H     H_    0.847069 0.620250 0.603446 0.182596
H11   H     H_    0.442469 0.437498 0.152085 0.122586
H12   H     H_    0.324481 0.418751 0.974666 0.102313
H13   H     H_    0.145338 0.420068 0.844554 0.103180
H14   H     H_    0.634421 0.520408 0.015689 0.099411
H15   H     H_    0.536653 0.532059 0.843022 0.121503
H16   H     H_    0.835603 0.511328 0.765899 0.117538
H17   H     H_    0.982883 0.469119 0.191979 0.102845
H18   H     H_    0.957490 0.442026 0.793354 0.109387
H19   H     H_    0.225721 0.659741 0.835427 0.121341
H20   H     H_    0.360268 0.801709 0.902217 0.151718
H21   H     H_    0.392121 0.697635 0.847979 0.104740
H22   H     H_    0.322692 0.102525 0.365735 0.123066
H23   H     H_    0.919665 0.763762 0.301172 0.107130
H24   H     H_    0.137306 0.903919 0.309111 0.110547
H25   H     H_    0.160606 0.196496 0.557577 0.117667
H26   H     H_    0.659051 0.895822 0.610311 0.136555
H27   H     H_    0.989933 0.164653 0.577067 0.102725
H28   H     H_    0.816792 0.101674 0.641247 0.125139
N1    N     N_R   0.290690 0.566960 0.557640 -0.267146
N2    N     N_R   0.709100 0.433710 0.442970 -0.232797
O1    O     O_R   0.545970 0.684450 0.528810 -0.498583
O2    O     O_R   0.687130 0.639470 0.490120 -0.525855
O3    O     O_R   0.519670 0.535100 0.660030 -0.505661
O4    O     O_R   0.660830 0.490120 0.621340 -0.519128
O5    O     O_R   0.312870 0.360530 0.509880 -0.506571
O6    O     O_R   0.454030 0.315550 0.471190 -0.499489
O7    O     O_R   0.339170 0.509880 0.378660 -0.504985
O8    O     O_R   0.480330 0.464900 0.339970 -0.514707
O9    O     O_3   0.305074 0.772126 0.748009 -0.579790

loop_
_geom_bond_atom_site_label_1
_geom_bond_atom_site_label_2
_ccdc_geom_bond_type
C27   C29   A    
C41   C42   A    
C19   C20   A    
C7    H4    S    
C48   H18   S    
Cu2   O4    S    
Cu1   O3    S    
C45   C46   A    
C21   H25   S    
C26   C27   A    
C9    C16   S    
C12   C43   A    
C3    C7    A    
C27   H9    S    
C30   C31   A    
C9    C22   A    
C28   C40   S    
C5    H12   S    
C44   H20   S    
C18   C19   A    
C46   C47   A    
C29   H8    S    
C38   H3    S    
C28   O7    A    
C16   O6    A    
C8    C22   A    
C7    C40   A    
C44   H19   S    
C28   O8    A    
Cu2   N2    S    
Cu1   O7    S    
C49   H13   S    
C13   C14   A    
C16   O5    A    
C14   C17   A    
C10   H26   S    
Cu1   Cu2   S    
C39   C42   A    
C15   C20   A    
C37   N1    A    
C23   C47   A    
Cu2   O6    S    
C12   C23   A    
C41   H14   S    
C4    O4    A    
C10   C24   A    
C1    O1    A    
C3    C45   A    
C8    H24   S    
C8    C18   A    
Cu1   N1    S    
C35   C36   A    
C46   H17   S    
C29   C30   A    
C2    C49   A    
C25   C38   A    
C4    O3    A    
C4    C39   S    
C17   C18   A    
C25   O9    S    
C34   C45   A    
C32   C37   A    
C26   H7    S    
C11   H28   S    
C48   C49   A    
C26   N2    A    
C6    C40   A    
C2    C5    A    
C34   C48   A    
C12   C34   A    
C36   H10   S    
Cu2   O2    S    
C44   O9    S    
Cu1   O1    S    
C13   H27   S    
C15   C24   A    
C35   H5    S    
C31   C36   A    
C19   H23   S    
C20   H2    S    
C23   C41   A    
C39   C43   A    
C47   H1    S    
C1    O2    A    
C31   N2    A    
C32   C33   A    
C6    H11   S    
C2    C3    A    
Cu2   O8    S    
C30   C32   A    
C11   C13   A    
C9    C21   A    
C5    C6    A    
C38   N1    A    
C33   C35   A    
C44   H21   S    
C17   C21   A    
C10   C11   A    
Cu1   O5    S    
C1    C24   S    
C43   H16   S    
C42   H15   S    
C14   C15   A    
C22   H22   S    
C37   H6    S    
C25   C33   A    
