data_mof_unit_39458.cif
_audit_creation_date              2012-12-10T17:32:19-0500
_audit_creation_method            fapswitch 2.2
_symmetry_space_group_name_H-M    P1
_symmetry_Int_Tables_number       1
_space_group_crystal_system       triclinic
_cell_length_a                    12.36936
_cell_length_b                    13.203343
_cell_length_c                    14.971976
_cell_angle_alpha                 77.529155
_cell_angle_beta                  101.574232
_cell_angle_gamma                 116.642893
_cell_volume                      2118.83103217

loop_
_atom_site_label
_atom_site_type_symbol
_atom_type_description
_atom_site_fract_x
_atom_site_fract_y
_atom_site_fract_z
_atom_type_partial_charge
C1    C     C_R   0.854838 0.286482 0.507787 0.832869
C2    C     C_R   0.058528 0.606452 0.083132 -0.230405
C3    C     C_R   0.903591 0.291562 0.070571 0.446953
C4    C     C_R   0.899760 0.292289 0.976630 -0.194792
C5    C     C_R   0.949906 0.395645 0.918003 -0.019126
C6    C     C_R   0.002795 0.500741 0.953469 -0.071462
C7    C     C_R   0.053634 0.605457 0.894719 -0.090010
C8    C     C_R   0.106617 0.709369 0.930426 0.544064
C9    C     C_R   0.109551 0.710020 0.023907 0.569218
C10   C     C_R   0.949092 0.395968 0.824455 0.595934
C11   C     C_R   0.999545 0.499914 0.767038 -0.180923
C12   C     C_R   0.999923 0.500057 0.670719 0.861313
C13   C     C_R   0.050785 0.604019 0.801281 -0.228495
C14   C     C_R   0.272595 0.026770 0.388865 -0.247981
C15   C     C_R   0.227540 0.835283 0.469452 -0.156903
C16   C     C_R   0.815962 0.082031 0.559520 0.649099
C17   C     C_R   0.737164 0.966858 0.573299 -0.193970
C18   C     C_R   0.613581 0.930828 0.544051 -0.291384
C19   C     C_R   0.565798 0.009715 0.496387 0.128264
C20   C     C_R   0.648438 0.125189 0.472078 0.009713
C21   C     C_R   0.438857 0.977212 0.470255 0.110980
C22   C     C_R   0.397518 0.057092 0.413828 0.073678
C23   C     C_R   0.144967 0.713511 0.486750 0.871860
C24   C     C_R   0.481298 0.165440 0.380981 -0.195371
C25   C     C_R   0.604834 0.198071 0.407757 -0.168776
C26   C     C_R   0.351401 0.867797 0.499311 -0.283428
C27   C     C_R   0.187730 0.916389 0.416399 0.656590
C28   C     C_R   0.772749 0.163236 0.510749 -0.239704
C29   C     C_R   0.344219 0.324823 0.644052 0.606404
C30   C     C_R   0.755011 0.639088 0.369908 0.593690
C31   C     C_R   0.656585 0.670368 0.343706 0.236977
C32   C     C_R   0.554653 0.613473 0.390390 -0.256295
C33   C     C_R   0.550400 0.532487 0.469269 -0.015796
C34   C     C_R   0.000737 0.500698 0.329250 0.865545
C35   C     C_R   0.653610 0.505987 0.496000 0.077664
C36   C     C_R   0.446515 0.474409 0.520730 -0.237512
C37   C     C_R   0.445903 0.385933 0.594553 -0.214065
C38   C     C_R   0.546965 0.360122 0.618340 0.655139
C39   C     C_R   0.648201 0.419820 0.570988 -0.217694
C40   C     C_R   0.342777 0.499970 0.503656 0.739184
C41   C     C_R   0.245045 0.352098 0.621502 -0.108932
C42   C     C_R   0.059518 0.605273 0.177091 0.627534
C43   C     C_R   0.002648 0.501518 0.233060 -0.188197
C44   C     C_R   0.950634 0.397729 0.198549 -0.329010
C45   C     C_R   0.952554 0.396063 0.105956 0.084050
C46   C     C_R   0.004465 0.501116 0.047507 -0.120172
Cu1   Cu    Cu3+1 0.098270 0.475420 0.521130 1.053131
Cu2   Cu    Cu3+1 0.901730 0.524580 0.478870 1.006929
H1    H     H_    0.451327 0.225138 0.333707 0.146425
H2    H     H_    0.240754 0.087979 0.346455 0.151469
H3    H     H_    0.377109 0.805375 0.545365 0.185215
H4    H     H_    0.558732 0.840039 0.557789 0.172297
H5    H     H_    0.771636 0.904963 0.609609 0.187964
H6    H     H_    0.665036 0.279690 0.374236 0.165516
H7    H     H_    0.166655 0.304930 0.659079 0.231348
H8    H     H_    0.909107 0.318684 0.244448 0.174412
H9    H     H_    0.479116 0.632807 0.359117 0.257118
H10   H     H_    0.719946 0.393524 0.594900 0.234060
H11   H     H_    0.858237 0.211374 0.950002 0.217711
H12   H     H_    0.089340 0.683338 0.754942 0.209218
N1    N     N_R   0.246280 0.438190 0.553160 -0.271436
N2    N     N_R   0.754320 0.561190 0.447410 -0.253817
O1    O     O_R   0.972510 0.318130 0.526570 -0.520513
O2    O     O_R   0.806530 0.359650 0.490890 -0.624767
O3    O     O_R   0.082980 0.479210 0.647590 -0.570631
O4    O     O_R   0.917000 0.520730 0.611900 -0.602246
O5    O     O_R   0.193470 0.640350 0.509110 -0.542997
O6    O     O_R   0.027490 0.681870 0.473430 -0.493666
O7    O     O_R   0.083000 0.479270 0.388100 -0.533396
O8    O     O_R   0.917020 0.520790 0.352410 -0.575879
F1    F     F_    0.116379 0.703818 0.215104 -0.624326
F2    F     F_    0.934271 0.113504 0.595917 -0.628080
F3    F     F_    0.549589 0.276627 0.688841 -0.568151
F4    F     F_    0.339798 0.238772 0.714000 -0.547466
F5    F     F_    0.336499 0.588116 0.441028 -0.669858
O9    O     O_3   0.857366 0.689926 0.322977 -0.531689
C47   C     C_3   0.832674 0.696324 0.225260 0.142016
H13   H     H_    0.919548 0.717773 0.199844 0.214322
H14   H     H_    0.811843 0.770344 0.193350 0.170764
C48   C     C_3   0.736773 0.584499 0.189331 -0.442245
H15   H     H_    0.758942 0.511416 0.222166 0.233648
H16   H     H_    0.644826 0.564403 0.205140 0.232292
C49   C     C_3   0.731245 0.595095 0.085140 -0.825320
H17   H     H_    0.706205 0.666091 0.049939 0.269622
H18   H     H_    0.661512 0.514078 0.061020 0.268684
H19   H     H_    0.820640 0.611629 0.066281 0.249511
O10   O     O_3   0.651930 0.746821 0.265645 -0.622757
C50   C     C_3   0.694248 0.857744 0.288700 0.058099
H20   H     H_    0.749696 0.918317 0.234102 0.181603
H21   H     H_    0.755308 0.872272 0.355216 0.146959
C51   C     C_3   0.586195 0.884752 0.289293 -0.322582
H22   H     H_    0.513560 0.847645 0.233042 0.272663
H23   H     H_    0.548026 0.845708 0.356003 0.225001
C52   C     C_3   0.624223 0.013504 0.275427 -0.837780
H24   H     H_    0.701759 0.054421 0.327298 0.239992
H25   H     H_    0.546085 0.029989 0.282289 0.271469
H26   H     H_    0.651554 0.052046 0.205361 0.299264
O11   O     O_3   0.853928 0.187830 0.126573 -0.621775
C53   C     C_3   0.946385 0.151084 0.167543 0.011598
H27   H     H_    0.922825 0.103774 0.236974 0.172990
H28   H     H_    0.038436 0.222920 0.179016 0.143199
C54   C     C_3   0.951427 0.070421 0.110176 -0.395504
H29   H     H_    0.858193 0.003516 0.094060 0.238190
H30   H     H_    0.987405 0.119633 0.044304 0.238988
C55   C     C_3   0.033305 0.012567 0.161325 -0.782957
H31   H     H_    0.127541 0.077733 0.177271 0.258015
H32   H     H_    0.035603 0.955396 0.117846 0.291863
H33   H     H_    0.997255 0.960223 0.226285 0.286939
F6    F     F_    0.899437 0.295917 0.788869 -0.650391
F7    F     F_    0.155900 0.810666 0.874785 -0.586955
F8    F     F_    0.161245 0.812425 0.055734 -0.564685
F9    F     F_    0.067727 0.888530 0.388905 -0.654955

loop_
_geom_bond_atom_site_label_1
_geom_bond_atom_site_label_2
_ccdc_geom_bond_type
C16   C28   A    
C21   C26   A    
C9    F8    S    
C19   C20   A    
C16   F2    S    
C41   N1    A    
O10   C50   S    
C18   H4    S    
C7    C8    A    
C13   H12   S    
C14   H2    S    
C47   H13   S    
C2    C46   A    
C55   H32   S    
C10   F6    S    
C36   C37   A    
C19   C21   A    
Cu1   O1    S    
C30   C31   A    
C54   H30   S    
Cu2   O2    S    
C20   C25   A    
C33   C36   A    
C54   C55   S    
C18   C19   A    
C23   O5    A    
C41   H7    S    
C15   C27   A    
Cu1   O7    S    
Cu1   Cu2   S    
C16   C17   A    
C1    C28   S    
C24   C25   A    
C14   C27   A    
C34   O8    A    
C49   H18   S    
C15   C23   S    
C21   C22   A    
C52   H24   S    
C32   H9    S    
C48   C49   S    
C1    O1    A    
Cu1   O5    S    
C47   H14   S    
C38   C39   A    
C55   H33   S    
C31   O10   S    
C36   C40   A    
O9    C47   S    
C48   H16   S    
C51   H22   S    
C8    C9    A    
C15   C26   A    
C29   F4    S    
C20   C28   A    
C52   H26   S    
C45   C46   A    
C39   H10   S    
C12   O4    A    
C3    C45   A    
C40   N1    A    
C23   O6    A    
C35   C39   A    
C43   C44   A    
C37   C38   A    
C8    F7    S    
C51   H23   S    
C30   O9    S    
C44   H8    S    
Cu2   N2    S    
C49   H17   S    
C50   C51   S    
C7    C13   A    
C49   H19   S    
C17   C18   A    
Cu2   O6    S    
C52   H25   S    
C34   O7    A    
C25   H6    S    
C53   H28   S    
C50   H21   S    
C27   F9    S    
C30   N2    A    
C22   C24   A    
C42   C43   A    
C3    C4    A    
C1    O2    A    
C17   H5    S    
C44   C45   A    
C12   O3    A    
C47   C48   S    
C24   H1    S    
C6    C46   A    
C29   C41   A    
C31   C32   A    
C34   C43   S    
Cu2   O8    S    
C48   H15   S    
Cu1   N1    S    
C11   C12   S    
C40   F5    S    
C6    C7    A    
C55   H31   S    
C53   H27   S    
C32   C33   A    
C14   C22   A    
C5    C10   A    
C26   H3    S    
C51   C52   S    
C11   C13   A    
C3    O11   S    
C5    C6    A    
C2    C42   A    
C4    H11   S    
C42   F1    S    
C33   C35   A    
C35   N2    A    
C54   H29   S    
C10   C11   A    
C4    C5    A    
C53   C54   S    
C50   H20   S    
O11   C53   S    
C29   C37   A    
Cu2   O4    S    
C2    C9    A    
Cu1   O3    S    
C38   F3    S    
