data_mof_unit_46638.cif
_audit_creation_date              2012-10-26T20:16:39-0400
_audit_creation_method            fapswitch 2.2
_symmetry_space_group_name_H-M    P1
_symmetry_Int_Tables_number       1
_space_group_crystal_system       triclinic
_cell_length_a                    10.891924
_cell_length_b                    10.884649
_cell_length_c                    9.893963
_cell_angle_alpha                 99.397932
_cell_angle_beta                  98.045966
_cell_angle_gamma                 92.765406
_cell_volume                      1142.80195357

loop_
_atom_site_label
_atom_site_type_symbol
_atom_type_description
_atom_site_fract_x
_atom_site_fract_y
_atom_site_fract_z
_atom_type_partial_charge
C1    C     C_R   0.496315 0.262124 0.499142 0.534104
C2    C     C_R   0.786012 0.937163 0.728584 -0.102479
C3    C     C_R   0.342962 0.073298 0.272471 0.060729
C4    C     C_R   0.657006 0.926700 0.727563 0.060744
C5    C     C_R   0.390228 0.096613 0.153610 -0.065453
C6    C     C_R   0.609665 0.903390 0.846379 -0.065425
C7    C     C_R   0.309309 0.111430 0.035839 -0.137786
C8    C     C_R   0.690512 0.888559 0.964187 -0.137807
C9    C     C_R   0.180919 0.097929 0.034408 -0.123562
C10   C     C_R   0.818910 0.902047 0.965706 -0.123558
C11   C     C_R   0.431915 0.913152 0.393434 -0.166208
C12   C     C_R   0.503693 0.737876 0.500857 0.534127
C13   C     C_R   0.568119 0.086849 0.606555 -0.166216
C14   C     C_R   0.504314 0.872129 0.502904 -0.008202
C15   C     C_R   0.495712 0.127872 0.497091 -0.008206
C16   C     C_R   0.262578 0.507753 0.499921 0.551626
C17   C     C_R   0.737420 0.492240 0.500079 0.551585
C18   C     C_R   0.573522 0.960239 0.610904 -0.034407
C19   C     C_R   0.426505 0.039762 0.389090 -0.034402
C20   C     C_2   0.506995 0.513509 0.078653 -0.042845
C21   C     C_2   0.493003 0.486493 0.921347 -0.042861
C22   C     C_R   0.193410 0.609916 0.099924 -0.076055
C23   C     C_R   0.872445 0.483818 0.503003 -0.065306
C24   C     C_R   0.806586 0.390123 0.900115 -0.076048
C25   C     C_R   0.137433 0.603397 0.217137 -0.071390
C26   C     C_R   0.862549 0.396618 0.782889 -0.071385
C27   C     C_R   0.081689 0.489121 0.235860 0.096701
C28   C     C_R   0.918304 0.510881 0.764146 0.096698
C29   C     C_R   0.073180 0.385033 0.129901 -0.033671
C30   C     C_R   0.926837 0.614979 0.870098 -0.033669
C31   C     C_R   0.125514 0.393530 0.010457 -0.126903
C32   C     C_R   0.874519 0.606504 0.989555 -0.126908
C33   C     C_R   0.188909 0.504285 0.997920 -0.078978
C34   C     C_R   0.127549 0.516159 0.496996 -0.065296
C35   C     C_R   0.811110 0.495765 0.002111 -0.078995
C36   C     C_R   0.919171 0.448762 0.378503 0.211739
C37   C     C_R   0.080823 0.551221 0.621493 0.211733
C38   C     C_3   0.821294 0.258886 0.285314 -0.005443
C39   C     C_3   0.749754 0.181769 0.154176 -0.373025
C40   C     C_3   0.178638 0.741123 0.714663 -0.005404
C41   C     C_3   0.250319 0.818225 0.845738 -0.373014
C42   C     C_R   0.956202 0.521049 0.627946 -0.056286
C43   C     C_R   0.043792 0.478932 0.372054 -0.056273
C44   C     C_R   0.133294 0.074609 0.152437 -0.131481
C45   C     C_R   0.866611 0.925371 0.847724 -0.131494
C46   C     C_R   0.213963 0.062826 0.271538 -0.102468
Cu1   Cu    Cu3+1 0.521120 0.521140 0.639640 0.945853
Cu2   Cu    Cu3+1 0.478880 0.478860 0.360360 0.945850
H1    H     H_    0.236902 0.506649 0.910423 0.178816
H2    H     H_    0.570060 0.591468 0.133719 0.142562
H3    H     H_    0.609394 0.628254 0.904383 0.213289
H4    H     H_    0.390617 0.371738 0.095618 0.213272
H5    H     H_    0.243043 0.695674 0.090316 0.102222
H6    H     H_    0.756951 0.304373 0.909745 0.102238
H7    H     H_    0.144235 0.685144 0.297389 0.073200
H8    H     H_    0.855730 0.314863 0.702644 0.073206
H9    H     H_    0.028904 0.297198 0.140868 0.131699
H10   H     H_    0.971116 0.702808 0.859118 0.131679
H11   H     H_    0.119490 0.314018 0.928219 0.095002
H12   H     H_    0.763132 0.493421 0.089622 0.178822
H13   H     H_    0.880571 0.686022 0.071786 0.095008
H14   H     H_    0.118309 0.104834 0.941515 0.093122
H15   H     H_    0.881465 0.895150 0.058633 0.093131
H16   H     H_    0.033930 0.065203 0.151475 0.092110
H17   H     H_    0.965979 0.934778 0.848758 0.092114
H18   H     H_    0.176132 0.041760 0.361430 0.088501
H19   H     H_    0.823902 0.958232 0.638729 0.088493
H20   H     H_    0.764067 0.256204 0.369696 0.139434
H21   H     H_    0.909753 0.214737 0.311953 0.103588
H22   H     H_    0.719002 0.089657 0.176664 0.095119
H23   H     H_    0.489214 0.100570 0.151441 0.101091
H24   H     H_    0.666938 0.229599 0.117202 0.166129
H25   H     H_    0.810326 0.167871 0.072425 0.141535
H26   H     H_    0.090141 0.785266 0.688173 0.103603
H27   H     H_    0.235740 0.743827 0.630166 0.139315
H28   H     H_    0.189857 0.832144 0.927588 0.141530
H29   H     H_    0.333148 0.770358 0.882588 0.166204
H30   H     H_    0.281052 0.910335 0.823233 0.095069
H31   H     H_    0.510674 0.899455 0.848484 0.101073
H32   H     H_    0.346072 0.129879 0.944412 0.089622
H33   H     H_    0.653686 0.870119 0.055578 0.089634
H34   H     H_    0.377192 0.846081 0.311219 0.124455
H35   H     H_    0.622836 0.153922 0.688774 0.124452
H36   H     H_    0.429935 0.408537 0.866280 0.142564
N1    N     N_2   0.447120 0.447110 0.150550 -0.349197
N2    N     N_2   0.552880 0.552890 0.849450 -0.349209
O1    O     O_R   0.517830 0.337490 0.617920 -0.513544
O2    O     O_3   0.155774 0.617541 0.736907 -0.566952
O3    O     O_R   0.482170 0.662510 0.382080 -0.513544
O4    O     O_R   0.482150 0.301790 0.382070 -0.493663
O5    O     O_R   0.517850 0.698210 0.617930 -0.493643
O6    O     O_R   0.337480 0.517860 0.617920 -0.457367
O7    O     O_R   0.662520 0.482140 0.382080 -0.457391
O8    O     O_R   0.301810 0.482160 0.382070 -0.492009
O9    O     O_R   0.698190 0.517840 0.617930 -0.492013
O10   O     O_3   0.844219 0.382462 0.263077 -0.566951

loop_
_geom_bond_atom_site_label_1
_geom_bond_atom_site_label_2
_ccdc_geom_bond_type
C1    O1    A    
C1    O4    A    
C5    H23   S    
C27   C29   A    
C34   C37   A    
Cu1   O6    S    
C14   C18   A    
C37   O2    S    
C10   H15   S    
C44   H16   S    
C15   C19   A    
C11   C19   A    
C17   C23   S    
C23   C42   A    
Cu2   O8    S    
C13   C18   A    
H4    N1    S    
C24   C26   A    
C32   H13   S    
C46   H18   S    
C41   H29   S    
C38   C39   S    
C11   C14   A    
C38   H20   S    
C24   H6    S    
C31   H11   S    
C37   C42   A    
C20   H2    S    
C12   O5    A    
C16   C34   S    
C22   C25   A    
C39   H24   S    
C31   C33   A    
C3    C19   S    
C17   O9    A    
C4    C18   S    
C38   H21   S    
C2    C45   A    
Cu2   O4    S    
Cu1   O5    S    
H3    N2    S    
C44   C46   A    
C22   H5    S    
C11   H34   S    
C24   C35   A    
Cu2   O7    S    
C9    H14   S    
Cu1   N2    S    
C12   O3    A    
C4    C6    A    
C2    H19   S    
C41   H30   S    
C5    C7    A    
C6    C8    A    
C8    H33   S    
C35   H12   S    
Cu1   O1    S    
C2    C4    A    
C32   C35   A    
C36   O10   S    
Cu1   Cu2   S    
C21   H36   S    
C20   N1    D    
C10   C45   A    
C1    C15   S    
C40   C41   S    
C12   C14   S    
C16   O6    A    
Cu2   O3    S    
C13   C15   A    
C45   H17   S    
C17   O7    A    
C7    C9    A    
C22   C33   A    
C21   N2    D    
C9    C44   A    
C26   C28   A    
C34   C43   A    
C25   H7    S    
C29   H9    S    
C3    C5    A    
C26   H8    S    
C25   C27   A    
C13   H35   S    
C3    C46   A    
C16   O8    A    
C40   H27   S    
C40   O2    S    
C28   C30   A    
C29   C31   A    
C41   H28   S    
C30   C32   A    
C6    H31   S    
C30   H10   S    
C28   C42   S    
C39   H22   S    
C40   H26   S    
C39   H25   S    
C27   C43   S    
C20   C21   S    
C8    C10   A    
C23   C36   A    
C38   O10   S    
Cu1   O9    S    
Cu2   N1    S    
C36   C43   A    
C33   H1    S    
C7    H32   S    
