data_mof_unit_35927.cif
_audit_creation_date              2012-12-11T15:49:16-0500
_audit_creation_method            fapswitch 2.2
_symmetry_space_group_name_H-M    P1
_symmetry_Int_Tables_number       1
_space_group_crystal_system       triclinic
_cell_length_a                    8.364294
_cell_length_b                    18.972899
_cell_length_c                    26.865203
_cell_angle_alpha                 94.247264
_cell_angle_beta                  94.213805
_cell_angle_gamma                 84.584955
_cell_volume                      4223.1853905

loop_
_atom_site_label
_atom_site_type_symbol
_atom_type_description
_atom_site_fract_x
_atom_site_fract_y
_atom_site_fract_z
_atom_type_partial_charge
Ba1   Ba    Ba6+2 0.854000 0.466860 0.523710 1.737652
Ba2   Ba    Ba6+2 0.335820 0.533080 0.476290 1.779247
Br1   Br    Br    0.715944 0.340261 0.305463 -0.466757
Br2   Br    Br    0.636755 0.619401 0.665999 -0.499696
Br3   Br    Br    0.871166 0.753752 0.695552 -0.425966
Br4   Br    Br    0.606096 0.199461 0.720469 -0.501373
Br5   Br    Br    0.896892 0.764663 0.261338 -0.387855
C1    C     C_3   0.698385 0.202904 0.656661 0.121358
C2    C     C_R   0.899279 0.560976 0.173120 0.688845
C3    C     C_2   0.738593 0.526767 0.266363 0.456981
C4    C     C_3   0.127870 0.312837 0.660431 0.306246
C5    C     C_3   0.723934 0.557909 0.320382 -0.130143
C6    C     C_1   0.977890 0.489017 0.341974 0.043224
C7    C     C_2   0.018091 0.489129 0.294810 -0.168625
C8    C     C_2   0.891372 0.505287 0.253216 0.131745
C9    C     C_R   0.019841 0.497530 0.100944 -0.071227
C10   C     C_R   0.061641 0.438844 0.130076 -0.037264
C11   C     C_R   0.144806 0.378111 0.108275 -0.019099
C12   C     C_3   0.663993 0.276568 0.637326 0.337177
C13   C     C_R   0.936869 0.558589 0.122604 -0.078273
C14   C     C_2   0.840950 0.520895 0.357262 -0.282633
C15   C     C_2   0.359289 0.491174 0.644301 -0.199002
C16   C     C_3   0.113927 0.290421 0.712978 -0.259211
C17   C     C_R   0.169536 0.428139 0.976109 0.024929
C18   C     C_R   0.079167 0.554837 0.973129 0.031421
C19   C     C_R   0.145368 0.490568 0.949508 0.053553
C20   C     C_R   0.225633 0.364265 0.949917 -0.089340
C21   C     C_R   0.261638 0.362643 0.899966 -0.032611
C22   C     C_R   0.245640 0.424761 0.874065 -0.022783
C23   C     C_3   0.579941 0.710163 0.637526 0.786914
C24   C     C_R   0.189462 0.489066 0.899008 -0.081296
C25   C     C_R   0.178740 0.552027 0.873745 -0.050849
C26   C     C_R   0.218081 0.549381 0.823203 0.638615
C27   C     C_R   0.283789 0.423570 0.823622 0.584958
C28   C     C_3   0.196424 0.317287 0.419605 0.301888
C29   C     C_2   0.437289 0.447756 0.728629 -0.026038
C30   C     C_3   0.452686 0.433969 0.673064 -0.080198
C31   C     C_1   0.218458 0.518522 0.659693 0.021562
C32   C     C_2   0.181714 0.517635 0.707124 -0.106634
C33   C     C_2   0.299979 0.482740 0.745203 0.191900
C34   C     C_3   0.645118 0.769585 0.673640 0.113207
C35   C     C_R   0.137996 0.431861 0.027819 0.039132
C36   C     C_R   0.059225 0.494909 0.049936 0.027222
C37   C     C_R   0.016102 0.554702 0.021095 -0.053891
C38   C     C_R   0.182385 0.374626 0.058382 -0.070868
C39   C     C_R   0.881609 0.614221 0.092449 -0.051322
C40   C     C_3   0.252547 0.240682 0.403943 -0.366608
C41   C     C_R   0.088452 0.617873 0.949222 0.012220
C42   C     C_R   0.133387 0.616532 0.900139 0.000677
C43   C     C_R   0.908885 0.610671 0.041559 0.315865
C44   C     C_R   0.406153 0.299539 0.524396 -0.286692
C45   C     C_3   0.050028 0.675114 0.335372 0.343651
C46   C     C_R   0.541033 0.276828 0.497835 0.045114
C47   C     C_R   0.593753 0.204510 0.493391 -0.141775
C48   C     C_R   0.506912 0.153599 0.512659 -0.011933
C49   C     C_R   0.365163 0.177404 0.536897 -0.123484
C50   C     C_R   0.313887 0.250167 0.541917 0.006950
C51   C     C_R   0.534897 0.027734 0.539636 -0.062004
C52   C     C_3   0.001361 0.675782 0.567218 0.452706
C53   C     C_R   0.580212 0.955024 0.530901 -0.073431
C54   C     C_R   0.651022 0.928454 0.486483 0.066817
C55   C     C_R   0.678471 0.977010 0.451680 -0.000592
C56   C     C_3   0.056101 0.688978 0.280517 0.163110
C57   C     C_R   0.630891 0.049422 0.459997 -0.074365
C58   C     C_R   0.558279 0.076044 0.504121 0.054146
C59   C     C_R   0.837035 0.824575 0.454167 -0.044344
C60   C     C_R   0.879466 0.751238 0.447615 0.006304
C61   C     C_R   0.638182 0.727944 0.486272 0.030862
C62   C     C_R   0.593346 0.801121 0.491238 -0.079324
C63   C     C_R   0.692853 0.850477 0.476114 0.030790
C64   C     C_3   0.979820 0.757128 0.571223 -0.264965
C65   C     C_R   0.776644 0.703296 0.462002 -0.301851
C66   C     C_3   0.751526 0.313930 0.373954 0.563517
C67   C     C_3   0.505885 0.718715 0.343350 0.226022
C68   C     C_3   0.800529 0.234264 0.373668 -0.346805
C69   C     C_3   0.448752 0.782303 0.312812 0.358623
C70   C     C_R   0.017497 0.441729 0.180196 0.640431
H1    H     H_    0.713268 0.275348 0.599918 0.025484
H2    H     H_    0.847972 0.345425 0.391129 0.015789
H3    H     H_    0.830133 0.188483 0.660934 0.104471
H4    H     H_    0.855006 0.220173 0.410882 0.061331
H5    H     H_    0.890895 0.218570 0.345744 0.134669
H6    H     H_    0.694027 0.203935 0.363844 0.123448
H7    H     H_    0.530962 0.288670 0.633499 -0.056443
H8    H     H_    0.644064 0.163457 0.629490 0.022170
H9    H     H_    0.626596 0.820923 0.655687 0.079283
H10   H     H_    0.580305 0.775615 0.708530 0.130215
H11   H     H_    0.108451 0.338048 0.739470 0.112358
H12   H     H_    0.360186 0.238894 0.381874 0.146940
H13   H     H_    0.125714 0.624890 0.341992 0.022958
H14   H     H_    0.923286 0.668667 0.342675 -0.068551
H15   H     H_    0.033460 0.639752 0.257667 0.038401
H16   H     H_    0.176248 0.702777 0.272213 0.106336
H17   H     H_    0.638674 0.708599 0.341705 0.000436
H18   H     H_    0.475282 0.730803 0.382833 0.071733
H19   H     H_    0.315592 0.790541 0.310576 0.080697
H20   H     H_    0.040247 0.359770 0.654599 0.079709
H21   H     H_    0.489618 0.772346 0.274300 0.099671
H22   H     H_    0.142061 0.476007 0.285855 0.159648
H23   H     H_    0.282947 0.209856 0.437188 0.058589
H24   H     H_    0.181098 0.332505 0.129799 0.143941
H25   H     H_    0.527917 0.423099 0.754435 0.130664
H26   H     H_    0.303057 0.312086 0.881674 0.145335
H27   H     H_    0.238990 0.313992 0.966691 0.089565
H28   H     H_    0.249535 0.326542 0.044998 0.086314
H29   H     H_    0.805200 0.658752 0.107667 0.196054
H30   H     H_    0.064426 0.669085 0.968626 0.154248
H31   H     H_    0.252130 0.327461 0.657463 -0.039067
H32   H     H_    0.132929 0.666466 0.882989 0.158026
H33   H     H_    0.066698 0.542437 0.718577 0.146604
H34   H     H_    0.156229 0.215111 0.380801 0.134995
H35   H     H_    0.829267 0.536221 0.396637 0.075091
H36   H     H_    0.409974 0.510517 0.612348 0.111689
H37   H     H_    0.487104 0.819577 0.510818 0.111272
H38   H     H_    0.561343 0.919694 0.559356 0.088362
H39   H     H_    0.482805 0.046145 0.574500 0.090555
H40   H     H_    0.701138 0.188095 0.474047 0.075640
H41   H     H_    0.732627 0.958896 0.417152 0.139533
H42   H     H_    0.002302 0.263854 0.715038 0.159961
H43   H     H_    0.648244 0.084225 0.431086 0.064851
H44   H     H_    0.919912 0.861063 0.444441 0.090930
H45   H     H_    0.893810 0.653296 0.549029 -0.062690
H46   H     H_    0.290664 0.139665 0.549694 0.089595
H47   H     H_    0.814469 0.647090 0.459985 0.046560
H48   H     H_    0.365088 0.355406 0.527734 0.060106
H49   H     H_    0.219125 0.253336 0.724004 0.174731
H50   H     H_    0.300860 0.344313 0.436202 0.019565
H51   H     H_    0.104899 0.317981 0.447548 0.034649
H52   H     H_    0.295311 0.699812 0.704543 0.373951
H53   H     H_    0.517302 0.969700 0.318725 0.364570
H54   H     H_    0.358702 0.460057 0.216794 0.350326
H55   H     H_    0.554463 0.627516 0.028003 0.333236
H56   H     H_    0.101053 0.659877 0.542786 0.083458
H57   H     H_    0.852401 0.777746 0.566127 0.060155
H58   H     H_    0.045020 0.778623 0.542082 0.079625
H59   H     H_    0.027287 0.779008 0.608104 0.242312
N1    N     N_R   0.935944 0.502290 0.201301 -0.418540
N2    N     N_R   0.266852 0.485304 0.798124 -0.430814
O1    O     O_2   0.913240 0.537010 0.617740 -0.417185
O2    O     O_2   0.216304 0.751658 0.459858 -0.475656
O3    O     O_3   0.110290 0.731170 0.366050 -0.566118
O4    O     O_3   0.145240 0.536960 0.557560 -0.510035
O5    O     O_3   0.557280 0.416300 0.475860 -0.453220
O6    O     O_2   0.376710 0.670070 0.522470 -0.406026
O7    O     O_3   0.645593 0.712519 0.590647 -0.675456
O8    O     O_2   0.405923 0.527015 0.325802 -0.394454
O9    O     O_3   0.425702 0.660474 0.322747 -0.615677
O10   O     O_2   0.049665 0.389911 0.204730 -0.537710
O11   O     O_2   0.331168 0.367159 0.802348 -0.587853
O12   O     O_3   0.606875 0.331377 0.397197 -0.616170
O13   O     O_2   0.829007 0.614886 0.191603 -0.538747
O14   O     O_2   0.210513 0.604311 0.801749 -0.544388
O15   O     O_3   0.669960 0.410470 0.588880 -0.484198
O16   O     O_2   0.785206 0.461676 0.678166 -0.445705
O17   O     O_3   0.033980 0.650078 0.615131 -0.507189
O18   O     O_3   0.738565 0.326637 0.670362 -0.593101
O19   O     O_2   0.812980 0.329910 0.477500 -0.496876
O20   O     O_3   0.078660 0.374870 0.564770 -0.508381
O21   O     O_2   0.981304 0.248088 0.532883 -0.484076
O22   O     O_2   0.320815 0.784259 0.598931 -0.338981
O23   O     O_3   0.093217 0.256514 0.625638 -0.593767
O24   O     O_2   0.319855 0.656936 0.611526 -0.373948
O25   O     O_3   0.293847 0.745864 0.689296 -0.468684
O26   O     O_2   0.441985 0.882509 0.388194 -0.323860
O27   O     O_2   0.701326 0.851462 0.350536 -0.299247
O28   O     O_3   0.477153 0.926719 0.300701 -0.447357
O29   O     O_2   0.465906 0.590351 0.223700 -0.278170
O30   O     O_2   0.611088 0.499402 0.170447 -0.288698
O31   O     O_3   0.456547 0.457537 0.239933 -0.453825
O32   O     O_2   0.830758 0.738022 0.004330 -0.210707
O33   O     O_2   0.746776 0.634552 0.951939 -0.282579
O34   O     O_2   0.276450 0.462960 0.382230 -0.419933
O35   O     O_3   0.591541 0.675801 0.030282 -0.447330
O36   O     O_3   0.044470 0.462980 0.442430 -0.514550
O37   O     O_3   0.519740 0.589470 0.411120 -0.497770
O38   O     O_3   0.129472 0.350223 0.377225 -0.601558
O39   O     O_3   0.632420 0.583650 0.524140 -0.451546
O40   O     O_3   0.111040 0.625070 0.435230 -0.516930
P1    P     P_3+3 0.082480 0.557670 0.610090 1.114250
P2    P     P_3+3 0.635220 0.340300 0.462910 0.984481
P3    P     P_3+3 0.116986 0.282311 0.565621 0.941344
P4    P     P_3+3 0.107220 0.442270 0.389900 1.039966
P5    P     P_3+3 0.080199 0.716209 0.428011 0.979724
P6    P     P_3+3 0.662625 0.411235 0.653589 1.007116
P7    P     P_3+3 0.565221 0.673280 0.532207 1.085427
P8    P     P_3+3 0.521438 0.582527 0.345560 1.061370
S1    S     S_3+6 0.370922 0.726011 0.633310 -0.101157
S2    S     S_3+6 0.522101 0.862118 0.340327 -0.069402
S3    S     S_3+6 0.566506 0.520387 0.222989 -0.008921
S4    S     S_3+6 0.770693 0.665890 0.004728 -0.035686

loop_
_geom_bond_atom_site_label_1
_geom_bond_atom_site_label_2
_ccdc_geom_bond_type
C54   C63   S    
Ba1   O20   S    
C48   C49   A    
C46   P2    S    
C12   O18   S    
C66   O12   S    
Ba2   O6    S    
C67   H17   S    
C45   H13   S    
C17   C20   A    
O31   S3    S    
C30   P6    S    
C28   C40   S    
O36   P4    S    
C64   H57   S    
C50   P3    S    
O18   P6    S    
O39   P7    S    
C7    H22   S    
C46   C47   A    
O38   P4    S    
C34   H9    S    
C67   C69   S    
O28   S2    S    
C28   O38   S    
C29   H25   S    
C21   C22   A    
C17   C19   A    
Ba1   Ba2   S    
C3    C8    D    
C16   H42   S    
O24   S1    D    
Ba1   P2    S    
C41   H30   S    
C69   H21   S    
C15   C31   D    
C39   H29   S    
O35   S4    S    
C4    O23   S    
C17   C35   A    
C49   C50   A    
H52   O25   S    
O25   S1    S    
C1    H8    S    
Ba2   P4    S    
C55   C57   A    
Ba1   O4    S    
C51   C58   A    
Ba1   O39   S    
C15   H36   S    
C2    O13   D    
O4    P1    S    
O17   P1    S    
C9    C10   A    
C13   C39   A    
C33   N2    S    
C56   H15   S    
C45   H14   S    
C23   C34   S    
C44   C50   A    
Ba2   O39   S    
O40   P5    S    
C69   S2    S    
C9    C13   A    
C4    H31   S    
C52   H45   S    
C59   C60   A    
C19   C24   A    
C6    C7    D    
C65   H47   S    
C51   H39   S    
Ba2   O5    S    
C66   C68   S    
C28   H51   S    
C2    N1    Am   
C34   H10   S    
C3    C5    S    
C18   C37   A    
C48   C58   S    
C27   O11   D    
C38   H28   S    
C39   C43   A    
C43   S4    S    
O6    P7    D    
C32   H33   S    
O9    P8    S    
C31   C32   D    
O29   S3    D    
C62   H37   S    
C1    C12   S    
O2    P5    D    
C49   H46   S    
C67   O9    S    
C60   C65   A    
O16   P6    D    
C32   C33   S    
C52   O17   S    
C61   C62   A    
Br4   C1    S    
C18   C19   A    
C15   C30   S    
C51   C53   A    
C5    C14   S    
C27   N2    Am   
Br2   C23   S    
C40   H23   S    
O33   S4    D    
O7    P7    S    
C53   C54   A    
O3    P5    S    
C11   H24   S    
C44   H48   S    
C12   H1    S    
Ba1   O15   S    
C36   C37   A    
Ba1   O5    S    
Ba2   O37   S    
O27   S2    D    
H53   O28   S    
C2    C13   A    
C24   C25   A    
C70   O10   D    
O15   P6    S    
C29   C33   D    
C26   N2    Am   
C61   C65   A    
C5    P8    S    
C10   C70   A    
C10   C11   A    
C66   H2    S    
C59   H44   S    
C6    C14   D    
O5    P2    S    
O21   P3    D    
C28   H50   S    
C9    C36   A    
Br5   C56   S    
C60   P5    S    
C16   H49   S    
C41   C42   A    
C61   P7    S    
C40   H12   S    
C16   H11   S    
Ba2   O4    S    
C35   C36   A    
C35   C38   A    
C12   H7    S    
C11   C38   A    
C64   H59   S    
C14   H35   S    
C23   O7    S    
O12   P2    S    
C37   C43   A    
Br3   C34   S    
C47   C48   A    
H54   O31   S    
O30   S3    D    
C31   P1    S    
C67   H18   S    
O8    P8    D    
C68   H4    S    
C70   N1    Am   
O26   S2    D    
C45   C56   S    
Ba1   O1    S    
C68   H5    S    
C56   H16   S    
C45   O3    S    
C57   H43   S    
C20   H27   S    
C4    H20   S    
C23   S1    S    
Ba1   O19   S    
C42   H32   S    
Ba1   O36   S    
C22   C24   A    
O32   S4    D    
C25   C26   A    
O37   P8    S    
C64   H58   S    
Ba1   P1    S    
C21   H26   S    
C68   H6    S    
C59   C63   A    
C40   H34   S    
C22   C27   A    
C57   C58   A    
C4    C16   S    
C52   H56   S    
C3    S3    S    
H55   O35   S    
C26   O14   D    
O23   P3    S    
C54   C55   A    
Br1   C66   S    
O20   P3    S    
C62   C63   A    
C25   C42   A    
C55   H41   S    
O1    P1    D    
Ba2   O36   S    
O34   P4    D    
C29   C30   S    
C6    P4    S    
C47   H40   S    
C52   C64   S    
C20   C21   A    
C1    H3    S    
C7    C8    S    
C53   H38   S    
Ba2   O40   S    
O22   S1    D    
C44   C46   A    
C18   C41   A    
O19   P2    D    
C69   H19   S    
Ba2   O34   S    
C8    N1    S    
