data_mof_unit_31344.cif
_audit_creation_date              2012-10-26T19:35:13-0400
_audit_creation_method            fapswitch 2.2
_symmetry_space_group_name_H-M    P1
_symmetry_Int_Tables_number       1
_space_group_crystal_system       triclinic
_cell_length_a                    10.765542
_cell_length_b                    10.883845
_cell_length_c                    9.569162
_cell_angle_alpha                 89.976296
_cell_angle_beta                  89.783518
_cell_angle_gamma                 90.794901
_cell_volume                      1121.10737711

loop_
_atom_site_label
_atom_site_type_symbol
_atom_type_description
_atom_site_fract_x
_atom_site_fract_y
_atom_site_fract_z
_atom_type_partial_charge
C1    C     C_R   0.501307 0.262891 0.499591 0.615301
C2    C     C_R   0.513873 0.936199 0.370067 0.362554
C3    C     C_R   0.502815 0.870193 0.497247 -0.039841
C4    C     C_R   0.262570 0.494643 0.500242 0.612832
C5    C     C_R   0.493504 0.938507 0.619236 -0.018867
C6    C     C_3   0.475660 0.930252 0.773540 0.167247
C7    C     C_3   0.473449 0.071983 0.772566 -0.166253
C8    C     C_R   0.606928 0.522491 0.073188 0.094595
C9    C     C_R   0.398191 0.463249 0.075253 0.041526
C10   C     C_R   0.397995 0.462820 0.927124 0.478040
C11   C     C_R   0.607900 0.519237 0.925961 0.090816
C12   C     C_R   0.062185 0.383650 0.556420 0.033000
C13   C     C_3   0.693077 0.629668 0.920465 0.141916
C14   C     C_3   0.687957 0.634661 0.079733 -0.230770
C15   C     C_R   0.500578 0.737323 0.499665 0.568683
C16   C     C_R   0.737267 0.498114 0.499646 0.528516
C17   C     C_R   0.121436 0.277935 0.610210 0.415237
C18   C     C_R   0.051620 0.179101 0.662499 -0.061164
C19   C     C_R   0.922693 0.181591 0.660409 -0.189980
C20   C     C_R   0.862350 0.283090 0.606054 -0.146277
C21   C     C_R   0.930647 0.385608 0.554821 -0.033256
C22   C     C_3   0.866509 0.496359 0.893105 -0.069182
C23   C     C_R   0.128539 0.486218 0.500208 0.020869
C24   C     C_3   0.354744 0.848810 0.949986 -0.066555
C25   C     C_R   0.066214 0.584346 0.439720 -0.159283
C26   C     C_R   0.938167 0.585802 0.439002 -0.136494
C27   C     C_R   0.870655 0.489062 0.498679 0.033601
C28   C     C_R   0.492782 0.062311 0.618842 -0.089989
C29   C     C_R   0.503122 0.130455 0.496939 -0.024476
C30   C     C_R   0.514782 0.064904 0.369928 0.382341
Cu1   Cu    Cu3+1 0.499990 0.499980 0.640670 1.077236
Cu2   Cu    Cu3+1 0.500010 0.500020 0.359330 1.020203
F1    F     F_    0.293958 0.422708 0.861756 -0.603018
F2    F     F_    0.246259 0.266395 0.609591 -0.622028
F3    F     F_    0.526517 0.123719 0.245233 -0.593580
F4    F     F_    0.522988 0.877924 0.245341 -0.643608
H1    H     H_    0.117303 0.661544 0.395083 0.130469
H2    H     H_    0.869141 0.103984 0.699770 0.132356
H3    H     H_    0.761983 0.279984 0.604104 0.133813
H4    H     H_    0.891321 0.663928 0.394044 0.124618
H5    H     H_    0.811597 0.420564 0.845090 0.138606
H6    H     H_    0.877130 0.480184 0.006799 0.111868
H7    H     H_    0.960867 0.493919 0.846305 0.171930
H8    H     H_    0.372018 0.932288 0.014642 0.187754
H9    H     H_    0.422234 0.775905 0.976377 0.133109
H10   H     H_    0.260539 0.813025 0.976225 0.151465
H11   H     H_    0.557715 0.890511 0.826428 0.102069
H12   H     H_    0.381592 0.111281 0.799393 0.221052
H13   H     H_    0.554427 0.115297 0.825966 0.120246
H14   H     H_    0.315236 0.434287 0.130737 0.151860
H15   H     H_    0.647712 0.709077 0.870715 0.133228
H16   H     H_    0.777400 0.618704 0.133520 0.144146
H17   H     H_    0.637273 0.715573 0.119229 0.188135
H18   H     H_    0.098049 0.099130 0.703244 0.157547
N1    N     N_R   0.500790 0.500930 0.147930 -0.271444
N2    N     N_R   0.500790 0.500890 0.852020 -0.255615
O1    O     O_R   0.500000 0.319640 0.618810 -0.470115
O2    O     O_3   0.358974 0.876536 0.806214 -0.548914
O3    O     O_R   0.500010 0.319680 0.381230 -0.433393
O4    O     O_R   0.319640 0.499980 0.618820 -0.376458
O5    O     O_R   0.319650 0.500020 0.381230 -0.538258
O6    O     O_R   0.499990 0.680320 0.618770 -0.504476
O7    O     O_R   0.500000 0.680360 0.381190 -0.455927
O8    O     O_R   0.680350 0.499980 0.618770 -0.503998
O9    O     O_R   0.680360 0.500020 0.381180 -0.517125
O10   O     O_3   0.814584 0.612417 0.863786 -0.548439

loop_
_geom_bond_atom_site_label_1
_geom_bond_atom_site_label_2
_ccdc_geom_bond_type
Cu1   O4    S    
C12   C17   A    
C26   H4    S    
C6    C7    S    
C9    N1    A    
C19   H2    S    
C1    O1    A    
Cu1   N2    S    
C5    C28   A    
C10   N2    A    
C9    C10   A    
C6    O2    S    
Cu2   N1    S    
C19   C20   A    
Cu1   O6    S    
C2    C30   A    
C24   H10   S    
C7    H12   S    
Cu1   O1    S    
C16   C27   S    
C1    C29   S    
C2    C3    A    
C21   C27   A    
C3    C5    A    
C4    O5    A    
C13   C14   S    
C11   C13   S    
C12   C23   A    
C4    O4    A    
C26   C27   A    
C22   H6    S    
C30   F3    S    
C8    C11   A    
C24   H9    S    
C12   C21   A    
C8    N1    A    
C28   C29   A    
C15   O6    A    
Cu2   O5    S    
C17   C18   A    
C10   F1    S    
C13   O10   S    
C23   C25   A    
C5    C6    S    
C24   H8    S    
C22   H5    S    
C6    H11   S    
C18   H18   S    
C29   C30   A    
Cu2   O3    S    
C14   H17   S    
C3    C15   S    
C20   C21   A    
C7    H13   S    
C24   O2    S    
C18   C19   A    
C17   F2    S    
C2    F4    S    
C1    O3    A    
C20   H3    S    
C4    C23   S    
C15   O7    A    
C22   O10   S    
C8    C14   S    
C16   O9    A    
C16   O8    A    
C7    C28   S    
C25   H1    S    
C25   C26   A    
C13   H15   S    
Cu1   O8    S    
C22   H7    S    
C14   H16   S    
C11   N2    A    
Cu1   Cu2   S    
Cu2   O7    S    
Cu2   O9    S    
C9    H14   S    
