data_mof_unit_24672.cif
_audit_creation_date              2013-03-05T15:53:17-0500
_audit_creation_method            fapswitch 2.2
_symmetry_space_group_name_H-M    P1
_symmetry_Int_Tables_number       1
_space_group_crystal_system       triclinic
_cell_length_a                    11.51322
_cell_length_b                    10.798396
_cell_length_c                    9.973018
_cell_angle_alpha                 88.514735
_cell_angle_beta                  88.068916
_cell_angle_gamma                 94.260107
_cell_volume                      1235.25805782

loop_
_atom_site_label
_atom_site_type_symbol
_atom_site_description
_atom_site_fract_x
_atom_site_fract_y
_atom_site_fract_z
_atom_type_partial_charge
O1    O     O_R   0.500000 0.316780 0.614690 -0.622266
O2    O     O_R   0.499990 0.316750 0.385360 -0.640231
C1    C     C_R   0.511088 0.262024 0.502425 0.985939
O3    O     O_R   0.334450 0.500030 0.614670 -0.564009
O4    O     O_R   0.334440 0.500000 0.385330 -0.644040
C2    C     C_R   0.282298 0.501394 0.501525 0.939852
Zn1   Zn    Zn3+2 0.500010 0.500020 0.653130 0.995075
Zn2   Zn    Zn3+2 0.499990 0.499980 0.346870 1.024848
O5    O     O_R   0.500010 0.683250 0.614640 -0.651411
O6    O     O_R   0.500000 0.683220 0.385310 -0.519276
O7    O     O_R   0.665560 0.500000 0.614670 -0.624676
O8    O     O_R   0.665550 0.499970 0.385330 -0.598681
C3    C     C_R   0.499267 0.740647 0.498714 0.922139
C4    C     C_R   0.717886 0.500967 0.498123 0.903976
C5    C     C_1   0.161718 0.502280 0.503698 -0.056408
C6    C     C_1   0.059494 0.502449 0.501357 0.076812
C7    C     C_1   0.940876 0.502123 0.496899 0.049582
C8    C     C_1   0.838573 0.501605 0.495065 -0.125336
H1    H     H_    0.574283 0.130372 0.298831 0.209170
C9    C     C_R   0.535325 0.109471 0.759640 -0.132593
H2    H     H_    0.582317 0.198320 0.773285 0.164553
C10   C     C_R   0.498833 0.040007 0.875166 -0.095353
H3    H     H_    0.512741 0.077980 0.973232 0.174683
C11   C     C_R   0.437484 0.925337 0.863533 -0.000894
H4    H     H_    0.399230 0.875748 0.951729 0.205816
C12   C     C_R   0.423964 0.875016 0.737315 -0.084858
H5    H     H_    0.370253 0.788922 0.732549 0.169561
C13   C     C_R   0.479010 0.935625 0.621356 0.031380
C14   C     C_R   0.516084 0.061107 0.630722 0.134602
C15   C     C_R   0.531115 0.131938 0.509628 -0.186886
C16   C     C_R   0.552832 0.074829 0.389523 -0.218631
C17   C     C_R   0.550627 0.947644 0.385164 0.485073
C18   C     C_R   0.503682 0.875647 0.498663 -0.276064
H6    H     H_    0.635733 0.639305 0.113049 0.197349
C19   C     C_R   0.360694 0.323097 0.158086 -0.267084
H7    H     H_    0.347379 0.331082 0.262489 0.270564
C20   C     C_R   0.303148 0.220415 0.105168 0.284515
C21   C     C_R   0.292813 0.216040 0.967453 0.112138
C22   C     C_R   0.344672 0.314805 0.883768 0.163205
C23   C     C_R   0.426321 0.410322 0.935622 0.001322
C24   C     C_R   0.429440 0.412026 0.079698 0.069583
N1    N     N_R   0.498930 0.498800 0.142780 -0.101374
C25   C     C_R   0.573197 0.577834 0.065292 0.011012
H8    H     H_    0.630933 0.645064 0.865824 0.161424
C26   C     C_R   0.571933 0.579520 0.923120 -0.088566
N2    N     N_R   0.498900 0.498720 0.857170 -0.111756
N3    N     N_R   0.205473 0.129293 0.915593 0.288544
O9    O     O_R   0.096033 0.138440 0.947815 -0.256470
O10   O     O_R   0.232398 0.053767 0.822098 -0.342724
N4    N     N_R   0.275899 0.337141 0.772161 0.258505
O11   O     O_R   0.184609 0.399372 0.793308 -0.367880
O12   O     O_R   0.274864 0.260695 0.673256 -0.330903
S1    S     S_3+6 0.614593 0.887913 0.238830 0.012387
O13   O     O_2   0.520126 0.826301 0.158162 -0.321901
O14   O     O_2   0.678166 0.990466 0.154170 -0.317105
O15   O     O_3   0.710121 0.785225 0.284548 -0.570386
H9    H     H_    0.774136 0.794350 0.215311 0.385473
S2    S     S_3+6 0.232477 0.104954 0.215521 0.073333
O16   O     O_2   0.104966 0.125444 0.228555 -0.203841
O17   O     O_2   0.246902 0.978588 0.160202 -0.274106
O18   O     O_3   0.289269 0.112686 0.368399 -0.562400
H10   H     H_    0.256437 0.036497 0.417662 0.395694

loop_
_geom_bond_atom_site_label_1
_geom_bond_atom_site_label_2
_geom_bond_distance
_ccdc_geom_bond_type
C7    C8    1.178205 T    
C1    C15   1.440695 S    
N4    O12   1.302334 A    
C3    C18   1.454882 S    
C14   C15   1.411302 A    
O4    Zn2   1.931530 S    
C24   N1    1.366375 A    
C4    C8    1.388301 S    
C20   S2    1.773572 S    
C12   C13   1.420255 A    
N3    O9    1.301341 A    
O8    C4    1.293794 A    
Zn2   O8    1.956973 S    
H1    C16   1.083332 S    
C17   C18   1.424265 A    
S2    O18   1.680696 S    
N4    O11   1.303110 A    
C21   N3    1.440945 S    
N3    O10   1.299296 A    
O1    Zn1   2.025218 S    
S1    O13   1.500660 D    
C9    H2    1.079965 S    
Zn1   O7    1.931527 S    
C25   C26   1.418114 A    
C11   C12   1.392875 A    
C12   H5    1.080656 S    
O18   H10   0.990686 S    
O3    Zn1   1.956976 S    
O4    C2    1.287957 A    
O3    C2    1.296200 A    
C23   C24   1.439089 A    
C19   C20   1.375384 A    
C20   C21   1.384285 A    
C9    C10   1.393690 A    
C13   C18   1.429127 A    
O2    C1    1.309230 A    
C9    C14   1.418336 A    
S1    O14   1.504791 D    
C15   C16   1.385130 A    
C19   C24   1.402223 A    
O7    C4    1.290459 A    
C10   C11   1.388752 A    
S2    O16   1.502653 D    
H8    C26   1.081809 S    
N1    C25   1.367314 A    
C23   N2    1.421376 A    
S2    O17   1.503483 D    
C5    C6    1.178088 T    
Zn1   N2    2.034182 S    
Zn1   O5    2.005691 S    
C17   S1    1.770644 S    
C22   N4    1.413450 S    
C21   C22   1.419904 A    
C11   H4    1.081117 S    
Zn2   O6    2.025217 S    
S1    O15   1.684007 S    
C22   C23   1.459916 A    
O15   H9    0.990490 S    
O5    C3    1.298139 A    
C10   H3    1.082542 S    
C13   C14   1.396527 A    
C2    C5    1.388446 S    
C26   N2    1.363424 A    
O6    C3    1.303926 A    
O2    Zn2   2.005691 S    
H6    C25   1.074395 S    
C16   C17   1.373576 A    
Zn2   N1    2.036205 S    
C6    C7    1.367634 S    
O1    C1    1.286603 A    
C19   H7    1.054003 S    
