data_mof_unit_66060.cif
_audit_creation_date              2013-03-05T16:14:05-0500
_audit_creation_method            fapswitch 2.2
_symmetry_space_group_name_H-M    P1
_symmetry_Int_Tables_number       1
_space_group_crystal_system       triclinic
_cell_length_a                    27.772554
_cell_length_b                    14.681777
_cell_length_c                    15.928395
_cell_angle_alpha                 89.914022
_cell_angle_beta                  89.979464
_cell_angle_gamma                 90.11743
_cell_volume                      6494.78876425

loop_
_atom_site_label
_atom_site_type_symbol
_atom_site_description
_atom_site_fract_x
_atom_site_fract_y
_atom_site_fract_z
_atom_type_partial_charge
O1    O     O_R   0.500050 0.424030 0.620640 -0.573152
O2    O     O_R   0.500050 0.575970 0.620640 -0.560646
C1    C     C_R   0.500071 0.499936 0.660094 0.826216
O3    O     O_R   0.569790 0.424080 0.500060 -0.540406
O4    O     O_R   0.569790 0.575920 0.500060 -0.539692
C2    C     C_R   0.592750 0.500069 0.499894 0.954477
Cu1   Cu    Cu3+1 0.500060 0.410080 0.500090 1.133685
Cu2   Cu    Cu3+1 0.500060 0.589920 0.500090 1.143068
O5    O     O_R   0.500050 0.424100 0.379510 -0.556117
O6    O     O_R   0.500050 0.575900 0.379510 -0.556132
O7    O     O_R   0.430320 0.424060 0.500090 -0.539611
O8    O     O_R   0.430320 0.575940 0.500090 -0.531439
C3    C     C_R   0.500054 0.500044 0.340066 0.826892
C4    C     C_R   0.407236 0.499878 0.499735 0.905946
C5    C     C_R   0.821497 0.442974 0.556521 0.717595
O9    O     O_2   0.795009 0.396355 0.613228 -0.402645
N1    N     N_R   0.798482 0.496399 0.499134 -0.431284
C6    C     C_R   0.823086 0.546566 0.441055 0.706296
C7    C     C_R   0.721620 0.441392 0.443364 0.337429
C8    C     C_R   0.670747 0.441236 0.444037 0.171054
C9    C     C_R   0.671553 0.558378 0.553682 0.172031
C10   C     C_R   0.722448 0.556385 0.554011 0.342526
C11   C     C_R   0.746772 0.498277 0.498732 0.179050
C12   C     C_R   0.898447 0.488609 0.497141 -0.160111
C13   C     C_R   0.872193 0.436460 0.556335 -0.103658
C14   C     C_R   0.896762 0.375979 0.610601 0.388087
C15   C     C_R   0.873973 0.545881 0.439633 -0.157764
C16   C     C_R   0.645788 0.500049 0.499132 -0.317347
C17   C     C_R   0.354036 0.499315 0.498436 -0.153897
C18   C     C_R   0.024896 0.446491 0.563792 0.080020
C19   C     C_R   0.025160 0.507935 0.421401 -0.067135
C20   C     C_R   0.050527 0.477965 0.492864 0.032052
C21   C     C_R   0.050272 0.433452 0.639178 -0.198172
C22   C     C_R   0.100635 0.439976 0.642658 0.457313
C23   C     C_R   0.126676 0.461703 0.568984 -0.049332
C24   C     C_R   0.101444 0.480884 0.493796 -0.155728
C25   C     C_R   0.126956 0.504207 0.419872 -0.208655
C26   C     C_R   0.177536 0.512434 0.424443 0.656256
N2    N     N_R   0.201293 0.491979 0.497085 -0.449656
C27   C     C_R   0.177372 0.466535 0.568268 0.675180
C28   C     C_R   0.276874 0.569368 0.535027 0.389022
C29   C     C_R   0.327986 0.569758 0.538322 0.232095
C30   C     C_R   0.329297 0.427053 0.458904 0.365727
C31   C     C_R   0.278872 0.425346 0.460351 -0.261639
C32   C     C_R   0.252940 0.495435 0.498148 0.212980
O10   O     O_2   0.202898 0.445844 0.637763 -0.406432
C33   C     C_R   0.974169 0.433933 0.557931 -0.043722
C34   C     C_R   0.949184 0.482647 0.494776 -0.006233
C35   C     C_R   0.975178 0.526442 0.429799 -0.003715
C36   C     C_R   0.947730 0.375295 0.612221 0.201550
H1    H     H_    0.031024 0.422488 0.697202 0.190991
O11   O     O_2   0.797946 0.595662 0.384513 -0.414863
C37   C     C_R   0.900988 0.600600 0.383122 0.241722
C38   C     C_R   0.050618 0.517172 0.344455 0.414203
C39   C     C_R   0.101131 0.517608 0.344069 0.311247
O12   O     O_2   0.203030 0.542550 0.357842 -0.420562
C40   C     C_R   0.951674 0.592445 0.379795 0.326419
H2    H     H_    0.259401 0.369810 0.431099 0.190889
C41   C     C_3   0.477098 0.402990 0.949443 0.489659
C42   C     C_3   0.462322 0.576862 0.948831 0.511371
C43   C     C_3   0.466867 0.586853 0.049366 0.335513
C44   C     C_3   0.470763 0.405498 0.049976 0.391950
C45   C     C_1   0.499024 0.499976 0.250912 0.040183
C46   C     C_3   0.496925 0.498526 0.917014 -0.124734
C47   C     C_3   0.495790 0.498212 0.083182 -0.362649
C48   C     C_3   0.549941 0.503635 0.049887 0.532687
C49   C     C_3   0.549637 0.516545 0.950693 0.576715
C50   C     C_1   0.497602 0.499320 0.175668 0.342635
C51   C     C_1   0.498455 0.499259 0.824557 0.202818
C52   C     C_1   0.499404 0.499721 0.749327 -0.075069
C53   C     C_3   0.498839 0.946255 0.404676 0.661655
C54   C     C_3   0.500422 0.055288 0.402726 0.464711
C55   C     C_3   0.545642 0.945352 0.548666 0.403803
C56   C     C_3   0.544975 0.055665 0.546489 0.503993
N3    N     N_1   0.499020 0.275030 0.498610 -0.124656
N4    N     N_1   0.499020 0.724970 0.498610 -0.122825
C57   C     C_3   0.498966 0.907842 0.498738 -0.412945
C58   C     C_3   0.498820 0.092159 0.496520 -0.380581
C59   C     C_3   0.450763 0.055156 0.540647 0.531867
C60   C     C_3   0.451687 0.945181 0.547013 0.454273
C61   C     C_1   0.498834 0.195416 0.497761 0.411937
C62   C     C_1   0.498900 0.804602 0.498420 0.446987
N5    N     N_R   0.646135 0.617979 0.609588 0.137800
O13   O     O_R   0.616808 0.584697 0.665543 -0.325732
O14   O     O_R   0.651990 0.705737 0.604181 -0.236915
O15   O     O_3   0.748350 0.388018 0.389231 -0.647494
H3    H     H_    0.727355 0.363017 0.344732 0.389350
N6    N     N_R   0.877572 0.665371 0.329575 0.155064
O16   O     O_R   0.861126 0.740975 0.360889 -0.238648
O17   O     O_R   0.878050 0.654038 0.248585 -0.252188
O18   O     O_3   0.027599 0.516358 0.267503 -0.597602
H4    H     H_    0.996107 0.485251 0.273852 0.346283
O19   O     O_3   0.354984 0.359515 0.418471 -0.630872
H5    H     H_    0.332237 0.314481 0.394302 0.374348
N7    N     N_R   0.125420 0.524637 0.264769 0.203239
O20   O     O_R   0.150618 0.456299 0.237171 -0.244019
O21   O     O_R   0.115947 0.592154 0.214449 -0.195137
O22   O     O_3   0.979673 0.652914 0.333954 -0.639242
H6    H     H_    0.959990 0.703913 0.312532 0.388679
N8    N     N_R   0.419704 0.403575 0.078356 0.173047
O23   O     O_R   0.383471 0.424630 0.030425 -0.155322
O24   O     O_R   0.410193 0.378577 0.155121 -0.256565
N9    N     N_R   0.417612 0.595400 0.085125 0.197585
O25   O     O_R   0.388766 0.655896 0.052827 -0.211541
O26   O     O_R   0.408293 0.569351 0.161546 -0.279603
O27   O     O_3   0.432841 0.381773 0.909804 -0.626981
H7    H     H_    0.439005 0.367463 0.849872 0.341861
O28   O     O_3   0.414519 0.553334 0.927126 -0.624202
H8    H     H_    0.410782 0.560108 0.865415 0.357392
O29   O     O_3   0.473360 0.659065 0.906875 -0.621647
H9    H     H_    0.447302 0.703060 0.920003 0.387421
O30   O     O_3   0.510946 0.335398 0.926825 -0.706079
H10   H     H_    0.493974 0.277362 0.914502 0.401060
O31   O     O_3   0.749943 0.608691 0.607997 -0.642610
H11   H     H_    0.729297 0.634914 0.652332 0.388785
N10   N     N_R   0.492716 0.670664 0.077274 0.186678
O32   O     O_R   0.490785 0.693846 0.156096 -0.250879
O33   O     O_R   0.516505 0.724113 0.026915 -0.188114
N11   N     N_R   0.492499 0.321063 0.085594 0.204894
O34   O     O_R   0.516185 0.321411 0.156087 -0.256562
O35   O     O_R   0.475434 0.242842 0.060980 -0.233343
O36   O     O_3   0.583609 0.460728 0.908220 -0.680406
H12   H     H_    0.585494 0.399154 0.932637 0.398553
O37   O     O_3   0.561978 0.607227 0.930605 -0.581916
H13   H     H_    0.597587 0.613334 0.932138 0.380001
O38   O     O_3   0.574217 0.423099 0.073173 -0.655304
H14   H     H_    0.609379 0.432039 0.065470 0.355529
O39   O     O_3   0.573395 0.577838 0.089373 -0.632491
H15   H     H_    0.607598 0.578989 0.071376 0.346782
O40   O     O_3   0.542081 0.085366 0.360183 -0.635896
H16   H     H_    0.542037 0.152898 0.357772 0.365546
O41   O     O_3   0.537002 0.907276 0.358115 -0.615713
H17   H     H_    0.567550 0.938696 0.370891 0.404396
O42   O     O_3   0.542456 0.917735 0.633564 -0.602826
H18   H     H_    0.546529 0.850586 0.636307 0.362766
O43   O     O_3   0.540881 0.087310 0.630014 -0.570700
H19   H     H_    0.571631 0.074040 0.659458 0.396346
N12   N     N_R   0.592271 0.907745 0.519078 0.133791
O44   O     O_R   0.594254 0.833014 0.475379 -0.297661
O45   O     O_R   0.631018 0.930466 0.560206 -0.191885
N13   N     N_R   0.589570 0.097916 0.511398 0.128408
O46   O     O_R   0.614514 0.061545 0.450973 -0.231447
O47   O     O_R   0.603524 0.177006 0.539369 -0.264839
N14   N     N_R   0.405483 0.904501 0.518367 0.169666
O48   O     O_R   0.403836 0.831906 0.471690 -0.259257
O49   O     O_R   0.366330 0.926506 0.558538 -0.250961
N15   N     N_R   0.407706 0.092220 0.496437 0.125228
O50   O     O_R   0.385526 0.048756 0.436584 -0.198758
O51   O     O_R   0.392632 0.173704 0.514941 -0.295472
O52   O     O_3   0.454903 0.921698 0.632875 -0.615726
H20   H     H_    0.451583 0.854520 0.637968 0.348629
O53   O     O_3   0.449548 0.090982 0.622972 -0.582910
H21   H     H_    0.417679 0.075826 0.647780 0.388449
O54   O     O_3   0.456074 0.917005 0.365570 -0.576303
H22   H     H_    0.459660 0.926119 0.304042 0.419619
O55   O     O_3   0.460811 0.087501 0.355754 -0.603585
H23   H     H_    0.462521 0.154885 0.351948 0.355160
O56   O     O_3   0.870192 0.316364 0.659619 -0.600356
H24   H     H_    0.889257 0.261027 0.671523 0.384673
O57   O     O_3   0.353213 0.635387 0.582329 -0.669564
H25   H     H_    0.332694 0.658671 0.628354 0.358029
O58   O     O_3   0.249273 0.640010 0.565683 -0.664095
H26   H     H_    0.268433 0.696899 0.563320 0.366935
O59   O     O_3   0.124610 0.426425 0.717726 -0.611966
H27   H     H_    0.101115 0.410929 0.762443 0.357487
N16   N     N_R   0.972025 0.308381 0.662624 0.098550
O60   O     O_R   0.964347 0.304049 0.743163 -0.288294
O61   O     O_R   0.001696 0.251216 0.627879 -0.288120
N17   N     N_R   0.644520 0.382728 0.388117 0.138940
O62   O     O_R   0.615396 0.417240 0.332629 -0.329854
O63   O     O_R   0.649348 0.294760 0.393172 -0.230932

loop_
_geom_bond_atom_site_label_1
_geom_bond_atom_site_label_2
_geom_bond_distance
_ccdc_geom_bond_type
C28   C29   1.420505 A    
O19   H5    0.991817 S    
C54   O55   1.412563 S    
C17   C29   1.414708 A    
C55   C56   1.620064 S    
C7    C11   1.401243 A    
N7    O20   1.301386 A    
C12   C15   1.417236 A    
C7    O15   1.382969 S    
O39   H15   0.992221 S    
O31   H11   0.988512 S    
C6    O11   1.348622 S    
Cu1   Cu2   2.640369 S    
N10   O32   1.302425 A    
Cu1   O7    1.948124 S    
C41   C46   1.591185 S    
O38   H14   0.992601 S    
N5    O13   1.301156 A    
C20   C24   1.414749 A    
C24   C25   1.415246 A    
C43   N9    1.487203 S    
C22   O59   1.383122 S    
N13   O47   1.302622 A    
O4    C2    1.284410 A    
O7    C4    1.285706 A    
C5    C13   1.411408 A    
C55   N12   1.485679 S    
C5    O9    1.349472 S    
Cu2   N4    1.983148 S    
C35   C40   1.414265 A    
O28   H8    0.993323 S    
C5    N1    1.363690 A    
C22   C23   1.413962 A    
N17   O62   1.301161 A    
O5    C3    1.278996 A    
O29   H9    0.993435 S    
C54   C58   1.590440 S    
N15   O50   1.302384 A    
C30   O19   1.382548 S    
C53   O41   1.415665 S    
C38   C39   1.402896 A    
N7    O21   1.301188 A    
C2    C16   1.473044 S    
C7    C8    1.412924 A    
C31   H2    1.083449 S    
O41   H17   0.986305 S    
C60   N14   1.486492 S    
C56   O43   1.414490 S    
C36   N16   1.437248 S    
C42   O28   1.414286 S    
N2    C32   1.435263 S    
C8    N17   1.435962 S    
C9    C10   1.413839 A    
C17   C30   1.411905 A    
N16   O61   1.301398 A    
N17   O63   1.301105 A    
O59   H27   0.991699 S    
N16   O60   1.301818 A    
C19   C35   1.421327 A    
O3    Cu1   1.947039 S    
O30   H10   0.992802 S    
C41   O30   1.415248 S    
C33   C36   1.422252 A    
N11   O35   1.302489 A    
C29   O57   1.382127 S    
C41   O27   1.416347 S    
N2    C27   1.365162 A    
C12   C34   1.412495 A    
C46   C49   1.581261 S    
C9    N5    1.435784 S    
C18   C33   1.423595 A    
C1    C52   1.421451 S    
C48   C49   1.591075 S    
C12   C13   1.414877 A    
N14   O49   1.302976 A    
N4    C62   1.169158 T    
O18   H4    0.990915 S    
C37   C40   1.413972 A    
C58   C59   1.601775 S    
N3    C61   1.168970 T    
Cu1   N3    1.983101 S    
C8    C16   1.414393 A    
C13   C14   1.414869 A    
C53   O54   1.407922 S    
C48   O38   1.411517 S    
C42   C43   1.613257 S    
O1    C1    1.280231 A    
C23   C24   1.416003 A    
C60   O52   1.412840 S    
C30   C31   1.400779 A    
C25   C26   1.411579 A    
O40   H16   0.992181 S    
C33   C34   1.416100 A    
C3    C45   1.420385 S    
Cu2   O8    1.947287 S    
C47   C50   1.474159 S    
C43   N10   1.491761 S    
N8    O24   1.302930 A    
N1    C6    1.364066 A    
O54   H22   0.993874 S    
C26   O12   1.348692 S    
N9    O26   1.301144 A    
N14   O48   1.301170 A    
N1    C11   1.436459 S    
C46   C51   1.473307 S    
N6    O16   1.301190 A    
C44   N11   1.491375 S    
N12   O45   1.303131 A    
N10   O33   1.300504 A    
C44   N8    1.488390 S    
C39   N7    1.435230 S    
C34   C35   1.414691 A    
N5    O14   1.301061 A    
C56   N13   1.492142 S    
N6    O17   1.301039 A    
C47   C48   1.596298 S    
C56   C58   1.601870 S    
O56   H24   0.988805 S    
O3    C2    1.283895 A    
C27   O10   1.349299 S    
C4    C17   1.477647 S    
C49   O36   1.422600 S    
C53   C57   1.600096 S    
C31   C32   1.394504 A    
O15   H3    0.988582 S    
O58   H26   0.990088 S    
C57   C60   1.618453 S    
Cu1   O5    1.931339 S    
C45   C50   1.199229 T    
O55   H23   0.992108 S    
C41   C44   1.611397 S    
C28   C32   1.401563 A    
C18   C21   1.405561 A    
N15   O51   1.302438 A    
O1    Cu1   1.931366 S    
C9    C16   1.414408 A    
C19   C20   1.409259 A    
O2    Cu2   1.930754 S    
C6    C15   1.413489 A    
O8    C4    1.286557 A    
O43   H19   0.993955 S    
O6    C3    1.279515 A    
O4    Cu2   1.947877 S    
C59   N15   1.491347 S    
N11   O34   1.301556 A    
C15   C37   1.418954 A    
C54   O40   1.410402 S    
O42   H18   0.993466 S    
C21   H1    1.079224 S    
O52   H20   0.993593 S    
C42   C46   1.583996 S    
O57   H25   0.990093 S    
C14   C36   1.415820 A    
C23   C27   1.409642 A    
C38   O18   1.382683 S    
N13   O46   1.301534 A    
C18   C20   1.411787 A    
C58   C61   1.516154 S    
C26   N2    1.365519 A    
C57   C62   1.515753 S    
C40   O22   1.385940 S    
N8    O23   1.300835 A    
C44   C47   1.616866 S    
C21   C22   1.402924 A    
C14   O56   1.383872 S    
C37   N6    1.433605 S    
C19   C38   1.420885 A    
C51   C52   1.198590 T    
C42   O29   1.411758 S    
N12   O44   1.301491 A    
C59   C60   1.617905 S    
C25   C39   1.418277 A    
C43   C47   1.622186 S    
C10   O31   1.382880 S    
C53   C54   1.601570 S    
C55   O42   1.413882 S    
Cu2   O6    1.931953 S    
O22   H6    0.988388 S    
O27   H7    0.992670 S    
N9    O25   1.302753 A    
C55   C57   1.617179 S    
C10   C11   1.401305 A    
C59   O53   1.414014 S    
O2    C1    1.280226 A    
O53   H21   0.993854 S    
O36   H12   0.985091 S    
C28   O58   1.380657 S    
C48   O39   1.416397 S    
O37   H13   0.993153 S    
C49   O37   1.410375 S    
