data_mof_unit_51373.cif
_audit_creation_date              2013-03-05T15:55:05-0500
_audit_creation_method            fapswitch 2.2
_symmetry_space_group_name_H-M    P1
_symmetry_Int_Tables_number       1
_space_group_crystal_system       triclinic
_cell_length_a                    14.852558
_cell_length_b                    14.904109
_cell_length_c                    15.044482
_cell_angle_alpha                 109.545679
_cell_angle_beta                  110.526211
_cell_angle_gamma                 109.030724
_cell_volume                      2541.3066498

loop_
_atom_site_label
_atom_site_type_symbol
_atom_site_description
_atom_site_fract_x
_atom_site_fract_y
_atom_site_fract_z
_atom_type_partial_charge
C1    C     C_R   0.201223 0.294807 0.194458 -0.155770
H1    H     H_    0.154776 0.332298 0.166771 0.111215
N1    N     N_R   0.291070 0.347930 0.293870 -0.043614
C2    C     C_R   0.594919 0.501367 0.802062 -0.140349
H2    H     H_    0.658022 0.479997 0.830715 0.153485
N2    N     N_R   0.554050 0.497220 0.706150 -0.050361
C3    C     C_R   0.432246 0.185460 0.405957 -0.133442
H3    H     H_    0.374019 0.124447 0.320285 0.106652
N3    N     N_R   0.497240 0.291100 0.443210 -0.044567
C4    C     C_R   0.273503 0.531652 0.588239 -0.118159
H4    H     H_    0.294792 0.566800 0.673022 0.093761
N4    N     N_R   0.347890 0.554050 0.556810 -0.042305
C5    C     C_R   0.526571 0.275712 0.590171 -0.016535
H5    H     H_    0.558859 0.296420 0.675005 0.104298
N5    N     N_R   0.554050 0.347900 0.556830 -0.051116
C6    C     C_R   0.182984 0.436447 0.404110 -0.140136
H6    H     H_    0.122399 0.379483 0.318160 0.119232
N6    N     N_R   0.291070 0.497250 0.443190 -0.042932
C7    C     C_R   0.501767 0.591669 0.802706 -0.124433
H7    H     H_    0.476588 0.650487 0.831343 0.086656
N7    N     N_R   0.497240 0.554030 0.706140 -0.041555
C8    C     C_R   0.290446 0.201480 0.193241 -0.105906
N8    N     N_R   0.347890 0.291110 0.293870 -0.046549
C9    C     C_R   0.198130 0.202457 0.128784 0.090763
C10   C     C_R   0.562637 0.559090 0.864314 0.073364
C11   C     C_R   0.449069 0.172313 0.496167 0.076934
C12   C     C_R   0.167838 0.455718 0.493108 0.064315
C13   C     C_R   0.402857 0.706700 0.406777 -0.158222
H8    H     H_    0.338682 0.670269 0.322486 0.103390
N9    N     N_R   0.445950 0.652100 0.443170 -0.041785
C14   C     C_R   0.795522 0.487344 0.592965 -0.012187
H9    H     H_    0.840072 0.505271 0.675909 0.157427
N10   N     N_R   0.708930 0.502750 0.556810 -0.067468
C15   C     C_R   0.566377 0.472880 0.253284 -0.039845
H10   H     H_    0.623258 0.443939 0.248772 0.087631
N11   N     N_R   0.502760 0.445970 0.293860 -0.040147
C16   C     C_R   0.721636 0.813059 0.741804 -0.193220
H11   H     H_    0.696875 0.873295 0.742195 0.142976
N12   N     N_R   0.652110 0.708890 0.706130 -0.061926
C17   C     C_R   0.816958 0.724698 0.752285 0.354849
N13   N     N_R   0.708930 0.652070 0.706130 -0.086561
C18   C     C_R   0.470414 0.561854 0.246815 -0.093104
H12   H     H_    0.436211 0.612896 0.232600 0.093694
N14   N     N_R   0.445950 0.502780 0.293850 -0.045998
C19   C     C_R   0.494391 0.799742 0.589278 -0.118130
H13   H     H_    0.516834 0.851486 0.672531 0.084903
N15   N     N_R   0.502760 0.708900 0.556790 -0.040984
C20   C     C_R   0.705864 0.398096 0.411653 -0.139578
N16   N     N_R   0.652110 0.445950 0.443190 -0.054888
Ni1   Ni    Ni4+2 0.369690 0.500010 0.369700 0.212032
Ni2   Ni    Ni4+2 0.630310 0.499990 0.630300 0.264270
Ni3   Ni    Ni4+2 0.500000 0.369720 0.369720 0.236439
Ni4   Ni    Ni4+2 0.500000 0.630280 0.630280 0.202424
C21   C     C_R   0.432133 0.800553 0.496520 0.096873
C22   C     C_R   0.795670 0.420044 0.504390 0.021392
C23   C     C_R   0.546270 0.543718 0.220402 0.052794
C24   C     C_R   0.827275 0.827668 0.773031 -0.070712
H14   H     H_    0.756238 0.261427 0.983817 0.177522
C25   C     C_R   0.885460 0.386953 0.151620 -0.112788
H15   H     H_    0.896951 0.454380 0.135902 0.157062
C26   C     C_R   0.945134 0.408851 0.258946 -0.197063
C27   C     C_R   0.928341 0.322034 0.280836 0.107341
C28   C     C_R   0.852799 0.213044 0.192905 -0.167764
C29   C     C_R   0.790113 0.191968 0.086760 -0.121985
C30   C     C_R   0.806195 0.278705 0.066092 -0.042926
C31   C     C_R   0.861676 0.320977 0.403856 -0.178746
H16   H     H_    0.780560 0.274621 0.330022 0.127420
C32   C     C_R   0.873944 0.378615 0.505293 0.104360
C33   C     C_R   0.975163 0.419577 0.600902 0.137741
C34   C     C_R   0.067405 0.429698 0.590820 -0.210865
C35   C     C_R   0.061783 0.407571 0.489984 0.045796
C36   C     C_R   0.954548 0.345217 0.392988 0.016860
C37   C     C_R   0.075246 0.557977 0.800073 -0.104521
H17   H     H_    0.131329 0.613775 0.788009 0.139039
C38   C     C_R   0.087947 0.593726 0.904077 -0.057965
H18   H     H_    0.153888 0.675538 0.971529 0.133773
C39   C     C_R   0.014767 0.525030 0.920978 -0.210180
H19   H     H_    0.025507 0.554495 0.002292 0.161225
C40   C     C_R   0.929423 0.418421 0.834562 0.301243
C41   C     C_R   0.916919 0.380696 0.729000 0.202914
C42   C     C_R   0.988998 0.452565 0.711386 -0.122291
C43   C     C_R   0.634118 0.525549 0.016201 0.132346
C44   C     C_R   0.596914 0.587028 0.977347 0.098370
C45   C     C_R   0.577726 0.662340 0.043093 -0.191452
H20   H     H_    0.555023 0.716093 0.019102 0.121216
C46   C     C_R   0.573361 0.658082 0.133181 -0.156256
H21   H     H_    0.547890 0.708884 0.176568 0.122293
C47   C     C_R   0.587095 0.577869 0.156133 0.087836
C48   C     C_R   0.626509 0.518911 0.102406 -0.036549
C49   C     C_3   0.591455 0.398334 0.049105 0.206221
C50   C     C_3   0.602189 0.407024 0.955759 -0.620521
H22   H     H_    0.672177 0.397923 0.952345 0.226672
H23   H     H_    0.522704 0.356940 0.875110 0.227845
C51   C     C_R   0.339486 0.873785 0.392297 0.159279
C52   C     C_R   0.392520 0.877601 0.492003 0.022363
C53   C     C_R   0.422393 0.967973 0.589098 -0.165855
H24   H     H_    0.456064 0.971639 0.667465 0.129765
C54   C     C_R   0.425747 0.062759 0.588586 -0.138034
H25   H     H_    0.461700 0.135660 0.666505 0.134051
C55   C     C_R   0.400155 0.067054 0.491236 0.028533
C56   C     C_R   0.343723 0.967429 0.391842 0.161165
C57   C     C_3   0.355170 0.938212 0.292347 -0.494750
C58   C     C_3   0.349754 0.835657 0.292640 -0.513892
H26   H     H_    0.281951 0.920430 0.219464 0.195405
H27   H     H_    0.437503 0.995316 0.309643 0.216115
H28   H     H_    0.273067 0.759017 0.220328 0.187559
H29   H     H_    0.428708 0.835101 0.309768 0.209175
C59   C     C_R   0.018786 0.128549 0.963120 0.162971
C60   C     C_R   0.118292 0.128795 0.010773 0.032670
C61   C     C_R   0.128725 0.044001 0.946202 -0.153392
H30   H     H_    0.207405 0.045820 0.973207 0.157906
C62   C     C_R   0.032752 0.948360 0.852731 -0.165678
H31   H     H_    0.041764 0.882954 0.806515 0.199834
C63   C     C_R   0.927459 0.935898 0.829207 0.028765
C64   C     C_R   0.923966 0.032741 0.874287 0.227436
C65   C     C_3   0.852515 0.057379 0.916632 -0.524021
C66   C     C_3   0.956247 0.162266 0.013029 -0.488611
H32   H     H_    0.792887 0.072251 0.862725 0.233783
H33   H     H_    0.816123 0.999286 0.941589 0.193351
H34   H     H_    0.957608 0.237577 0.013992 0.233099
H35   H     H_    0.977891 0.163388 0.092168 0.201014
N17   N     N_R   0.904055 0.707091 0.807213 0.211217
O1    O     O_R   0.975792 0.707647 0.776595 -0.479096
O2    O     O_R   0.897528 0.667963 0.871503 -0.429295
H36   H     H_    0.670661 0.337596 0.327061 0.110713
H37   H     H_    0.998857 0.493552 0.325889 0.128939
H38   H     H_    0.835205 0.145253 0.208503 0.129699
H39   H     H_    0.727830 0.108357 0.020721 0.123190
H40   H     H_    0.145113 0.462223 0.664144 0.127874
N18   N     N_R   0.856436 0.349931 0.855541 0.240261
O3    O     O_R   0.826508 0.246169 0.815643 -0.390444
O4    O     O_R   0.827546 0.393874 0.922999 -0.491365
N19   N     N_R   0.830081 0.271801 0.639786 0.255342
O5    O     O_R   0.852942 0.206243 0.581395 -0.376827
O6    O     O_R   0.727467 0.238746 0.614822 -0.384140
H41   H     H_    0.652457 0.380064 0.096322 0.069735
N20   N     N_R   0.476327 0.325087 0.013524 0.257760
O7    O     O_R   0.395744 0.338764 0.961434 -0.383359
O8    O     O_R   0.453696 0.243567 0.032008 -0.430057
H42   H     H_    0.322883 0.150278 0.164289 0.107334

loop_
_geom_bond_atom_site_label_1
_geom_bond_atom_site_label_2
_geom_bond_distance
_ccdc_geom_bond_type
C4    C12   1.405319 A    
C20   C22   1.392024 A    
C31   C32   1.387724 A    
C15   C23   1.378426 A    
C56   C57   1.499900 S    
C37   H17   1.083347 S    
N1    N8    1.376752 A    
C52   C53   1.408584 A    
C62   C63   1.408506 A    
C22   C32   1.481779 S    
C49   C50   1.509832 S    
C3    H3    1.075774 S    
N12   N13   1.376751 A    
C19   H13   1.080671 S    
C65   C66   1.505370 S    
N20   O8    1.300677 A    
C16   H11   1.074498 S    
C3    C11   1.383756 A    
C59   C64   1.378462 A    
C13   H8    1.079613 S    
C7    N7    1.338421 A    
C45   C46   1.400574 A    
C15   H10   1.078264 S    
C46   C47   1.405675 A    
C23   C47   1.449402 S    
N10   N16   1.380202 A    
C64   C65   1.496193 S    
C8    H42   1.081053 S    
C59   C60   1.396395 A    
C57   H27   1.112373 S    
C1    H1    1.080376 S    
C66   H35   1.111716 S    
C61   H30   1.081865 S    
C18   C23   1.393210 A    
C20   H36   1.078938 S    
C31   C36   1.390193 A    
C7    H7    1.080740 S    
C51   C56   1.378898 A    
C32   C33   1.413931 A    
C29   H39   1.082126 S    
C53   C54   1.399959 A    
C14   N10   1.337256 A    
C34   C35   1.405536 A    
N5    Ni2   1.847721 S    
N2    Ni2   1.869278 S    
N4    Ni4   1.830637 S    
N11   Ni3   1.861704 S    
N15   Ni4   1.861291 S    
C26   C27   1.406125 A    
C6    C12   1.386301 A    
C19   N15   1.340532 A    
C31   H16   1.080684 S    
N9    Ni1   1.847721 S    
C25   H15   1.081850 S    
C5    H5    1.079266 S    
C37   C38   1.391878 A    
C33   C34   1.396075 A    
N3    Ni3   1.861293 S    
C18   N14   1.340328 A    
C37   C42   1.405622 A    
C62   H31   1.071672 S    
N1    Ni1   1.847183 S    
C2    C10   1.375475 A    
C39   C40   1.403664 A    
C16   C24   1.386274 A    
C25   C26   1.397976 A    
N9    N15   1.380205 A    
C45   H20   1.081713 S    
C2    N2    1.325137 A    
C66   H34   1.111130 S    
C50   H22   1.107394 S    
C13   C21   1.377158 A    
C46   H21   1.082479 S    
C6    H6    1.074145 S    
C39   H19   1.082973 S    
N2    N7    1.376508 A    
C34   H40   1.080947 S    
C43   C50   1.499590 S    
C28   C29   1.395199 A    
C1    N1    1.327971 A    
N18   O4    1.298831 A    
C38   H18   1.082617 S    
C27   C28   1.407209 A    
C50   H23   1.112592 S    
C49   H41   1.112944 S    
H14   C30   1.080290 S    
C44   C45   1.408161 A    
N16   Ni3   1.830637 S    
C53   H24   1.081068 S    
C27   C36   1.476297 S    
C51   C52   1.399598 A    
C57   H26   1.112002 S    
C38   C39   1.391607 A    
C21   C52   1.460893 S    
C26   H37   1.083262 S    
C4    N4    1.336822 A    
C17   N13   1.345875 A    
C51   C58   1.496939 S    
C54   H25   1.081792 S    
C54   C55   1.407760 A    
C5    N5    1.339414 A    
N19   O5    1.301104 A    
C8    C9    1.382250 A    
C5    C11   1.393995 A    
N11   N14   1.376506 A    
C18   H12   1.080389 S    
N17   O2    1.300497 A    
C48   C49   1.508792 S    
C49   N20   1.466950 S    
C12   C35   1.478760 S    
N6    Ni1   1.868716 S    
C10   C44   1.450932 S    
N14   Ni1   1.869278 S    
C3    N3    1.328119 A    
C20   N16   1.334842 A    
C17   C24   1.403120 A    
C59   C66   1.490007 S    
C14   H9    1.071872 S    
C9    C60   1.460797 S    
C41   C42   1.415875 A    
C19   C21   1.384287 A    
C63   C64   1.401586 A    
C24   C63   1.473426 S    
N10   Ni2   1.868718 S    
C17   N17   1.428983 S    
N20   O7    1.302467 A    
C65   H33   1.112383 S    
C29   C30   1.394491 A    
C13   N9    1.328038 A    
N18   O3    1.301129 A    
N3    N5    1.380204 A    
C35   C36   1.423815 A    
C16   N12   1.331557 A    
C60   C61   1.405933 A    
C25   C30   1.398032 A    
N7    Ni4   1.861706 S    
C40   N18   1.431995 S    
N8    Ni3   1.830364 S    
N12   Ni4   1.830363 S    
C43   C48   1.373265 A    
C55   C56   1.402511 A    
C65   H32   1.111668 S    
C58   H28   1.112063 S    
C15   N11   1.321914 A    
C57   C58   1.505786 S    
C7    C10   1.382750 A    
C61   C62   1.403291 A    
C33   C42   1.481399 S    
C4    H4    1.078615 S    
C41   N19   1.436097 S    
C40   C41   1.414341 A    
C2    H2    1.081155 S    
C47   C48   1.400071 A    
C1    C9    1.374697 A    
C6    N6    1.333017 A    
C43   C44   1.395953 A    
N4    N6    1.380202 A    
N19   O6    1.300652 A    
C8    N8    1.342418 A    
C58   H29   1.112407 S    
C14   C22   1.375126 A    
N17   O1    1.299411 A    
N13   Ni2   1.847183 S    
C28   H38   1.083354 S    
C11   C55   1.461322 S    
