data_mof_unit_28527.cif
_audit_creation_date              2013-03-05T15:47:11-0500
_audit_creation_method            fapswitch 2.2
_symmetry_space_group_name_H-M    P1
_symmetry_Int_Tables_number       1
_space_group_crystal_system       triclinic
_cell_length_a                    25.971729
_cell_length_b                    25.955262
_cell_length_c                    22.171785
_cell_angle_alpha                 90.084007
_cell_angle_beta                  54.387787
_cell_angle_gamma                 89.885762
_cell_volume                      12150.7163953

loop_
_atom_site_label
_atom_site_type_symbol
_atom_site_description
_atom_site_fract_x
_atom_site_fract_y
_atom_site_fract_z
_atom_type_partial_charge
Zn1   Zn    Zn3+2 0.675940 0.706630 0.561420 1.124268
Zn2   Zn    Zn3+2 0.675940 0.293370 0.561420 1.124917
Zn3   Zn    Zn3+2 0.175940 0.206630 0.561420 1.133857
Zn4   Zn    Zn3+2 0.175940 0.793370 0.561420 1.147749
Zn5   Zn    Zn3+2 0.824100 0.706640 0.438580 1.127494
Zn6   Zn    Zn3+2 0.824100 0.293360 0.438580 1.121435
Zn7   Zn    Zn3+2 0.324100 0.206640 0.438580 1.118362
Zn8   Zn    Zn3+2 0.324100 0.793360 0.438580 1.114512
Zn9   Zn    Zn3+2 0.762690 0.793390 0.561420 1.122768
Zn10  Zn    Zn3+2 0.762690 0.206610 0.561420 1.108484
Zn11  Zn    Zn3+2 0.262690 0.293390 0.561420 1.089254
Zn12  Zn    Zn3+2 0.262690 0.706610 0.561420 1.109745
Zn13  Zn    Zn3+2 0.737340 0.793410 0.438580 1.138083
Zn14  Zn    Zn3+2 0.737340 0.206590 0.438580 1.137908
Zn15  Zn    Zn3+2 0.237340 0.293410 0.438580 1.111569
Zn16  Zn    Zn3+2 0.237340 0.706590 0.438580 1.123611
O1    O     O_3   0.750020 0.750020 0.500000 -0.563579
O2    O     O_3   0.750020 0.249980 0.500000 -0.558331
O3    O     O_3   0.250020 0.250020 0.500000 -0.556535
O4    O     O_3   0.250020 0.749980 0.500000 -0.558162
O5    O     O_R   0.801620 0.780400 0.336030 -0.572051
O6    O     O_R   0.801620 0.219600 0.336030 -0.571538
O7    O     O_R   0.301620 0.280400 0.336030 -0.595103
O8    O     O_R   0.301620 0.719600 0.336030 -0.592111
O9    O     O_R   0.637690 0.719640 0.663960 -0.588816
O10   O     O_R   0.637690 0.280360 0.663960 -0.602015
O11   O     O_R   0.137690 0.219640 0.663960 -0.597466
O12   O     O_R   0.137690 0.780360 0.663960 -0.593471
O13   O     O_R   0.801880 0.634210 0.457010 -0.599670
O14   O     O_R   0.801880 0.365790 0.457010 -0.634298
O15   O     O_R   0.301880 0.134210 0.457010 -0.600161
O16   O     O_R   0.301880 0.865790 0.457010 -0.629857
O17   O     O_R   0.758880 0.865820 0.542990 -0.562980
O18   O     O_R   0.758880 0.134180 0.542990 -0.598700
O19   O     O_R   0.258880 0.365820 0.542990 -0.635376
O20   O     O_R   0.258880 0.634180 0.542990 -0.612846
O21   O     O_R   0.887320 0.719660 0.457020 -0.619402
O22   O     O_R   0.887320 0.280340 0.457020 -0.582900
O23   O     O_R   0.387320 0.219660 0.457020 -0.620452
O24   O     O_R   0.387320 0.780340 0.457020 -0.586565
O25   O     O_R   0.655700 0.780390 0.457010 -0.602874
O26   O     O_R   0.655700 0.219610 0.457010 -0.618686
O27   O     O_R   0.155700 0.280390 0.457010 -0.638075
O28   O     O_R   0.155700 0.719610 0.457010 -0.597598
O29   O     O_R   0.844330 0.780370 0.542990 -0.608682
O30   O     O_R   0.844330 0.219630 0.542990 -0.622484
O31   O     O_R   0.344330 0.280370 0.542990 -0.625884
O32   O     O_R   0.344330 0.719630 0.542990 -0.618487
O33   O     O_R   0.612730 0.719660 0.542980 -0.590389
O34   O     O_R   0.612730 0.280340 0.542980 -0.590398
O35   O     O_R   0.112730 0.219660 0.542980 -0.581774
O36   O     O_R   0.112730 0.780340 0.542980 -0.590966
O37   O     O_R   0.698180 0.634210 0.542990 -0.605417
O38   O     O_R   0.698180 0.365790 0.542990 -0.584758
O39   O     O_R   0.198180 0.134210 0.542990 -0.603563
O40   O     O_R   0.198180 0.865790 0.542990 -0.593320
O41   O     O_R   0.741140 0.865830 0.457010 -0.610005
O42   O     O_R   0.741140 0.134170 0.457010 -0.597630
O43   O     O_R   0.241140 0.365830 0.457010 -0.597418
O44   O     O_R   0.241140 0.634170 0.457010 -0.624396
O45   O     O_R   0.862350 0.719680 0.336040 -0.592822
O46   O     O_R   0.862350 0.280320 0.336040 -0.603714
O47   O     O_R   0.362350 0.219680 0.336040 -0.591559
O48   O     O_R   0.362350 0.780320 0.336040 -0.615658
O49   O     O_R   0.698410 0.780360 0.663970 -0.609242
O50   O     O_R   0.698410 0.219640 0.663970 -0.624394
O51   O     O_R   0.198410 0.280360 0.663970 -0.617321
O52   O     O_R   0.198410 0.719640 0.663970 -0.617253
C1    C     C_R   0.849322 0.749957 0.301205 0.895899
C2    C     C_R   0.849262 0.249942 0.301244 0.888328
C3    C     C_R   0.349391 0.250058 0.301224 0.861867
C4    C     C_R   0.349292 0.749897 0.301253 0.889428
C5    C     C_R   0.650691 0.750096 0.698806 0.830465
C6    C     C_R   0.650631 0.249968 0.698850 0.828114
C7    C     C_R   0.150750 0.250091 0.698790 0.838579
C8    C     C_R   0.150631 0.749954 0.698842 0.839868
C9    C     C_R   0.749300 0.609641 0.498086 0.888898
C10   C     C_R   0.751222 0.390086 0.504265 0.876108
C11   C     C_R   0.249530 0.109944 0.494885 0.908974
C12   C     C_R   0.250023 0.890399 0.502772 0.886813
C13   C     C_R   0.750521 0.890050 0.499687 0.872499
C14   C     C_R   0.750859 0.109941 0.499258 0.898524
C15   C     C_R   0.251068 0.390380 0.499607 0.875099
C16   C     C_R   0.244779 0.609844 0.503731 0.873208
C17   C     C_R   0.888678 0.746989 0.503220 0.894428
C18   C     C_R   0.890947 0.248731 0.498917 0.911423
C19   C     C_R   0.389775 0.249811 0.501030 0.912923
C20   C     C_R   0.389758 0.749677 0.500397 0.940481
C21   C     C_R   0.610608 0.749848 0.498172 0.849793
C22   C     C_R   0.611847 0.251888 0.495810 0.869039
C23   C     C_R   0.108082 0.253201 0.503756 0.872538
C24   C     C_R   0.110177 0.751151 0.499050 0.895937
C25   C     C_R   0.617294 0.758929 0.357397 0.236189
C26   C     C_R   0.593096 0.177954 0.400370 0.282475
C27   C     C_R   0.090482 0.326805 0.410698 0.312422
C28   C     C_R   0.113158 0.739939 0.362097 0.306107
C29   C     C_R   0.625005 0.736536 0.294356 -0.169104
C30   C     C_R   0.572802 0.129218 0.392824 -0.173666
C31   C     C_R   0.107812 0.333073 0.337578 -0.172286
C32   C     C_R   0.115965 0.711257 0.305744 -0.157847
C33   C     C_R   0.573139 0.713861 0.301434 -0.237866
C34   C     C_R   0.508355 0.117180 0.438445 -0.217818
C35   C     C_R   0.074070 0.306415 0.316217 -0.225171
C36   C     C_R   0.064970 0.679540 0.325260 -0.238889
H1    H     H_    0.089074 0.308866 0.259333 0.245808
H2    H     H_    0.069252 0.653145 0.284648 0.248142
H3    H     H_    0.579181 0.695486 0.253739 0.224467
H4    H     H_    0.492982 0.078731 0.436863 0.240621
C37   C     C_R   0.513257 0.714722 0.368913 0.326527
C38   C     C_R   0.463078 0.155107 0.482370 0.331711
C39   C     C_R   0.022634 0.274957 0.366251 0.352247
C40   C     C_R   0.007805 0.682308 0.396173 0.347906
C41   C     C_R   0.505699 0.736398 0.432734 -0.043655
C42   C     C_R   0.483737 0.205891 0.482009 -0.054331
C43   C     C_R   0.005496 0.268867 0.439599 -0.036814
C44   C     C_R   0.001177 0.719614 0.447310 -0.050863
C45   C     C_R   0.560146 0.749611 0.428902 -0.060976
C46   C     C_R   0.547145 0.213079 0.455473 -0.070388
C47   C     C_R   0.048352 0.285992 0.454381 -0.087542
C48   C     C_R   0.056791 0.738372 0.435904 -0.068966
C49   C     C_R   0.554747 0.752659 0.496828 -0.134161
C50   C     C_R   0.560618 0.255236 0.485652 -0.126995
C51   C     C_R   0.048442 0.260268 0.510776 -0.121748
C52   C     C_R   0.053552 0.753433 0.499346 -0.132641
C53   C     C_R   0.494648 0.754951 0.565254 0.259613
C54   C     C_R   0.519752 0.298247 0.514360 0.235956
C55   C     C_R   0.993256 0.235309 0.568288 0.243744
C56   C     C_R   0.993864 0.763512 0.567130 0.240070
C57   C     C_R   0.440148 0.755854 0.566405 -0.149759
C58   C     C_R   0.464312 0.297322 0.517526 -0.166361
C59   C     C_R   0.941552 0.231013 0.564496 -0.169388
C60   C     C_R   0.938300 0.759003 0.570895 -0.152897
C61   C     C_R   0.445960 0.746643 0.499787 -0.128272
C62   C     C_R   0.445131 0.250356 0.503172 -0.130387
C63   C     C_R   0.947510 0.247110 0.499271 -0.129185
C64   C     C_R   0.942275 0.739634 0.508785 -0.136357
C65   C     C_3   0.477076 0.716113 0.956642 0.015856
C66   C     C_3   0.465409 0.244389 0.957014 0.029539
C67   C     C_3   0.966381 0.242169 0.956620 0.018015
C68   C     C_3   0.973328 0.778071 0.956870 0.022277
C69   C     C_3   0.508039 0.812198 0.956496 0.010870
C70   C     C_3   0.555062 0.197037 0.956220 0.006822
C71   C     C_3   0.041145 0.309785 0.956699 0.010747
C72   C     C_3   0.016446 0.686531 0.956024 0.016274
C73   C     C_3   0.474364 0.812091 0.046105 -0.038095
C74   C     C_3   0.518322 0.204849 0.045756 -0.049392
C75   C     C_3   0.006040 0.304017 0.046219 -0.037737
C76   C     C_3   0.982767 0.688083 0.045589 -0.037732
H5    H     H_    0.391129 0.751610 0.050815 0.240852
H6    H     H_    0.415148 0.192034 0.051217 0.236611
H7    H     H_    0.902987 0.292076 0.051341 0.241372
H8    H     H_    0.891903 0.738652 0.051299 0.234654
C77   C     C_1   0.388164 0.750348 0.222344 0.108884
C78   C     C_1   0.388855 0.249988 0.222340 0.116217
C79   C     C_1   0.888657 0.249987 0.222313 0.117023
C80   C     C_1   0.888556 0.749531 0.222289 0.126877
C81   C     C_3   0.533696 0.755052 0.926121 -0.095543
C82   C     C_3   0.537598 0.245250 0.926176 -0.104775
C83   C     C_3   0.036930 0.255163 0.926088 -0.095547
C84   C     C_3   0.034624 0.744472 0.926065 -0.098671
C85   C     C_3   0.428115 0.725113 0.042238 -0.335178
C86   C     C_3   0.424579 0.233777 0.042547 -0.341034
C87   C     C_3   0.922693 0.252851 0.042293 -0.356400
C88   C     C_3   0.925651 0.768734 0.042396 -0.347702
C89   C     C_3   0.462078 0.753032 0.073885 -0.172710
C90   C     C_3   0.464230 0.248330 0.073872 -0.176682
C91   C     C_3   0.964056 0.252111 0.073825 -0.172033
C92   C     C_3   0.962857 0.746941 0.073781 -0.175784
C93   C     C_3   0.528068 0.723928 0.041654 0.105837
C94   C     C_3   0.495617 0.303931 0.041665 0.107123
C95   C     C_3   0.008962 0.201985 0.041277 0.109424
C96   C     C_3   0.024744 0.781845 0.041652 0.121458
C97   C     C_3   0.572170 0.735582 0.955504 -0.462539
C98   C     C_3   0.547484 0.296252 0.955580 -0.450051
C99   C     C_3   0.058781 0.211668 0.955154 -0.459417
C100  C     C_3   0.070271 0.770250 0.955554 -0.461962
C101  C     C_1   0.421253 0.751273 0.155762 0.186591
C102  C     C_1   0.422460 0.249554 0.155767 0.172070
C103  C     C_1   0.922343 0.250582 0.155715 0.181337
C104  C     C_1   0.921849 0.748666 0.155702 0.179800
C105  C     C_1   0.575810 0.752780 0.844378 0.154349
C106  C     C_1   0.577596 0.247614 0.844444 0.156810
C107  C     C_1   0.077564 0.252706 0.844358 0.151223
C108  C     C_1   0.076232 0.746958 0.844361 0.150195
C109  C     C_1   0.610291 0.751311 0.777806 0.040030
C110  C     C_1   0.610779 0.249162 0.777863 0.040436
C111  C     C_1   0.110978 0.251091 0.777782 0.037551
C112  C     C_1   0.110312 0.748722 0.777816 0.035563
H9    H     H_    0.601433 0.701588 0.923034 0.238334
H10   H     H_    0.549303 0.329667 0.923189 0.244671
H11   H     H_    0.069439 0.175797 0.922446 0.237191
H12   H     H_    0.095197 0.805475 0.923225 0.236448
H13   H     H_    0.608091 0.765047 0.941921 0.273234
H14   H     H_    0.595733 0.295352 0.941948 0.280488
H15   H     H_    0.105539 0.222587 0.941593 0.275126
H16   H     H_    0.109612 0.744441 0.941918 0.279074
H17   H     H_    0.497658 0.676840 0.947015 0.227547
H18   H     H_    0.454178 0.283529 0.947434 0.233772
H19   H     H_    0.965458 0.200322 0.946641 0.227266
H20   H     H_    0.989022 0.818865 0.947153 0.232877
C113  C     C_R   0.863506 0.945491 0.378003 0.325620
C114  C     C_R   0.863671 0.053485 0.378312 0.311509
C115  C     C_R   0.298797 0.454561 0.365358 0.338149
C116  C     C_R   0.224760 0.544157 0.403418 0.348957
C117  C     C_R   0.912366 0.972818 0.317370 -0.172312
C118  C     C_R   0.912498 0.025915 0.317554 -0.169198
C119  C     C_R   0.291421 0.477921 0.313879 -0.156632
C120  C     C_R   0.252000 0.520533 0.334159 -0.218883
H21   H     H_    0.953015 0.952562 0.271338 0.226014
H22   H     H_    0.953365 0.045902 0.271834 0.222296
H23   H     H_    0.315148 0.462452 0.258311 0.233020
H24   H     H_    0.242368 0.534880 0.295817 0.216394
C121  C     C_R   0.747076 0.552885 0.497209 -0.172877
C122  C     C_R   0.754237 0.446431 0.511296 -0.171219
C123  C     C_R   0.248996 0.053619 0.485385 -0.170659
C124  C     C_R   0.248713 0.947259 0.506631 -0.185382
C125  C     C_R   0.808695 0.027222 0.438014 -0.048185
C126  C     C_R   0.808746 0.972161 0.438143 -0.044444
C127  C     C_R   0.240328 0.525231 0.451345 -0.049881
C128  C     C_R   0.265161 0.475096 0.438696 -0.041410
C129  C     C_R   0.754144 0.946033 0.497604 -0.113315
C130  C     C_R   0.753892 0.053880 0.496950 -0.119669
C131  C     C_R   0.251972 0.446998 0.500866 -0.104469
C132  C     C_R   0.233116 0.553716 0.510790 -0.097488
C133  C     C_R   0.700751 0.973215 0.555583 -0.102047
C134  C     C_R   0.700620 0.027190 0.555372 -0.104647
C135  C     C_R   0.229603 0.473225 0.568500 -0.115085
C136  C     C_R   0.223265 0.527102 0.572140 -0.115867
C137  C     C_R   0.808928 0.474689 0.456567 -0.087747
C138  C     C_R   0.799713 0.524280 0.439660 -0.067297
C139  C     C_R   0.306038 0.975579 0.470305 -0.080077
C140  C     C_R   0.306449 0.025008 0.444864 -0.049221
C141  C     C_R   0.696330 0.526676 0.560421 0.196665
C142  C     C_R   0.698947 0.473323 0.565788 0.218762
C143  C     C_R   0.190914 0.027065 0.527013 0.199130
C144  C     C_R   0.190853 0.973780 0.535401 0.199747
C145  C     C_R   0.843851 0.543105 0.366604 0.326544
C146  C     C_R   0.872139 0.456180 0.418557 0.316580
C147  C     C_R   0.363793 0.042927 0.379782 0.322224
C148  C     C_R   0.363060 0.956562 0.457177 0.315294
C149  C     C_R   0.904312 0.519437 0.320999 -0.225707
C150  C     C_R   0.920241 0.479103 0.350320 -0.228401
C151  C     C_R   0.421654 0.018734 0.356348 -0.245292
C152  C     C_R   0.421469 0.978914 0.400053 -0.218317
N1    N     N_R   0.489496 0.762260 0.632769 0.221929
O53   O     O_R   0.473810 0.723779 0.677827 -0.230237
O54   O     O_R   0.509222 0.804875 0.643781 -0.358052
N2    N     N_R   0.538132 0.344867 0.532036 0.224310
O55   O     O_R   0.590424 0.367952 0.481409 -0.340071
O56   O     O_R   0.505464 0.361874 0.599983 -0.240156
N3    N     N_R   0.987876 0.217515 0.633171 0.233186
O57   O     O_R   0.972682 0.169940 0.654763 -0.255567
O58   O     O_R   0.996833 0.249285 0.671696 -0.285413
N4    N     N_R   0.989134 0.776243 0.633193 0.228511
O59   O     O_R   0.995340 0.823831 0.646470 -0.213651
O60   O     O_R   0.971554 0.741390 0.683747 -0.312937
C153  C     C_2   0.465054 0.826487 0.931786 0.959762
O61   O     O_2   0.407276 0.826656 0.974313 -0.563709
O62   O     O_R   0.493676 0.838647 0.857136 -0.739304
H25   H     H_    0.461786 0.846784 0.846037 0.392013
C154  C     C_2   0.537727 0.148201 0.931582 0.960087
O63   O     O_2   0.490111 0.122988 0.974046 -0.561049
O64   O     O_R   0.577628 0.132965 0.857113 -0.732176
H26   H     H_    0.562111 0.100883 0.846251 0.380811
C155  C     C_2   0.012477 0.349914 0.932400 0.956533
O65   O     O_2   0.959494 0.368157 0.975114 -0.560846
O66   O     O_R   0.048348 0.365100 0.857935 -0.718995
H27   H     H_    0.025426 0.390990 0.847146 0.397576
C156  C     C_2   0.975608 0.665595 0.931397 0.953254
O67   O     O_2   0.918108 0.661272 0.973988 -0.575414
O68   O     O_R   0.005753 0.652164 0.856769 -0.715487
H28   H     H_    0.975101 0.639541 0.845754 0.392461
C157  C     C_2   0.413519 0.845078 0.086372 0.990755
O69   O     O_2   0.417856 0.891477 0.074612 -0.485467
O70   O     O_R   0.353533 0.823661 0.136493 -0.764944
H29   H     H_    0.318263 0.850208 0.158601 0.397286
C158  C     C_2   0.492232 0.152812 0.085820 1.019150
O71   O     O_2   0.529562 0.118514 0.073803 -0.463954
O72   O     O_R   0.427207 0.143765 0.136033 -0.771161
H30   H     H_    0.417541 0.107844 0.157898 0.411764
C159  C     C_2   0.967118 0.352958 0.086763 1.001119
O73   O     O_2   0.994894 0.393801 0.075205 -0.474278
O74   O     O_R   0.901056 0.352017 0.136929 -0.795131
H31   H     H_    0.882354 0.387106 0.159307 0.383085
C160  C     C_2   0.926598 0.650343 0.085651 1.018874
O75   O     O_2   0.937023 0.604121 0.073436 -0.470324
O76   O     O_R   0.864139 0.667261 0.136164 -0.767423
H32   H     H_    0.832613 0.637897 0.158323 0.396265
N5    N     N_R   0.513536 0.836503 0.067604 0.221616
O77   O     O_R   0.574271 0.843666 0.021359 -0.259011
O78   O     O_R   0.487385 0.848029 0.137007 -0.332777
N6    N     N_R   0.560583 0.222082 0.067011 0.220087
O79   O     O_R   0.615273 0.243728 0.020867 -0.267221
O80   O     O_R   0.540502 0.219282 0.136203 -0.320797
N7    N     N_R   0.050891 0.300060 0.067508 0.218923
O81   O     O_R   0.110277 0.287547 0.021065 -0.265676
O82   O     O_R   0.029473 0.305839 0.136853 -0.310260
N8    N     N_R   0.024764 0.669966 0.066849 0.215755
O83   O     O_R   0.086134 0.667520 0.020551 -0.284953
O84   O     O_R   0.000079 0.659644 0.136167 -0.341454
N9    N     N_R   0.516909 0.667809 0.056119 0.205102
O85   O     O_R   0.481414 0.651218 0.124203 -0.322916
O86   O     O_R   0.547814 0.633734 0.003358 -0.312376
N10   N     N_R   0.446278 0.341448 0.056346 0.201162
O87   O     O_R   0.399462 0.352205 0.124479 -0.314386
O88   O     O_R   0.452211 0.369218 0.003773 -0.309159
N11   N     N_R   0.970379 0.155410 0.055424 0.201760
O89   O     O_R   0.926649 0.141759 0.123410 -0.312331
O90   O     O_R   0.983910 0.123673 0.002480 -0.310957
N12   N     N_R   0.006517 0.837115 0.056409 0.200215
O91   O     O_R   0.968936 0.853531 0.124578 -0.327364
O92   O     O_R   0.033056 0.871381 0.003808 -0.317381
C161  C     C_2   0.390904 0.676646 0.083312 1.059718
O93   O     O_2   0.407885 0.634212 0.053728 -0.518321
O94   O     O_R   0.334842 0.681221 0.154764 -0.755562
H33   H     H_    0.313601 0.646807 0.176486 0.366605
C162  C     C_2   0.358578 0.257719 0.083203 1.080105
O95   O     O_2   0.317239 0.244124 0.146535 -0.586117
O96   O     O_R   0.343809 0.293392 0.048100 -0.708853
H34   H     H_    0.298294 0.305835 0.081384 0.378321
C163  C     C_2   0.863798 0.218918 0.082948 1.087304
O97   O     O_2   0.859459 0.181443 0.052636 -0.497606
O98   O     O_R   0.812793 0.232300 0.154869 -0.738664
H35   H     H_    0.776074 0.207453 0.176078 0.406223
C164  C     C_2   0.883569 0.815672 0.082655 1.072384
O99   O     O_2   0.836400 0.811308 0.146353 -0.534050
O100  O     O_R   0.896540 0.863159 0.046754 -0.707732
H36   H     H_    0.864444 0.890720 0.079760 0.386846
C165  C     C_2   0.561403 0.740174 0.077698 1.049842
O101  O     O_2   0.618281 0.749164 0.039542 -0.531756
O102  O     O_R   0.528187 0.740691 0.154936 -0.745147
H37   H     H_    0.555573 0.751145 0.171755 0.382604
C166  C     C_2   0.526220 0.328107 0.076993 1.051048
O103  O     O_2   0.497068 0.330261 0.144489 -0.537946
O104  O     O_R   0.585614 0.351747 0.032795 -0.730183
H38   H     H_    0.599740 0.367134 0.062987 0.392274
C167  C     C_2   0.043431 0.190245 0.077401 1.037619
O105  O     O_2   0.100047 0.179926 0.039298 -0.539901
O106  O     O_R   0.009299 0.186882 0.154599 -0.724297
H39   H     H_    0.036950 0.177630 0.171534 0.395318
C168  C     C_2   0.060123 0.771896 0.077052 1.040660
O107  O     O_2   0.031277 0.771221 0.144561 -0.570595
O108  O     O_R   0.126259 0.767639 0.032913 -0.738997
H40   H     H_    0.143676 0.762181 0.063173 0.384094
C169  C     C_2   0.642836 0.944892 0.614340 0.955216
O109  O     O_2   0.592364 0.953104 0.623415 -0.544977
O110  O     O_R   0.646089 0.909372 0.659367 -0.734823
H41   H     H_    0.603744 0.892639 0.696943 0.375370
C170  C     C_2   0.644357 0.055836 0.617395 0.958419
O111  O     O_2   0.620123 0.090275 0.604109 -0.614904
O112  O     O_R   0.618999 0.042893 0.690900 -0.730272
H42   H     H_    0.580633 0.064608 0.727861 0.369600
C171  C     C_2   0.209777 0.444932 0.636925 1.003139
O113  O     O_2   0.153622 0.436520 0.684137 -0.569268
O114  O     O_R   0.255404 0.428718 0.647398 -0.694803
H43   H     H_    0.236163 0.409819 0.696026 0.388259
C172  C     C_2   0.200883 0.554749 0.642462 0.990618
O115  O     O_2   0.157513 0.585970 0.668375 -0.562636
O116  O     O_R   0.229129 0.544807 0.679034 -0.722439
H44   H     H_    0.209636 0.565872 0.726157 0.392774
N13   N     N_R   0.654298 0.803720 0.346893 0.235145
O117  O     O_R   0.715548 0.803905 0.299427 -0.284848
O118  O     O_R   0.625788 0.846028 0.382793 -0.326300
N14   N     N_R   0.656970 0.194684 0.345512 0.232860
O119  O     O_R   0.704920 0.165265 0.326456 -0.318561
O120  O     O_R   0.667497 0.241412 0.319720 -0.339376
N15   N     N_R   0.104808 0.366252 0.445460 0.248936
O121  O     O_R   0.134378 0.408195 0.410220 -0.338345
O122  O     O_R   0.076231 0.365931 0.516993 -0.342222
N16   N     N_R   0.164128 0.773832 0.343749 0.207552
O123  O     O_R   0.222627 0.758154 0.301397 -0.335735
O124  O     O_R   0.152048 0.820638 0.369822 -0.363574
N17   N     N_R   0.873437 0.891232 0.378347 0.174112
O125  O     O_R   0.886852 0.863355 0.322067 -0.368752
O126  O     O_R   0.887362 0.873364 0.422034 -0.385715
N18   N     N_R   0.874412 0.107319 0.380348 0.180036
O127  O     O_R   0.885626 0.123644 0.427139 -0.336481
O128  O     O_R   0.890328 0.136185 0.324067 -0.344940
N19   N     N_R   0.345030 0.414031 0.340432 0.212461
O129  O     O_R   0.360899 0.385704 0.283510 -0.300226
O130  O     O_R   0.377967 0.410221 0.367395 -0.366961
N20   N     N_R   0.174291 0.580848 0.428697 0.243103
O131  O     O_R   0.171005 0.607383 0.381248 -0.358451
O132  O     O_R   0.128077 0.584298 0.498899 -0.335099
N21   N     N_R   0.641951 0.553679 0.620226 0.251073
O133  O     O_R   0.632714 0.557044 0.684410 -0.283304
O134  O     O_R   0.597158 0.567700 0.613920 -0.251966
N22   N     N_R   0.646825 0.447284 0.629585 0.255972
O135  O     O_R   0.656218 0.419894 0.671498 -0.316783
O136  O     O_R   0.589527 0.452948 0.648053 -0.223886
N23   N     N_R   0.131883 0.053354 0.556847 0.255729
O137  O     O_R   0.085036 0.048334 0.626441 -0.236960
O138  O     O_R   0.123835 0.080253 0.513421 -0.306402
N24   N     N_R   0.131506 0.947187 0.572906 0.255079
O139  O     O_R   0.103577 0.932874 0.641460 -0.249538
O140  O     O_R   0.101302 0.944019 0.542502 -0.265825
N25   N     N_R   0.824916 0.582223 0.336987 0.208726
O141  O     O_R   0.863886 0.618355 0.294227 -0.337178
O142  O     O_R   0.768138 0.581763 0.352873 -0.381093
N26   N     N_R   0.888321 0.419181 0.453572 0.239538
O143  O     O_R   0.929639 0.382920 0.415033 -0.356625
O144  O     O_R   0.859632 0.420402 0.525083 -0.332443
N27   N     N_R   0.362267 0.080892 0.333393 0.216460
O145  O     O_R   0.405114 0.116714 0.301191 -0.337377
O146  O     O_R   0.316503 0.080811 0.325282 -0.364129
N28   N     N_R   0.360649 0.918535 0.506140 0.229613
O147  O     O_R   0.402922 0.882092 0.480743 -0.339898
O148  O     O_R   0.315363 0.920022 0.576825 -0.326030
C173  C     C_2   0.951130 0.537500 0.243937 1.105909
O149  O     O_2   0.937530 0.537323 0.199600 -0.498526
O150  O     O_R   0.010769 0.554387 0.222054 -0.721617
H45   H     H_    0.038558 0.565354 0.168147 0.399047
C174  C     C_2   0.986636 0.460796 0.309924 1.084440
O151  O     O_2   0.013882 0.443395 0.247062 -0.538853
O152  O     O_R   0.017808 0.463503 0.344197 -0.697791
H46   H     H_    0.062803 0.449920 0.311401 0.376424
C175  C     C_2   0.481818 0.035010 0.286701 1.081103
O153  O     O_2   0.487568 0.032821 0.227946 -0.493377
O154  O     O_R   0.531754 0.052747 0.288261 -0.794695
H47   H     H_    0.570146 0.062695 0.237289 0.388049
C176  C     C_2   0.481758 0.960070 0.385411 1.064162
O155  O     O_2   0.523887 0.943597 0.323996 -0.551000
O156  O     O_R   0.490026 0.960992 0.442325 -0.702350
H48   H     H_    0.532679 0.946670 0.426038 0.391116
C177  C     C_2   0.686124 0.736567 0.219932 1.045319
O157  O     O_2   0.735242 0.726062 0.212953 -0.536922
O158  O     O_R   0.687089 0.745831 0.157168 -0.746376
H49   H     H_    0.731419 0.744051 0.109438 0.390197
C178  C     C_2   0.616704 0.090292 0.337164 1.062993
O159  O     O_2   0.658386 0.103157 0.273620 -0.527231
O160  O     O_R   0.608236 0.038218 0.356690 -0.761131
H50   H     H_    0.640009 0.015086 0.313816 0.377972
C179  C     C_2   0.164645 0.362333 0.279773 1.008648
O161  O     O_2   0.211642 0.363493 0.279959 -0.539054
O162  O     O_R   0.165765 0.386248 0.222542 -0.766011
H51   H     H_    0.207439 0.404178 0.185796 0.376693
C180  C     C_2   0.170772 0.713168 0.226472 1.047311
O163  O     O_2   0.199121 0.753551 0.198882 -0.515195
O164  O     O_R   0.188387 0.668990 0.182302 -0.757956
H52   H     H_    0.225989 0.675102 0.129162 0.380348
N29   N     N_R   0.463113 0.687521 0.373208 0.181264
O165  O     O_R   0.432949 0.651292 0.422228 -0.368332
O166  O     O_R   0.456411 0.691383 0.319621 -0.372415
N30   N     N_R   0.397546 0.140398 0.531726 0.216056
O167  O     O_R   0.361155 0.161855 0.596839 -0.369179
O168  O     O_R   0.376485 0.100653 0.516477 -0.381226
N31   N     N_R   0.996089 0.243050 0.337845 0.210152
O169  O     O_R   0.984890 0.194697 0.356226 -0.325516
O170  O     O_R   0.993739 0.259450 0.284068 -0.311164
N32   N     N_R   0.961676 0.642197 0.418905 0.245957
O171  O     O_R   0.925800 0.627616 0.487904 -0.336181
O172  O     O_R   0.959078 0.616974 0.369967 -0.338775
C181  C     C_2   0.377729 0.768317 0.636818 0.989835
O173  O     O_2   0.343935 0.801621 0.637633 -0.583111
O174  O     O_R   0.357631 0.742064 0.702034 -0.689200
H53   H     H_    0.314444 0.753995 0.745962 0.372487
C182  C     C_2   0.429618 0.346404 0.530921 1.031845
O175  O     O_2   0.404007 0.368628 0.590535 -0.491218
O176  O     O_R   0.425672 0.366651 0.475321 -0.750911
H54   H     H_    0.400137 0.399778 0.491153 0.381427
C183  C     C_2   0.881638 0.210740 0.630599 1.049892
O177  O     O_2   0.848734 0.238235 0.685175 -0.531626
O178  O     O_R   0.863871 0.159913 0.630735 -0.692447
H55   H     H_    0.822202 0.150501 0.678934 0.379719
C184  C     C_2   0.876112 0.770129 0.642222 1.034939
O179  O     O_2   0.832202 0.739919 0.666198 -0.596641
O180  O     O_R   0.868002 0.814797 0.682244 -0.685576
H56   H     H_    0.823739 0.817882 0.729827 0.382993
N33   N     N_R   0.447339 0.717295 0.916536 0.232676
O181  O     O_R   0.479186 0.700736 0.848385 -0.283742
O182  O     O_R   0.386521 0.723832 0.951736 -0.289222
N34   N     N_R   0.450439 0.208899 0.916995 0.230433
O183  O     O_R   0.406361 0.174222 0.952250 -0.280570
O184  O     O_R   0.471202 0.219206 0.848942 -0.329308
N35   N     N_R   0.943704 0.268131 0.916766 0.231721
O185  O     O_R   0.967345 0.254788 0.848694 -0.286455
O186  O     O_R   0.891895 0.295494 0.952180 -0.268984
N36   N     N_R   0.943971 0.770811 0.916908 0.235404
O187  O     O_R   0.884294 0.759171 0.952224 -0.294570
O188  O     O_R   0.973558 0.786944 0.848898 -0.284221
N37   N     N_R   0.558536 0.851787 0.920162 0.267541
O189  O     O_R   0.543179 0.900229 0.936053 -0.230661
O190  O     O_R   0.617833 0.840396 0.870344 -0.316810
N38   N     N_R   0.624128 0.191244 0.919678 0.268572
O191  O     O_R   0.644884 0.151459 0.935437 -0.225689
O192  O     O_R   0.665623 0.223311 0.869808 -0.308035
N39   N     N_R   0.107136 0.327854 0.920309 0.266607
O193  O     O_R   0.116927 0.373434 0.936399 -0.229778
O194  O     O_R   0.156214 0.300830 0.870237 -0.317793
N40   N     N_R   0.071812 0.651165 0.919350 0.268080
O195  O     O_R   0.062813 0.602215 0.934982 -0.240501
O196  O     O_R   0.129317 0.666609 0.869380 -0.330534

loop_
_geom_bond_atom_site_label_1
_geom_bond_atom_site_label_2
_geom_bond_distance
_ccdc_geom_bond_type
C33   H3    1.084149 S    
C31   C35   1.398505 A    
O158  H49   1.014051 S    
C172  O115  1.223455 D    
Zn5   O21   1.939306 S    
C84   C100  1.561559 S    
C177  O157  1.222395 D    
C70   C74   1.638442 S    
C76   N8    1.493442 S    
O23   C19   1.280273 A    
O176  H54   1.013931 S    
C10   C122  1.477547 S    
C167  O105  1.224195 D    
C12   C124  1.477345 S    
N33   O181  1.301237 A    
C40   N32   1.441026 S    
N20   O131  1.301884 A    
C58   C182  1.485161 S    
C114  C125  1.435612 A    
N27   O146  1.301527 A    
C20   C61   1.453820 S    
O42   C14   1.270072 A    
C27   C31   1.417270 A    
O68   H28   1.013871 S    
C129  C133  1.410903 A    
C148  C152  1.417770 A    
O46   C2    1.279494 A    
C182  O175  1.222499 D    
N20   O132  1.301841 A    
N4    O60   1.300701 A    
C53   N1    1.435449 S    
O34   C22   1.290503 A    
C116  C120  1.401726 A    
C151  C175  1.482935 S    
Zn3   O3    1.945855 S    
C147  N27   1.442463 S    
C72   C84   1.601959 S    
C74   C158  1.542269 S    
Zn16  O28   1.940279 S    
O28   C24   1.283482 A    
C72   N40   1.484030 S    
C15   C131  1.470235 S    
C183  O178  1.397887 S    
C67   C83   1.577311 S    
C174  O152  1.398002 S    
C41   C61   1.413878 A    
N1    O53   1.300810 A    
Zn4   O40   1.940493 S    
C146  N26   1.442949 S    
O27   C23   1.270659 A    
C58   C62   1.421747 A    
C70   C82   1.602334 S    
C121  C141  1.421009 A    
C132  C136  1.411030 A    
C99   H15   1.105388 S    
C171  O114  1.397868 S    
N2    O56   1.300866 A    
C89   C93   1.607973 S    
N12   O92   1.302145 A    
C116  C127  1.426565 A    
O178  H55   1.013826 S    
N19   O129  1.301350 A    
C81   C105  1.474922 S    
C91   C95   1.607709 S    
C71   N39   1.484011 S    
C166  O103  1.223076 D    
C69   C153  1.547704 S    
C2    C79   1.422760 S    
C149  C173  1.484156 S    
C71   C155  1.547645 S    
C113  N17   1.432049 S    
N31   O169  1.300248 A    
N31   O170  1.301050 A    
C137  C138  1.399729 A    
O16   C12   1.286308 A    
C135  C136  1.404412 A    
C120  H24   1.082673 S    
Zn12  O4    1.937727 S    
Zn13  O5    1.909387 S    
C66   C86   1.567638 S    
C26   N14   1.440313 S    
C75   C91   1.615434 S    
C57   C61   1.414488 A    
C69   C81   1.602501 S    
Zn6   O14   1.937262 S    
C65   H17   1.111171 S    
C98   H14   1.104974 S    
Zn7   O3    1.938939 S    
C156  O68   1.400326 S    
N28   O148  1.301525 A    
N40   O195  1.302722 A    
O156  H48   1.013829 S    
C154  O64   1.400096 S    
C94   C98   1.581410 S    
C25   N13   1.440151 S    
O25   C21   1.262515 A    
C86   C162  1.526990 S    
C14   C130  1.456264 S    
C47   C51   1.419564 A    
O24   C20   1.278791 A    
N25   O142  1.301509 A    
C68   H20   1.110741 S    
C160  O76   1.399459 S    
C142  N22   1.437551 S    
C96   C168  1.538368 S    
C80   C104  1.200390 T    
C115  C119  1.401180 A    
Zn10  O2    1.937727 S    
Zn11  O19   1.938956 S    
C69   N37   1.484001 S    
C55   C59   1.398129 A    
N24   O139  1.301241 A    
O104  H38   1.013917 S    
Zn4   O4    1.939092 S    
C53   C57   1.400893 A    
C163  O97   1.223607 D    
O116  H44   1.013929 S    
C54   C58   1.400426 A    
C139  C148  1.419955 A    
C143  N23   1.437739 S    
Zn8   O24   1.938374 S    
C153  O62   1.400431 S    
C173  O149  1.222905 D    
C122  C137  1.423894 A    
C33   C37   1.395576 A    
C85   C89   1.586622 S    
N21   O134  1.301253 A    
N32   O172  1.301473 A    
C78   C102  1.200072 T    
C170  O111  1.223273 D    
C89   C101  1.476708 S    
C87   C91   1.586759 S    
O154  H47   1.013733 S    
C32   C36   1.398932 A    
N16   O123  1.300223 A    
N7    O82   1.303393 A    
C178  O159  1.222697 D    
C49   C53   1.408230 A    
Zn12  O52   1.909477 S    
C75   N7    1.493393 S    
O22   C18   1.284034 A    
C154  O63   1.221919 D    
C131  C135  1.424947 A    
C161  O94   1.398671 S    
Zn13  O41   1.937877 S    
O50   C6    1.278397 A    
C96   N12   1.484795 S    
N14   O119  1.301915 A    
C162  O96   1.399476 S    
C149  C150  1.415358 A    
C46   C50   1.428116 A    
C164  O100  1.399440 S    
Zn1   O37   1.937098 S    
Zn2   O34   1.939100 S    
C127  C132  1.424038 A    
Zn3   O39   1.937098 S    
O152  H46   1.013238 S    
N22   O135  1.301454 A    
C180  O164  1.398576 S    
C56   N4    1.434758 S    
Zn6   O22   1.938374 S    
C150  C174  1.482672 S    
C70   C154  1.547409 S    
C141  C142  1.394964 A    
C38   C42   1.422399 A    
C65   N33   1.479163 S    
N10   O88   1.302197 A    
C23   C51   1.474812 S    
C158  O71   1.224128 D    
C119  H23   1.082709 S    
C165  O102  1.398719 S    
C19   C62   1.465945 S    
C25   C45   1.427257 A    
N38   O191  1.302763 A    
C175  O154  1.396336 S    
N18   O128  1.300993 A    
N5    O77   1.300845 A    
C166  O104  1.400478 S    
Zn9   O49   1.911836 S    
C168  O108  1.400571 S    
C77   C101  1.200471 T    
C152  C176  1.483537 S    
C1    C80   1.422467 S    
C87   C163  1.526396 S    
C141  N21   1.434032 S    
C123  C140  1.420405 A    
N34   O183  1.302186 A    
N26   O144  1.301537 A    
C36   C40   1.400778 A    
C159  O74   1.399738 S    
C125  C126  1.429132 A    
C3    C78   1.421916 S    
C44   C48   1.401784 A    
O5    C1    1.278933 A    
N30   O167  1.301583 A    
O26   C22   1.261799 A    
O31   C19   1.266099 A    
C144  N24   1.434187 S    
C39   N31   1.436722 S    
C66   C82   1.578123 S    
C51   C55   1.406284 A    
O160  H50   1.013838 S    
C60   C64   1.411358 A    
N37   O189  1.302729 A    
C42   C62   1.415388 A    
Zn5   O45   1.908805 S    
C35   H1    1.083769 S    
C42   C46   1.402204 A    
C70   N38   1.484147 S    
C155  O66   1.400425 S    
Zn7   O47   1.908805 S    
Zn8   O48   1.906919 S    
C41   C45   1.409461 A    
C31   C179  1.483997 S    
C43   C47   1.403651 A    
N11   O89   1.302702 A    
O51   C7    1.279912 A    
C170  O112  1.398265 S    
C25   C29   1.415164 A    
C40   C44   1.421807 A    
C29   C177  1.480590 S    
O8    C4    1.280502 A    
C126  C129  1.427645 A    
N23   O138  1.301502 A    
Zn7   O23   1.939306 S    
N26   O143  1.301239 A    
C82   C98   1.561116 S    
C5    C109  1.424545 S    
O66   H27   1.013879 S    
C90   C94   1.608388 S    
C36   H2    1.083403 S    
C69   C73   1.639704 S    
C68   C88   1.567114 S    
Zn1   O1    1.945855 S    
C65   C81   1.578240 S    
O40   C12   1.273942 A    
Zn13  O1    1.938186 S    
Zn14  O6    1.911742 S    
Zn3   O11   1.906783 S    
Zn15  O27   1.941959 S    
N7    O81   1.300793 A    
C94   N10   1.484783 S    
N25   O141  1.300625 A    
C68   C84   1.577283 S    
C26   C46   1.429125 A    
C43   C63   1.422144 A    
C28   C32   1.418307 A    
C184  O180  1.397939 S    
O9    C5    1.280195 A    
N36   O187  1.302235 A    
C95   C167  1.539653 S    
C17   C64   1.479301 S    
C18   C63   1.474149 S    
O174  H53   1.013933 S    
O13   C9    1.287521 A    
N39   O193  1.302733 A    
C93   C97   1.583362 S    
C138  C145  1.420784 A    
O18   C14   1.270160 A    
C37   N29   1.436311 S    
O6    C2    1.280758 A    
C128  C131  1.415385 A    
C180  O163  1.222849 D    
C96   C100  1.581438 S    
C91   C103  1.476975 S    
Zn9   O29   1.940283 S    
C174  O151  1.222925 D    
C182  O176  1.398277 S    
Zn11  O31   1.940283 S    
O70   H29   1.013756 S    
C73   C157  1.541619 S    
Zn12  O32   1.941963 S    
Zn13  O25   1.941959 S    
C171  O113  1.222481 D    
C9    C121  1.474909 S    
N3    O57   1.301278 A    
C73   C89   1.614558 S    
Zn15  O3    1.938186 S    
C32   C180  1.484829 S    
N13   O118  1.302118 A    
Zn11  O3    1.936169 S    
C135  C171  1.483591 S    
N8    O84   1.303567 A    
C115  C128  1.425665 A    
C136  C172  1.491089 S    
O43   C15   1.283345 A    
C113  C126  1.436901 A    
N17   O126  1.301054 A    
O11   C7    1.280790 A    
N29   O166  1.301210 A    
Zn5   O1    1.938939 S    
C26   C30   1.417984 A    
C93   C165  1.540211 S    
C151  C152  1.415878 A    
C124  C139  1.419583 A    
C114  N18   1.431182 S    
C94   C166  1.537725 S    
C35   C39   1.401091 A    
C106  C110  1.200938 T    
C181  O174  1.397470 S    
O35   C23   1.285632 A    
C86   C90   1.587219 S    
C60   C184  1.488334 S    
O112  H42   1.013694 S    
C179  O162  1.398442 S    
C140  C147  1.420751 A    
C145  N25   1.442202 S    
C143  C144  1.395644 A    
O32   C20   1.265033 A    
C90   C102  1.476661 S    
C169  O110  1.397985 S    
C116  N20   1.441180 S    
C72   C76   1.639185 S    
C52   C56   1.419232 A    
N33   O182  1.302218 A    
O94   H33   1.013866 S    
C172  O116  1.398201 S    
C156  O67   1.221944 D    
Zn9   O17   1.938956 S    
C177  O158  1.398353 S    
C68   N36   1.479425 S    
C122  C142  1.407824 A    
N40   O196  1.302068 A    
Zn14  O42   1.938658 S    
C167  O106  1.398853 S    
C79   C103  1.200676 T    
N9    O86   1.302147 A    
H6    C86   1.103478 S    
C148  N28   1.442512 S    
C119  C120  1.389798 A    
O7    C3    1.278423 A    
C16   C132  1.478437 S    
C7    C111  1.424042 S    
O110  H41   1.013971 S    
N37   O190  1.302062 A    
Zn3   O35   1.938167 S    
C183  O177  1.222511 D    
O98   H35   1.013702 S    
O37   C9    1.271196 A    
O164  H52   1.014017 S    
N4    O59   1.301236 A    
C107  C111  1.200668 T    
O39   C11   1.284912 A    
O106  H39   1.013877 S    
C88   C92   1.587431 S    
N15   O122  1.302145 A    
C38   N30   1.440407 S    
O47   C3    1.278319 A    
N24   O140  1.300937 A    
C98   H10   1.110255 S    
C39   C43   1.423313 A    
C76   C160  1.541387 S    
N1    O54   1.301011 A    
Zn2   O38   1.940493 S    
C76   C92   1.615403 S    
C133  C169  1.491704 S    
C34   C38   1.399695 A    
O52   C8    1.278163 A    
O12   C8    1.279602 A    
C127  C128  1.404587 A    
N2    O55   1.301265 A    
N21   O133  1.300871 A    
C125  C130  1.428126 A    
N12   O91   1.302695 A    
O19   C15   1.265438 A    
C4    C77   1.422460 S    
Zn15  O43   1.937877 S    
N9    O85   1.302632 A    
N16   O124  1.301423 A    
C71   C83   1.602147 S    
C44   C64   1.426361 A    
C145  C149  1.418012 A    
C13   C129  1.455341 S    
C27   C47   1.425084 A    
Zn6   O46   1.906919 S    
C72   C156  1.547336 S    
O72   H30   1.013825 S    
O100  H36   1.013816 S    
C30   C34   1.397732 A    
C28   N16   1.438856 S    
C161  O93   1.223477 D    
C21   C49   1.470035 S    
C67   C87   1.568333 S    
N14   O120  1.301547 A    
C176  O155  1.222887 D    
C164  O99   1.222426 D    
N3    O58   1.301460 A    
O96   H34   1.013956 S    
C92   C96   1.608084 S    
C88   C164  1.526720 S    
N22   O136  1.301194 A    
O150  H45   1.013734 S    
N28   O147  1.300572 A    
C137  C146  1.421484 A    
C121  C138  1.417729 A    
C81   C97   1.560583 S    
C6    C110  1.424513 S    
C8    C112  1.424241 S    
O108  H40   1.014036 S    
Zn2   O2    1.939092 S    
C165  O101  1.224294 D    
Zn14  O2    1.936628 S    
N27   O145  1.301292 A    
O102  H37   1.013883 S    
C11   C123  1.477962 S    
N38   O192  1.302039 A    
C175  O153  1.223007 D    
N23   O137  1.301184 A    
C117  C118  1.378164 A    
C71   C75   1.639244 S    
C95   N11   1.484502 S    
Zn8   O4    1.945702 S    
Zn4   O36   1.939100 S    
O21   C17   1.262442 A    
N6    O79   1.300911 A    
N19   O130  1.301660 A    
N34   O184  1.301216 A    
C153  O61   1.221897 D    
C59   C63   1.425203 A    
C99   H11   1.110204 S    
C75   C159  1.541693 S    
C67   H19   1.111238 S    
C100  H12   1.110253 S    
N35   O186  1.302162 A    
C130  C134  1.411145 A    
C59   C183  1.481833 S    
O49   C5    1.280782 A    
N30   O168  1.301647 A    
C45   C49   1.430998 A    
C93   N9    1.484343 S    
O10   C6    1.279508 A    
C74   N6    1.493526 S    
O114  H43   1.013837 S    
C163  O98   1.398130 S    
Zn10  O30   1.941963 S    
C34   H4    1.083680 S    
C157  O70   1.400048 S    
C173  O150  1.398149 S    
C155  O65   1.221891 D    
Zn16  O4    1.936628 S    
Zn14  O26   1.940279 S    
Zn15  O7    1.909387 S    
N32   O171  1.301857 A    
C74   C90   1.614799 S    
C176  O156  1.398040 S    
C118  H22   1.083508 S    
Zn1   O9    1.906783 S    
C22   C50   1.475493 S    
C162  O95   1.223198 D    
C115  N19   1.440243 S    
C56   C60   1.401304 A    
Zn4   O12   1.908664 S    
Zn11  O51   1.911836 S    
Zn5   O13   1.940655 S    
C178  O160  1.398079 S    
Zn6   O2    1.945702 S    
Zn7   O15   1.940655 S    
C54   N2    1.436813 S    
Zn8   O16   1.937262 S    
C67   N35   1.479187 S    
C123  C143  1.409618 A    
Zn2   O10   1.908664 S    
N35   O185  1.301254 A    
N39   O194  1.302047 A    
C105  C109  1.200979 T    
C159  O73   1.224113 D    
Zn16  O44   1.938658 S    
C95   C99   1.583942 S    
N6    O80   1.303634 A    
C57   C181  1.489623 S    
C108  C112  1.200790 T    
N11   O90   1.302145 A    
C50   C54   1.408656 A    
O29   C17   1.290664 A    
C92   C104  1.477190 S    
N15   O121  1.300938 A    
O180  H56   1.013873 S    
C117  H21   1.083521 S    
C65   C85   1.568527 S    
C184  O179  1.223394 D    
Zn10  O18   1.938177 S    
C100  H16   1.105010 S    
N36   O188  1.301256 A    
C82   C106  1.474785 S    
C66   N34   1.479091 S    
H8    C88   1.103888 S    
C73   N5    1.493390 S    
C66   H18   1.110794 S    
Zn9   O1    1.936169 S    
N10   O87   1.302560 A    
C24   C52   1.467931 S    
H7    C87   1.102922 S    
C158  O72   1.399781 S    
O76   H32   1.013794 S    
C114  C118  1.392476 A    
O41   C13   1.271692 A    
Zn12  O20   1.938177 S    
O62   H25   1.013883 S    
C134  C170  1.493847 S    
O74   H31   1.013805 S    
N18   O127  1.300656 A    
O45   C1    1.278145 A    
C113  C117  1.392954 A    
C133  C134  1.400962 A    
C28   C48   1.425906 A    
O33   C21   1.292206 A    
C160  O75   1.224034 D    
C85   C161  1.526122 S    
O15   C11   1.275034 A    
C37   C41   1.425156 A    
N13   O117  1.299410 A    
C146  C150  1.417062 A    
O64   H26   1.013706 S    
Zn10  O50   1.909477 S    
N17   O125  1.300772 A    
C97   H13   1.105537 S    
O44   C16   1.263461 A    
N29   O165  1.301361 A    
O17   C13   1.268239 A    
O20   C16   1.288932 A    
C124  C144  1.420268 A    
C97   H9    1.110260 S    
N5    O78   1.303587 A    
O38   C10   1.288494 A    
C55   N3    1.438922 S    
O48   C4    1.279595 A    
C181  O173  1.223252 D    
Zn16  O8    1.911742 S    
O36   C24   1.265025 A    
O162  H51   1.013901 S    
O14   C10   1.271145 A    
H5    C85   1.102795 S    
C147  C151  1.417234 A    
C179  O161  1.223454 D    
N8    O83   1.300841 A    
C139  C140  1.399765 A    
C30   C178  1.482170 S    
C168  O107  1.223162 D    
C83   C99   1.561192 S    
C27   N15   1.453922 S    
C83   C107  1.474372 S    
C169  O109  1.223046 D    
Zn1   O33   1.938167 S    
C84   C108  1.474573 S    
C29   C33   1.393838 A    
C48   C52   1.413843 A    
O30   C18   1.272487 A    
C157  O69   1.224029 D    
