data_mof_unit_53777.cif
_audit_creation_date              2012-12-11T17:34:26-0500
_audit_creation_method            fapswitch 2.2
_symmetry_space_group_name_H-M    P1
_symmetry_Int_Tables_number       1
_space_group_crystal_system       triclinic
_cell_length_a                    23.843301
_cell_length_b                    7.21912
_cell_length_c                    20.630977
_cell_angle_alpha                 89.999972
_cell_angle_beta                  105.207885
_cell_angle_gamma                 89.999989
_cell_volume                      3426.80136295

loop_
_atom_site_label
_atom_site_type_symbol
_atom_type_description
_atom_site_fract_x
_atom_site_fract_y
_atom_site_fract_z
_atom_type_partial_charge
O1    O     O_R   0.449110 0.494310 0.552140 -0.526829
O2    O     O_R   0.550890 0.994310 0.447860 -0.526829
O3    O     O_R   0.440010 0.824420 0.415850 -0.533611
O4    O     O_R   0.559990 0.324420 0.584150 -0.533611
C1    C     C_R   0.425206 0.655592 0.391179 0.805017
C2    C     C_R   0.574794 0.155592 0.608821 0.805017
O5    O     O_R   0.442260 0.824040 0.549660 -0.546801
O6    O     O_R   0.557740 0.324040 0.450340 -0.546801
O7    O     O_R   0.553160 0.993960 0.582620 -0.527808
O8    O     O_R   0.446840 0.493960 0.417380 -0.527808
C3    C     C_R   0.428711 0.655419 0.567716 0.752290
C4    C     C_R   0.571289 0.155419 0.432283 0.752292
O9    O     O_3   0.536380 0.660670 0.510660 -0.378211
O10   O     O_3   0.463620 0.160670 0.489340 -0.378210
V1    V     V_3+5 0.493250 0.935680 0.498020 1.512756
V2    V     V_3+5 0.506750 0.435680 0.501980 1.512757
C5    C     C_R   0.823424 0.910231 0.170744 -0.120449
C6    C     C_R   0.176576 0.410231 0.829256 -0.120450
H1    H     H_    0.806431 0.784115 0.186839 0.110799
H2    H     H_    0.193569 0.284115 0.813161 0.110799
C7    C     C_R   0.862677 0.898371 0.130668 -0.157965
C8    C     C_R   0.137322 0.398371 0.869332 -0.157965
H3    H     H_    0.875043 0.762566 0.116920 0.122977
H4    H     H_    0.124956 0.262565 0.883080 0.122977
C9    C     C_R   0.885836 0.059824 0.109143 -0.053443
C10   C     C_R   0.114164 0.559823 0.890857 -0.053443
C11   C     C_R   0.868210 0.233101 0.128675 -0.158641
C12   C     C_R   0.131789 0.733101 0.871325 -0.158642
H5    H     H_    0.884795 0.360818 0.113329 0.126223
H6    H     H_    0.115205 0.860819 0.886671 0.126224
C13   C     C_R   0.829012 0.244453 0.168645 -0.124441
C14   C     C_R   0.170987 0.744453 0.831354 -0.124441
H7    H     H_    0.816413 0.379415 0.183025 0.110643
H8    H     H_    0.183587 0.879415 0.816974 0.110643
C15   C     C_R   0.806489 0.083326 0.190057 0.128834
C16   C     C_R   0.193511 0.583326 0.809943 0.128834
C17   C     C_1   0.766357 0.096285 0.232010 -0.039248
C18   C     C_1   0.233643 0.596285 0.767990 -0.039247
C19   C     C_1   0.732910 0.108001 0.267151 -0.031576
C20   C     C_1   0.267090 0.608001 0.732849 -0.031576
C21   C     C_R   0.672854 0.960104 0.333744 -0.113536
C22   C     C_R   0.327146 0.460104 0.666256 -0.113536
H9    H     H_    0.687272 0.825181 0.321644 0.113031
H10   H     H_    0.312728 0.325181 0.678357 0.113031
C23   C     C_R   0.633873 0.971542 0.373974 -0.092910
C24   C     C_R   0.366126 0.471542 0.626026 -0.092910
H11   H     H_    0.619321 0.843970 0.391887 0.139227
H12   H     H_    0.380679 0.343970 0.608113 0.139227
C25   C     C_R   0.613888 0.144700 0.390539 -0.031225
C26   C     C_R   0.386112 0.644700 0.609460 -0.031226
C27   C     C_R   0.634540 0.306060 0.365912 -0.144531
C28   C     C_R   0.365459 0.806060 0.634088 -0.144531
H13   H     H_    0.620252 0.441754 0.377282 0.133066
H14   H     H_    0.379748 0.941754 0.622718 0.133067
C29   C     C_R   0.673626 0.294138 0.325636 -0.111291
C30   C     C_R   0.326374 0.794138 0.674364 -0.111292
H15   H     H_    0.688670 0.420135 0.307117 0.114131
H16   H     H_    0.311330 0.920135 0.692883 0.114131
C31   C     C_R   0.692872 0.121078 0.309212 0.121958
C32   C     C_R   0.307127 0.621078 0.690787 0.121958
C33   C     C_R   0.644347 0.193364 0.794532 -0.157626
C34   C     C_R   0.355652 0.693370 0.205468 -0.157626
H17   H     H_    0.725917 0.160346 0.908592 0.127536
H18   H     H_    0.274082 0.660356 0.091408 0.127536
H19   H     H_    0.630290 0.226143 0.839090 0.149400
H20   H     H_    0.369709 0.726152 0.160911 0.149401
C35   C     C_R   0.619827 0.149289 0.673913 -0.110517
C36   C     C_R   0.380173 0.649290 0.326087 -0.110516
C37   C     C_R   0.904944 0.056450 0.768112 -0.182788
C38   C     C_R   0.095056 0.556445 0.231888 -0.182789
C39   C     C_R   0.868377 0.084726 0.704324 0.227523
C40   C     C_R   0.131623 0.584719 0.295676 0.227524
C41   C     C_R   0.808792 0.107686 0.695477 -0.211205
C42   C     C_R   0.191208 0.607681 0.304523 -0.211205
C43   C     C_R   0.783425 0.093499 0.750036 0.036800
C44   C     C_R   0.216575 0.593498 0.249964 0.036800
C45   C     C_R   0.822044 0.080338 0.816065 0.080269
C46   C     C_R   0.177956 0.580339 0.183935 0.080270
C47   C     C_R   0.721623 0.109480 0.741813 0.009446
C48   C     C_R   0.278377 0.609481 0.258187 0.009446
C49   C     C_R   0.702372 0.146848 0.800082 0.101061
C50   C     C_R   0.297628 0.646852 0.199918 0.101061
C51   C     C_R   0.741077 0.137638 0.864070 -0.169368
C52   C     C_R   0.258923 0.637645 0.135930 -0.169369
C53   C     C_R   0.799498 0.098168 0.872081 -0.172244
C54   C     C_R   0.200502 0.598173 0.127919 -0.172244
C55   C     C_R   0.678065 0.091314 0.678855 -0.094808
C56   C     C_R   0.321935 0.591312 0.321144 -0.094808
C57   C     C_R   0.604019 0.202309 0.732207 0.107060
C58   C     C_R   0.395980 0.702313 0.267793 0.107060
C59   C     C_R   0.882884 0.058050 0.824506 -0.118887
C60   C     C_R   0.117116 0.558049 0.175494 -0.118888
H21   H     H_    0.951235 0.041191 0.774016 0.132281
H22   H     H_    0.048765 0.541185 0.225984 0.132282
H23   H     H_    0.783830 0.146590 0.645896 0.159671
H24   H     H_    0.216170 0.646583 0.354104 0.159671
H25   H     H_    0.827408 0.090302 0.922720 0.102522
H26   H     H_    0.172592 0.590309 0.077280 0.102522
O11   O     O_R   0.053190 0.709680 0.082610 -0.530215
O12   O     O_R   0.946810 0.209680 0.917390 -0.530215
O13   O     O_R   0.057740 0.380240 0.950340 -0.540854
O14   O     O_R   0.942260 0.880240 0.049660 -0.540854
C61   C     C_R   0.071457 0.548985 0.932492 0.677683
C62   C     C_R   0.928543 0.048985 0.067508 0.677682
O15   O     O_R   0.060000 0.379940 0.084150 -0.532940
O16   O     O_R   0.940000 0.879940 0.915850 -0.532940
O17   O     O_R   0.949110 0.210100 0.052140 -0.537921
O18   O     O_R   0.050890 0.710100 0.947860 -0.537921
C63   C     C_R   0.074583 0.548532 0.108933 0.691440
C64   C     C_R   0.925417 0.048532 0.891066 0.691439
O19   O     O_3   0.963630 0.543720 0.989330 -0.373384
O20   O     O_3   0.036370 0.043720 0.010670 -0.373384
V3    V     V_3+5 0.006750 0.268680 0.001980 1.424677
V4    V     V_3+5 0.993250 0.768680 0.998020 1.424676
C65   C     C_2   0.690720 0.986995 0.622144 0.333388
H27   H     H_    0.721002 0.871763 0.632612 0.080980
O21   O     O_2   0.669182 0.030926 0.563791 -0.542142
C66   C     C_2   0.309280 0.486990 0.377855 0.333390
H28   H     H_    0.278998 0.371757 0.367386 0.080979
O22   O     O_2   0.330819 0.530918 0.436208 -0.542142
I1    I     I_    0.903731 0.101352 0.620844 -0.324680
I2    I     I_    0.096270 0.601340 0.379156 -0.324680
I3    I     I_    0.517792 0.282366 0.730459 -0.440596
I4    I     I_    0.482207 0.782373 0.269542 -0.440595

loop_
_geom_bond_atom_site_label_1
_geom_bond_atom_site_label_2
_ccdc_geom_bond_type
O12   C64   A    
C20   C32   S    
C29   C31   A    
C11   H5    S    
O13   V3    S    
O1    C3    A    
O2    C4    A    
C2    O7    A    
C47   C55   A    
C4    C25   S    
O8    V2    S    
C10   C12   A    
O5    C3    A    
C42   C44   A    
O16   V4    S    
C14   C16   A    
C59   C64   S    
O15   V3    S    
C38   H22   S    
C44   C46   A    
C37   H21   S    
C60   C63   S    
C65   H27   S    
O11   C63   A    
C35   C57   A    
C22   C24   A    
O18   V4    S    
C37   C39   A    
C66   H28   S    
O17   V3    S    
C7    C9    A    
H18   C52   S    
C33   C57   A    
C12   H6    S    
C65   O21   D    
C36   C58   A    
C13   H7    S    
C61   O18   A    
C27   C29   A    
C40   I2    S    
C46   C54   A    
C8    H4    S    
O5    V1    S    
C34   C50   A    
C45   C53   A    
O6    V2    S    
C21   H9    S    
C22   H10   S    
O11   V4    S    
C1    C36   S    
O20   V3    S    
C49   C51   A    
C28   H14   S    
C23   H11   S    
C24   H12   S    
C34   H20   S    
C11   C13   A    
C42   H24   S    
C12   C14   A    
C21   C31   A    
C40   C42   A    
C22   C32   A    
C39   C41   A    
C57   I3    S    
C25   C27   A    
C5    C7    A    
C30   C32   A    
H17   C51   S    
C27   H13   S    
C14   H8    S    
O4    V2    S    
O14   V4    S    
C10   C61   S    
C26   C28   A    
C23   C25   A    
O6    C4    A    
C19   C31   S    
O1    V2    S    
C21   C23   A    
O14   C62   A    
O2    V1    S    
C43   C45   A    
C48   C50   A    
C2    C35   S    
C51   C53   A    
C50   C52   A    
C7    H3    S    
C36   C56   A    
C13   C15   A    
O4    C2    A    
C41   C43   A    
C56   C66   S    
O3    V1    S    
C47   C49   A    
O16   C64   A    
O15   C63   A    
C45   C59   A    
C58   I4    S    
C15   C17   S    
C6    C8    A    
C55   C65   S    
C39   I1    S    
C38   C60   A    
O12   V3    S    
C44   C48   A    
C52   C54   A    
O3    C1    A    
C9    C62   S    
C9    C11   A    
C24   C26   A    
C35   C55   A    
O13   C61   A    
C46   C60   A    
C29   H15   S    
O7    V1    S    
C1    O8    A    
C48   C56   A    
C3    C26   S    
C33   C49   A    
C18   C20   T    
C6    C16   A    
C34   C58   A    
C16   C18   S    
C5    H1    S    
C30   H16   S    
O19   V4    S    
C6    H2    S    
C54   H26   S    
C66   O22   D    
C53   H25   S    
C33   H19   S    
C17   C19   T    
C8    C10   A    
O9    V2    S    
C41   H23   S    
O10   V1    S    
C38   C40   A    
C5    C15   A    
C37   C59   A    
C43   C47   A    
C62   O17   A    
C28   C30   A    
