data_mof_unit_34360.cif
_audit_creation_date              2012-12-11T17:04:58-0500
_audit_creation_method            fapswitch 2.2
_symmetry_space_group_name_H-M    P1
_symmetry_Int_Tables_number       1
_space_group_crystal_system       triclinic
_cell_length_a                    17.437744
_cell_length_b                    24.356515
_cell_length_c                    14.987106
_cell_angle_alpha                 89.897208
_cell_angle_beta                  125.33908
_cell_angle_gamma                 90.46336
_cell_volume                      5192.30030195

loop_
_atom_site_label
_atom_site_type_symbol
_atom_type_description
_atom_site_fract_x
_atom_site_fract_y
_atom_site_fract_z
_atom_type_partial_charge
C1    C     C_R   0.852491 0.652052 0.906762 0.641895
C2    C     C_R   0.149056 0.652045 0.094924 0.640067
C3    C     C_R   0.352491 0.152051 0.906761 0.641886
C4    C     C_R   0.649059 0.152044 0.094925 0.640122
C5    C     C_R   0.818433 0.360982 0.006977 0.032176
C6    C     C_R   0.179323 0.356897 0.996637 0.046424
C7    C     C_R   0.318432 0.860982 0.006975 0.032177
C8    C     C_R   0.679329 0.856903 0.996640 0.046406
C9    C     C_R   0.066784 0.503359 0.367583 -0.132377
C10   C     C_R   0.035168 0.503920 0.709444 -0.161836
C11   C     C_R   0.566784 0.003359 0.367583 -0.132373
C12   C     C_R   0.535166 0.003920 0.709442 -0.161842
C13   C     C_R   0.674684 0.500029 0.706628 -0.122661
C14   C     C_R   0.313374 0.502464 0.349478 -0.082837
C15   C     C_R   0.174682 0.000023 0.706622 -0.122702
C16   C     C_R   0.813299 0.002465 0.349603 -0.082838
C17   C     C_3   0.508806 0.451922 0.577361 0.813750
C18   C     C_3   0.480448 0.466024 0.463089 0.742740
C19   C     C_3   0.008818 0.951891 0.577344 0.813870
C20   C     C_3   0.980390 0.966081 0.463079 0.742425
C21   C     C_3   0.431920 0.489260 0.563849 -0.348485
C22   C     C_3   0.548404 0.514984 0.506005 -0.334709
C23   C     C_3   0.931924 0.989171 0.563967 -0.348347
C24   C     C_3   0.048307 0.015060 0.506058 -0.334611
C25   C     C_3   0.404834 0.503395 0.449368 -0.102458
C26   C     C_3   0.576619 0.500734 0.621099 -0.098306
C27   C     C_3   0.904767 0.003393 0.449492 -0.102414
C28   C     C_3   0.076596 0.000722 0.621148 -0.098336
C29   C     C_3   0.471997 0.553009 0.492478 -0.115529
C30   C     C_3   0.501692 0.538878 0.609225 -0.153106
C31   C     C_3   0.971893 0.053027 0.492670 -0.115487
C32   C     C_3   0.001661 0.038808 0.609412 -0.153298
C33   C     C_R   0.783967 0.303118 0.113206 -0.007680
C34   C     C_R   0.211549 0.296736 0.892391 -0.013392
C35   C     C_R   0.283961 0.803121 0.113203 -0.007685
C36   C     C_R   0.711552 0.796739 0.892394 -0.013396
C37   C     C_R   0.750178 0.332012 0.016641 -0.108910
C38   C     C_R   0.246601 0.326946 0.988118 -0.113581
C39   C     C_R   0.250175 0.832014 0.016637 -0.108890
C40   C     C_R   0.746607 0.826950 0.988121 -0.113574
C41   C     C_R   0.654611 0.324490 0.927724 0.472239
C42   C     C_R   0.343070 0.321626 0.075685 0.465986
C43   C     C_R   0.154608 0.824490 0.927717 0.472255
C44   C     C_R   0.843075 0.821628 0.075688 0.465965
C45   C     C_R   0.905146 0.377814 0.095416 -0.073212
C46   C     C_R   0.091976 0.371734 0.907094 -0.136378
C47   C     C_R   0.405145 0.877814 0.095415 -0.073209
C48   C     C_R   0.591980 0.871737 0.907096 -0.136391
C49   C     C_R   0.106067 0.778231 0.927718 -0.116913
C50   C     C_R   0.892365 0.776435 0.075554 -0.110897
C51   C     C_R   0.606069 0.278231 0.927724 -0.116890
C52   C     C_R   0.392362 0.276434 0.075551 -0.110900
C53   C     C_R   0.151107 0.741911 0.016947 -0.010624
C54   C     C_R   0.847341 0.739540 0.986956 -0.013038
C55   C     C_R   0.651112 0.241910 0.016950 -0.010628
C56   C     C_R   0.347340 0.239540 0.986953 -0.013039
C57   C     C_R   0.234475 0.759270 0.114205 0.099043
C58   C     C_R   0.761939 0.754389 0.890923 0.111208
C59   C     C_R   0.734481 0.259267 0.114207 0.099023
C60   C     C_R   0.261938 0.254388 0.890920 0.111204
C61   C     C_3   0.323758 0.728234 0.192994 0.452985
C62   C     C_3   0.674283 0.720301 0.817031 0.434115
C63   C     C_3   0.823764 0.228230 0.192991 0.453017
C64   C     C_3   0.174283 0.220299 0.817026 0.434137
C65   C     C_3   0.877402 0.276350 0.190472 -0.588645
C66   C     C_3   0.119345 0.266822 0.819804 -0.598279
C67   C     C_3   0.377396 0.776354 0.190474 -0.588644
C68   C     C_3   0.619348 0.766825 0.819809 -0.598262
C69   C     C_R   0.074368 0.557516 0.601565 -0.106745
C70   C     C_R   0.083532 0.557485 0.516366 -0.174451
C71   C     C_R   0.574369 0.057516 0.601566 -0.106749
C72   C     C_R   0.583534 0.057485 0.516367 -0.174457
C73   C     C_R   0.077366 0.507958 0.650603 0.106823
C74   C     C_R   0.097428 0.508011 0.480070 0.137785
C75   C     C_R   0.577365 0.007958 0.650602 0.106832
C76   C     C_R   0.597429 0.008011 0.480070 0.137810
C77   C     C_R   0.114671 0.461592 0.633549 -0.128406
C78   C     C_R   0.125468 0.461726 0.548233 -0.134101
C79   C     C_R   0.614670 0.961592 0.633548 -0.128407
C80   C     C_R   0.625467 0.961726 0.548233 -0.134138
C81   C     C_3   0.013586 0.603588 0.458300 0.717190
C82   C     C_3   0.003925 0.603533 0.553170 0.718462
C83   C     C_3   0.513590 0.103589 0.458302 0.717194
C84   C     C_3   0.503929 0.103534 0.553172 0.718457
C85   C     C_R   0.051130 0.547605 0.302723 -0.061991
C86   C     C_R   0.016329 0.548153 0.749877 -0.111458
C87   C     C_R   0.551130 0.047605 0.302723 -0.062018
C88   C     C_R   0.516328 0.048153 0.749876 -0.111446
C89   C     C_R   0.730314 0.454812 0.731972 0.735017
C90   C     C_R   0.261595 0.456076 0.296897 0.773541
C91   C     C_R   0.230317 0.954809 0.731968 0.735045
C92   C     C_R   0.761552 0.956078 0.296959 0.773705
C93   C     C_R   0.051684 0.456698 0.306353 0.681054
C94   C     C_R   0.001362 0.457331 0.729952 0.693632
C95   C     C_R   0.551683 0.956698 0.306352 0.681026
C96   C     C_R   0.501361 0.957331 0.729950 0.693649
C97   C     C_R   0.730334 0.546496 0.742485 -0.175032
C98   C     C_R   0.263098 0.547877 0.293230 -0.213467
C99   C     C_R   0.230331 0.046493 0.742485 -0.174994
C100  C     C_R   0.763055 0.047875 0.293305 -0.213449
C101  C     C_R   0.815026 0.371244 0.913409 -0.148855
C102  C     C_R   0.185178 0.371890 0.089688 -0.109074
C103  C     C_R   0.315026 0.871244 0.913408 -0.148869
C104  C     C_R   0.685183 0.871896 0.089691 -0.108975
C105  C     C_R   0.938758 0.652489 0.088268 0.716911
C106  C     C_R   0.060314 0.653718 0.913668 0.671404
C107  C     C_R   0.438758 0.152489 0.088267 0.716906
C108  C     C_R   0.560316 0.153718 0.913669 0.671406
C109  C     C_R   0.878502 0.683705 0.995826 -0.347486
C110  C     C_R   0.122183 0.684746 0.006954 -0.323861
C111  C     C_R   0.378502 0.183705 0.995824 -0.347485
C112  C     C_R   0.622186 0.184745 0.006956 -0.323883
H1    H     H_    0.454926 0.594596 0.455630 0.190048
H2    H     H_    0.513851 0.568634 0.672315 0.168507
H3    H     H_    0.954781 0.094637 0.455917 0.190067
H4    H     H_    0.013827 0.068511 0.672580 0.168467
H5    H     H_    0.036772 0.769127 0.855198 0.240702
H6    H     H_    0.962623 0.768613 0.147057 0.236579
H7    H     H_    0.536773 0.269128 0.855206 0.240705
H8    H     H_    0.462620 0.268614 0.147055 0.236579
H9    H     H_    0.330990 0.689759 0.158700 0.070760
H10   H     H_    0.671199 0.681851 0.855042 0.061601
H11   H     H_    0.830994 0.189756 0.158692 0.070785
H12   H     H_    0.171200 0.181849 0.855036 0.061596
H13   H     H_    0.913775 0.265982 0.151556 0.201181
H14   H     H_    0.086258 0.255791 0.862464 0.199084
H15   H     H_    0.413772 0.765984 0.151563 0.201179
H16   H     H_    0.586260 0.755796 0.862470 0.199084
H17   H     H_    0.921544 0.298642 0.269771 0.243150
H18   H     H_    0.071763 0.287092 0.739166 0.244154
H19   H     H_    0.421536 0.798647 0.269773 0.243151
H20   H     H_    0.571765 0.787095 0.739170 0.244155
H21   H     H_    0.125983 0.423831 0.677738 0.162932
H22   H     H_    0.145364 0.423935 0.529564 0.211858
H23   H     H_    0.625980 0.923831 0.677736 0.162930
H24   H     H_    0.645363 0.923935 0.529563 0.211852
H25   H     H_    0.930654 0.376821 0.180110 0.169496
H26   H     H_    0.063469 0.363086 0.823886 0.198623
H27   H     H_    0.430652 0.876821 0.180109 0.169498
H28   H     H_    0.563475 0.863090 0.823889 0.198620
H29   H     H_    0.072400 0.589544 0.328987 0.233125
H30   H     H_    0.033333 0.590531 0.749116 0.234370
H31   H     H_    0.572400 0.089544 0.328987 0.233123
H32   H     H_    0.533332 0.090531 0.749115 0.234370
H33   H     H_    0.708067 0.588809 0.726521 0.219012
H34   H     H_    0.279504 0.590330 0.318861 0.225051
H35   H     H_    0.208061 0.088805 0.726538 0.219004
H36   H     H_    0.779440 0.090330 0.318936 0.225034
H37   H     H_    0.759981 0.358293 0.832015 0.231742
H38   H     H_    0.242282 0.364201 0.173544 0.215568
H39   H     H_    0.259982 0.858292 0.832015 0.231750
H40   H     H_    0.742291 0.864215 0.173550 0.215529
H41   H     H_    0.381462 0.478666 0.583881 0.197092
H42   H     H_    0.597889 0.524998 0.484193 0.204987
H43   H     H_    0.881512 0.978508 0.584035 0.197124
H44   H     H_    0.097744 0.025144 0.484208 0.204984
N1    N     N_R   0.892620 0.603790 0.941770 -0.161253
N2    N     N_R   0.107380 0.603790 0.058230 -0.157372
N3    N     N_R   0.392620 0.103790 0.941770 -0.161257
N4    N     N_R   0.607380 0.103790 0.058230 -0.157368
N5    N     N_R   0.952270 0.397640 0.058010 -0.048109
N6    N     N_R   0.047730 0.397640 0.941990 -0.058302
N7    N     N_R   0.452270 0.897640 0.058010 -0.048109
N8    N     N_R   0.547730 0.897640 0.941990 -0.058301
N9    N     N_R   0.026310 0.529110 0.206760 -0.096565
N10   N     N_R   0.973690 0.529110 0.793240 -0.073520
N11   N     N_R   0.526310 0.029110 0.206760 -0.096569
N12   N     N_R   0.473690 0.029110 0.793240 -0.073520
N13   N     N_R   0.818570 0.472310 0.793020 -0.124119
N14   N     N_R   0.181430 0.472310 0.206980 -0.141258
N15   N     N_R   0.318570 0.972310 0.793020 -0.124124
N16   N     N_R   0.681430 0.972310 0.206980 -0.141280
N17   N     N_R   0.026930 0.472300 0.207330 -0.128588
N18   N     N_R   0.973070 0.472300 0.792670 -0.114577
N19   N     N_R   0.526930 0.972300 0.207330 -0.128600
N20   N     N_R   0.473070 0.972300 0.792670 -0.114574
N21   N     N_R   0.817960 0.529130 0.792460 -0.070935
N22   N     N_R   0.182040 0.529130 0.207540 -0.091416
N23   N     N_R   0.317960 0.029130 0.792460 -0.070935
N24   N     N_R   0.682040 0.029130 0.207540 -0.091427
N25   N     N_R   0.894850 0.397640 0.943830 -0.059350
N26   N     N_R   0.105150 0.397640 0.056170 -0.052371
N27   N     N_R   0.394850 0.897640 0.943830 -0.059351
N28   N     N_R   0.605150 0.897640 0.056170 -0.052365
N29   N     N_R   0.950040 0.603780 0.055950 -0.157434
N30   N     N_R   0.049960 0.603780 0.944050 -0.163325
N31   N     N_R   0.450040 0.103780 0.055950 -0.157435
N32   N     N_R   0.549960 0.103780 0.944050 -0.163324
Ni1   Ni    Ni4+2 0.934160 0.565860 0.869070 0.305956
Ni2   Ni    Ni4+2 0.065840 0.565860 0.130930 0.263407
Ni3   Ni    Ni4+2 0.434160 0.065860 0.869070 0.305968
Ni4   Ni    Ni4+2 0.565840 0.065860 0.130930 0.263386
Ni5   Ni    Ni4+2 0.067260 0.435560 0.132230 0.290058
Ni6   Ni    Ni4+2 0.932740 0.435560 0.867770 0.288364
Ni7   Ni    Ni4+2 0.567260 0.935560 0.132230 0.290060
Ni8   Ni    Ni4+2 0.432740 0.935560 0.867770 0.288386
F1    F     F_    0.823033 0.671675 0.807117 -0.622587
F2    F     F_    0.178830 0.670740 0.195255 -0.643617
F3    F     F_    0.323033 0.171674 0.807115 -0.622577
F4    F     F_    0.678837 0.170738 0.195257 -0.643638
F5    F     F_    0.527741 0.399701 0.620999 -0.573478
F6    F     F_    0.467858 0.428452 0.386463 -0.609522
F7    F     F_    0.027790 0.899642 0.620863 -0.573374
F8    F     F_    0.967795 0.928573 0.386356 -0.609692
O1    O     O_3   0.609307 0.358119 0.837344 -0.657103
H45   H     H_    0.643183 0.393818 0.858050 0.318769
O2    O     O_3   0.388959 0.356549 0.164592 -0.658803
H46   H     H_    0.355927 0.392189 0.141900 0.325943
O3    O     O_3   0.109307 0.858116 0.837333 -0.657224
H47   H     H_    0.143181 0.893816 0.858037 0.318718
O4    O     O_3   0.888966 0.856551 0.164595 -0.658803
H48   H     H_    0.855936 0.892192 0.141902 0.325999
O5    O     O_3   0.342387 0.720662 0.297063 -0.658992
H49   H     H_    0.324870 0.754574 0.317844 0.359313
O6    O     O_3   0.652585 0.711588 0.711780 -0.662893
H50   H     H_    0.666291 0.745883 0.687227 0.360436
O7    O     O_3   0.842398 0.220656 0.297061 -0.658991
H51   H     H_    0.824882 0.254568 0.317847 0.359304
O8    O     O_3   0.152586 0.211587 0.711775 -0.662875
H52   H     H_    0.166291 0.245883 0.687223 0.360435
O9    O     O_3   0.930909 0.587364 0.358393 -0.746985
H53   H     H_    0.888374 0.619421 0.331556 0.361765
O10   O     O_3   0.039486 0.651201 0.617833 -0.710792
H54   H     H_    0.991902 0.680130 0.575861 0.386604
O11   O     O_3   0.430913 0.087366 0.358394 -0.746976
H55   H     H_    0.388378 0.119423 0.331560 0.361768
O12   O     O_3   0.539492 0.151201 0.617836 -0.710795
H56   H     H_    0.491910 0.180131 0.575865 0.386605
O13   O     O_3   0.052556 0.652285 0.448456 -0.683698
H57   H     H_    0.117945 0.656513 0.514821 0.335103
O14   O     O_3   0.913493 0.589214 0.524115 -0.714896
H58   H     H_    0.897074 0.551927 0.490974 0.332978
O15   O     O_3   0.552562 0.152286 0.448460 -0.683700
H59   H     H_    0.617951 0.156513 0.514825 0.335097
O16   O     O_3   0.413496 0.089217 0.524117 -0.714883
H60   H     H_    0.397075 0.051930 0.490974 0.332985
F9    F     F_    0.702573 0.406486 0.676638 -0.639843
F10   F     F_    0.277734 0.405087 0.340457 -0.644523
F11   F     F_    0.202587 0.906482 0.676638 -0.639774
F12   F     F_    0.777669 0.905081 0.340483 -0.644565
F13   F     F_    0.080792 0.405280 0.345772 -0.702762
F14   F     F_    0.975329 0.410092 0.671141 -0.707524
F15   F     F_    0.580791 0.905280 0.345772 -0.702751
F16   F     F_    0.475327 0.910092 0.671140 -0.707513
F17   F     F_    0.993725 0.671013 0.192783 -0.641753
F18   F     F_    0.000987 0.673772 0.811157 -0.635739
F19   F     F_    0.493725 0.171013 0.192782 -0.641757
F20   F     F_    0.500989 0.173773 0.811159 -0.635733

loop_
_geom_bond_atom_site_label_1
_geom_bond_atom_site_label_2
_ccdc_geom_bond_type
C53   C110  S    
C58   C62   S    
C3    N3    A    
C82   O14   S    
C63   C65   S    
C22   C29   S    
C5    C37   S    
C55   C112  S    
C15   C91   A    
C62   O6    S    
C19   C23   S    
C19   C20   S    
C86   N10   A    
C72   C76   A    
C100  H36   S    
C34   C66   S    
C81   C82   S    
C33   C65   S    
N29   Ni2   S    
C71   C75   A    
C77   C78   A    
N11   Ni4   S    
C95   F15   S    
C50   C54   A    
N12   Ni3   S    
C77   H21   S    
N14   N22   A    
N32   Ni3   S    
C103  N27   A    
C17   C26   S    
C107  F19   S    
O11   H55   S    
C38   C42   A    
C36   C58   A    
C11   C76   S    
N2    Ni2   S    
C30   H2    S    
N22   Ni2   S    
C10   C73   S    
N20   Ni8   S    
C7    C103  A    
C10   C94   A    
C105  N29   A    
C107  N31   A    
C61   H9    S    
N3    N31   A    
C57   C61   S    
C68   H20   S    
C70   C81   S    
C95   N19   A    
C14   C90   A    
C45   N5    A    
C69   C82   S    
C101  H37   S    
C9    C85   A    
C97   N21   A    
C73   C77   A    
C87   N11   A    
C83   O15   S    
C11   C87   A    
C88   N12   A    
N23   Ni3   S    
C70   C74   A    
C51   H7    S    
O16   H60   S    
C6    C38   S    
C69   C73   A    
O1    H45   S    
C35   C67   S    
C98   N22   A    
C29   C30   S    
C96   N20   A    
O15   H59   S    
C68   H16   S    
C56   C111  S    
C22   H42   S    
C96   F16   S    
C103  H39   S    
C46   H26   S    
C47   N7    A    
N16   N24   A    
C16   C27   S    
C83   O11   S    
C4    C112  A    
C29   H1    S    
C33   C59   A    
C2    F2    S    
C34   C60   A    
N15   N23   A    
C19   F7    S    
C18   C25   S    
C61   O5    S    
C24   H44   S    
N2    N30   A    
C28   C32   S    
C31   H3    S    
C34   C38   A    
C14   C98   A    
N1    Ni1   S    
C25   C29   S    
C49   H5    S    
N10   N18   A    
N21   Ni1   S    
C90   F10   S    
C63   H11   S    
C27   C31   S    
O2    H46   S    
C102  N26   A    
C41   O1    S    
N3    Ni3   S    
C36   C40   A    
C84   O16   S    
C20   F8    S    
O10   H54   S    
O3    H47   S    
N24   Ni4   S    
C3    C111  A    
O8    H52   S    
C12   C88   A    
C5    C101  A    
C43   C49   A    
C16   C100  A    
C82   O10   S    
C98   H34   S    
N18   Ni6   S    
O7    H51   S    
O5    H49   S    
C5    C45   A    
C17   C21   S    
C108  C112  A    
C54   C109  S    
C93   F13   S    
C7    C47   A    
C35   C39   A    
O6    H50   S    
C8    C48   A    
O4    H48   S    
C99   N23   A    
O13   H57   S    
N8    N28   A    
C89   F9    S    
O9    H53   S    
C8    C104  A    
C61   C67   S    
C3    F3    S    
O12   H56   S    
N7    Ni7   S    
C2    N2    A    
C48   H28   S    
C4    F4    S    
N6    Ni6   S    
C45   H25   S    
C17   C18   S    
N5    Ni5   S    
C42   O2    S    
C18   F6    S    
N26   Ni5   S    
C106  F18   S    
C17   F5    S    
C19   C28   S    
C78   H22   S    
C105  F17   S    
N31   Ni4   S    
C106  N30   A    
C67   H19   S    
C102  H38   S    
C90   N14   A    
C85   H29   S    
C63   O7    S    
C52   H8    S    
C32   H4    S    
C104  N28   A    
C41   C51   A    
C94   N18   A    
C26   C30   S    
C23   C27   S    
C50   H6    S    
N13   N21   A    
C46   N6    A    
C67   H15   S    
C97   H33   S    
C13   C26   S    
C83   C84   S    
C76   C80   A    
C23   H43   S    
N4    N32   A    
C47   H27   S    
N27   Ni8   S    
C100  N24   A    
C9    C93   A    
C62   H10   S    
C22   C26   S    
C101  N25   A    
C55   C59   A    
C86   H30   S    
N11   N19   A    
C71   C84   S    
C54   C58   A    
N10   Ni1   S    
C11   C95   A    
N12   N20   A    
C21   C25   S    
C42   C52   A    
C92   F12   S    
C21   H41   S    
C6    C46   A    
C64   O8    S    
C13   C89   A    
C18   C22   S    
C107  C111  A    
C108  N32   A    
C31   C32   S    
C1    F1    S    
C24   C28   S    
N1    N29   A    
N15   Ni8   S    
C53   C57   A    
N14   Ni5   S    
C65   H17   S    
N8    Ni8   S    
C16   C92   A    
N13   Ni6   S    
C48   N8    A    
C20   C27   S    
C62   C68   S    
N28   Ni7   S    
C79   H23   S    
C21   C30   S    
C108  F20   S    
C59   C63   S    
C80   H24   S    
N6    N26   A    
C91   N15   A    
C60   C64   S    
C44   O4    S    
C85   N9    A    
C23   C32   S    
C104  H40   S    
N30   Ni1   S    
C1    N1    A    
C94   F14   S    
C24   C31   S    
C99   H35   S    
C71   C72   A    
C64   C66   S    
C64   H12   S    
C75   C79   A    
C13   C97   A    
C20   C24   S    
N17   Ni5   S    
C10   C86   A    
C15   C28   S    
C4    N4    A    
C15   C99   A    
C105  C109  A    
C81   O9    S    
C92   N16   A    
C1    C109  A    
C49   C53   A    
C93   N17   A    
C88   H32   S    
C51   C55   A    
C6    C102  A    
C14   C25   S    
C37   C41   A    
C69   C70   A    
C43   O3    S    
N7    N27   A    
C33   C37   A    
C72   C83   S    
N9    Ni2   S    
N4    Ni4   S    
C89   N13   A    
C79   C80   A    
C9    C74   S    
C66   H14   S    
C40   C44   A    
C56   C60   A    
C39   C43   A    
C44   C50   A    
C106  C110  A    
C35   C57   A    
C74   C78   A    
C12   C75   S    
C91   F11   S    
O14   H58   S    
C7    C39   S    
C12   C96   A    
N16   Ni7   S    
C81   O13   S    
C8    C40   S    
N25   Ni6   S    
C87   H31   S    
C84   O12   S    
N9    N17   A    
C36   C68   S    
N19   Ni7   S    
N5    N25   A    
C52   C56   A    
C65   H13   S    
C66   H18   S    
C2    C110  A    
