data_mof_unit_26180.cif
_audit_creation_date              2012-12-11T15:10:45-0500
_audit_creation_method            fapswitch 2.2
_symmetry_space_group_name_H-M    P1
_symmetry_Int_Tables_number       1
_space_group_crystal_system       triclinic
_cell_length_a                    21.145724
_cell_length_b                    7.239148
_cell_length_c                    18.261118
_cell_angle_alpha                 89.988173
_cell_angle_beta                  93.427599
_cell_angle_gamma                 89.986535
_cell_volume                      2790.356992

loop_
_atom_site_label
_atom_site_type_symbol
_atom_type_description
_atom_site_fract_x
_atom_site_fract_y
_atom_site_fract_z
_atom_type_partial_charge
O1    O     O_R   0.448880 0.506250 0.415280 -0.529756
O2    O     O_R   0.551120 0.006250 0.584720 -0.529808
O3    O     O_R   0.434830 0.174000 0.557310 -0.520225
O4    O     O_R   0.565170 0.674000 0.442690 -0.520210
C1    C     C_R   0.416981 0.344583 0.579641 0.695368
C2    C     C_R   0.583020 0.844577 0.420358 0.695428
O5    O     O_R   0.441680 0.176440 0.414130 -0.529995
O6    O     O_R   0.558320 0.676440 0.585870 -0.529984
O7    O     O_R   0.558020 0.007570 0.440520 -0.519679
O8    O     O_R   0.441980 0.507570 0.559480 -0.519633
C3    C     C_R   0.428033 0.344839 0.388325 0.676376
C4    C     C_R   0.571973 0.844774 0.611676 0.676341
O9    O     O_3   0.538160 0.339670 0.508820 -0.363803
O10   O     O_3   0.461840 0.839670 0.491180 -0.363764
V1    V     V_3+5 0.492920 0.064260 0.498360 1.430883
V2    V     V_3+5 0.507080 0.564260 0.501640 1.431036
C5    C     C_R   0.877116 0.987326 0.687718 0.402418
C6    C     C_R   0.122655 0.483819 0.312434 0.402476
H1    H     H_    0.794411 0.985532 0.569318 0.192554
H2    H     H_    0.205276 0.480653 0.430910 0.192577
C7    C     C_R   0.887441 0.943062 0.819504 -0.105169
C8    C     C_R   0.112537 0.442662 0.180497 -0.105093
C9    C     C_R   0.583115 0.811590 0.745774 -0.161345
C10   C     C_R   0.417029 0.313746 0.254147 -0.161468
C11   C     C_R   0.618130 0.807625 0.812604 -0.123681
C12   C     C_R   0.382067 0.310635 0.187276 -0.123640
C13   C     C_R   0.683163 0.840485 0.816139 -0.154140
C14   C     C_R   0.316982 0.342721 0.183766 -0.154121
C15   C     C_R   0.715359 0.879036 0.752112 0.103180
C16   C     C_R   0.284672 0.379530 0.247870 0.103148
C17   C     C_R   0.678738 0.884960 0.683518 0.070720
C18   C     C_R   0.321226 0.384439 0.316516 0.070685
C19   C     C_R   0.782508 0.911569 0.753991 0.030540
C20   C     C_R   0.217472 0.411259 0.246018 0.030541
C21   C     C_R   0.811272 0.951660 0.687134 0.035917
C22   C     C_R   0.188573 0.449280 0.312972 0.035777
C23   C     C_R   0.773914 0.956190 0.620921 -0.120130
C24   C     C_R   0.225869 0.452845 0.379236 -0.120149
C25   C     C_R   0.709152 0.923109 0.619107 -0.207627
C26   C     C_R   0.290696 0.420752 0.381009 -0.207493
C27   C     C_R   0.822227 0.906473 0.819891 -0.216539
C28   C     C_R   0.177828 0.407247 0.180054 -0.216502
C29   C     C_R   0.914169 0.984013 0.753499 -0.184708
C30   C     C_R   0.085659 0.481419 0.246605 -0.184936
C31   C     C_R   0.612315 0.850509 0.680869 -0.079621
C32   C     C_R   0.387707 0.350887 0.319128 -0.079465
H3    H     H_    0.804082 0.877100 0.872514 0.104682
H4    H     H_    0.196076 0.379472 0.127352 0.104535
H5    H     H_    0.706736 0.834499 0.869984 0.107270
H6    H     H_    0.293459 0.337518 0.129880 0.107267
H7    H     H_    0.682923 0.928158 0.566363 0.114445
H8    H     H_    0.316879 0.425030 0.433790 0.114141
C33   C     C_1   0.864625 0.938948 0.132222 -0.193942
C34   C     C_1   0.135374 0.438930 0.867778 -0.193917
C35   C     C_1   0.821819 0.924891 0.176040 0.015991
C36   C     C_1   0.178180 0.424876 0.823959 0.015997
C37   C     C_1   0.771292 0.905764 0.228211 0.016973
C38   C     C_1   0.228706 0.405758 0.771788 0.016966
C39   C     C_1   0.728737 0.889124 0.272221 0.014836
C40   C     C_1   0.271262 0.389128 0.727778 0.014814
C41   C     C_1   0.678176 0.869993 0.324344 0.011258
C42   C     C_1   0.321824 0.370007 0.675654 0.011218
C43   C     C_1   0.635313 0.855933 0.368084 -0.198827
C44   C     C_1   0.364688 0.355951 0.631915 -0.198873
O11   O     O_R   0.058070 0.289240 0.940580 -0.520561
O12   O     O_R   0.941930 0.789240 0.059420 -0.520571
O13   O     O_R   0.058330 0.616740 0.085880 -0.531881
O14   O     O_R   0.941670 0.116740 0.914120 -0.531957
C45   C     C_R   0.072001 0.448756 0.111754 0.707224
C46   C     C_R   0.927994 0.948823 0.888243 0.707208
O15   O     O_R   0.065180 0.619040 0.942700 -0.522513
O16   O     O_R   0.934820 0.119040 0.057300 -0.522517
O17   O     O_R   0.948870 0.787780 0.915270 -0.527627
O18   O     O_R   0.051130 0.287780 0.084730 -0.527672
C47   C     C_R   0.083163 0.450322 0.920171 0.706570
C48   C     C_R   0.916836 0.950329 0.079830 0.706581
O19   O     O_3   0.961870 0.453310 0.991210 -0.367124
O20   O     O_3   0.038130 0.953310 0.008790 -0.367098
V3    V     V_3+5 0.007070 0.728770 0.001630 1.434713
V4    V     V_3+5 0.992930 0.228770 0.998370 1.434667
H9    H     H_    0.964385 0.013859 0.753181 0.152556
H10   H     H_    0.035369 0.510201 0.246975 0.152518
Cl1   Cl    Cl    0.915843 0.039377 0.607292 -0.571849
Cl2   Cl    Cl    0.083749 0.533136 0.392995 -0.571709
H11   H     H_    0.532709 0.783690 0.744624 0.106365
H12   H     H_    0.467491 0.286648 0.255264 0.106300
H13   H     H_    0.594636 0.777791 0.862343 0.120132
H14   H     H_    0.405648 0.282158 0.137478 0.120128

loop_
_geom_bond_atom_site_label_1
_geom_bond_atom_site_label_2
_ccdc_geom_bond_type
O14   V4    S    
C25   H7    S    
C9    C31   A    
C13   C15   A    
O1    C3    A    
O16   C48   A    
O2    C4    A    
C2    O7    A    
O15   V3    S    
O5    C3    A    
O12   V3    S    
C24   C26   A    
C10   C12   A    
C30   H10   S    
C37   C39   T    
C38   C40   T    
C15   C19   A    
C11   H13   S    
C40   C42   S    
C41   C43   T    
C42   C44   T    
H1    C23   S    
C7    C29   A    
C14   H6    S    
C8    C30   A    
C36   C38   S    
C20   C28   A    
C6    Cl2   S    
C8    C45   S    
O5    V1    S    
O6    V2    S    
O11   V4    S    
O18   V4    S    
C33   C35   T    
C27   H3    S    
C34   C36   T    
C39   C41   S    
C16   C20   A    
O13   V3    S    
O4    C2    A    
O20   V3    S    
C26   H8    S    
O16   V4    S    
C1    C44   S    
O13   C45   A    
C2    C43   S    
O4    V2    S    
C5    C29   A    
C6    C30   A    
H2    C24   S    
O6    C4    A    
O12   C48   A    
C46   O17   A    
O17   V3    S    
C45   O18   A    
O1    V2    S    
C28   H4    S    
O2    V1    S    
C7    C27   A    
O14   C46   A    
C35   C37   S    
C9    H11   S    
C29   H9    S    
C33   C48   S    
O3    V1    S    
O19   V4    S    
C21   C23   A    
C18   C32   A    
O15   C47   A    
C4    C31   S    
O3    C1    A    
C11   C13   A    
C12   C14   A    
O11   C47   A    
C7    C46   S    
C10   C32   A    
C22   C24   A    
O7    V1    S    
C19   C27   A    
C1    O8    A    
C23   C25   A    
O8    V2    S    
C16   C18   A    
C8    C28   A    
C6    C22   A    
C14   C16   A    
C19   C21   A    
C17   C25   A    
C20   C22   A    
C18   C26   A    
C34   C47   S    
C12   H14   S    
C9    C11   A    
C15   C17   A    
C17   C31   A    
O9    V2    S    
O10   V1    S    
C3    C32   S    
C5    C21   A    
C5    Cl1   S    
C10   H12   S    
C13   H5    S    
