data_mof_unit_12589.cif
_audit_creation_date              2013-03-05T15:46:18-0500
_audit_creation_method            fapswitch 2.2
_symmetry_space_group_name_H-M    P1
_symmetry_Int_Tables_number       1
_space_group_crystal_system       triclinic
_cell_length_a                    17.455168
_cell_length_b                    24.239786
_cell_length_c                    14.900436
_cell_angle_alpha                 89.999538
_cell_angle_beta                  126.060738
_cell_angle_gamma                 90.000112
_cell_volume                      5096.52985248

loop_
_atom_site_label
_atom_site_type_symbol
_atom_site_description
_atom_site_fract_x
_atom_site_fract_y
_atom_site_fract_z
_atom_type_partial_charge
C1    C     C_R   0.808283 0.623458 0.907595 -0.051680
C2    C     C_R   0.191487 0.375966 0.093286 -0.039584
C3    C     C_R   0.191493 0.624023 0.093285 -0.039428
C4    C     C_R   0.808282 0.376544 0.907593 -0.051627
C5    C     C_R   0.347448 0.151878 0.908971 -0.082372
C6    C     C_R   0.653790 0.848425 0.091287 -0.077111
C7    C     C_R   0.653790 0.151575 0.091286 -0.077115
C8    C     C_R   0.347448 0.848122 0.908972 -0.082373
H1    H     H_    0.748583 0.627664 0.822004 0.121141
H2    H     H_    0.251763 0.373186 0.178754 0.123052
H3    H     H_    0.251776 0.626790 0.178752 0.123032
H4    H     H_    0.748582 0.372340 0.822001 0.121140
H5    H     H_    0.304947 0.165905 0.824241 0.151160
H6    H     H_    0.698395 0.834835 0.176023 0.157397
H7    H     H_    0.698395 0.165165 0.176022 0.157396
H8    H     H_    0.304946 0.834096 0.824243 0.151159
N1    N     N_R   0.892620 0.603790 0.941800 -0.034397
N2    N     N_R   0.107380 0.396210 0.058200 -0.034824
N3    N     N_R   0.107380 0.603790 0.058200 -0.034816
N4    N     N_R   0.892620 0.396210 0.941800 -0.034400
N5    N     N_R   0.392620 0.103790 0.941800 -0.045665
N6    N     N_R   0.607380 0.896210 0.058200 -0.045669
N7    N     N_R   0.607380 0.103790 0.058200 -0.045669
N8    N     N_R   0.392620 0.896210 0.941800 -0.045664
C9    C     C_R   0.903596 0.376758 0.093778 -0.072845
C10   C     C_R   0.094708 0.627876 0.908025 -0.079929
C11   C     C_R   0.094705 0.372122 0.908025 -0.079898
C12   C     C_R   0.903598 0.623242 0.093780 -0.072860
C13   C     C_R   0.442904 0.849547 0.094257 -0.084892
C14   C     C_R   0.556453 0.151202 0.906710 -0.115872
C15   C     C_R   0.556453 0.848798 0.906712 -0.115868
C16   C     C_R   0.442905 0.150453 0.094256 -0.084887
H9    H     H_    0.931824 0.371464 0.179920 0.102865
H10   H     H_    0.064629 0.640442 0.824458 0.103762
H11   H     H_    0.064625 0.359557 0.824458 0.103753
H12   H     H_    0.931827 0.628536 0.179922 0.102856
H13   H     H_    0.489746 0.836320 0.179666 0.127956
H14   H     H_    0.508360 0.165427 0.822153 0.140106
H15   H     H_    0.508360 0.834574 0.822154 0.140100
H16   H     H_    0.489748 0.163681 0.179665 0.127954
N9    N     N_R   0.952210 0.397600 0.057910 -0.041019
N10   N     N_R   0.047790 0.602400 0.942090 -0.041329
N11   N     N_R   0.047790 0.397600 0.942090 -0.041323
N12   N     N_R   0.952210 0.602400 0.057910 -0.041028
N13   N     N_R   0.452210 0.897600 0.057910 -0.045589
N14   N     N_R   0.547790 0.102400 0.942090 -0.047389
N15   N     N_R   0.547790 0.897600 0.942090 -0.047388
N16   N     N_R   0.452210 0.102400 0.057910 -0.045588
C17   C     C_R   0.054824 0.545956 0.306954 -0.106381
C18   C     C_R   0.987175 0.453887 0.718685 -0.077728
C19   C     C_R   0.987174 0.546114 0.718685 -0.077714
C20   C     C_R   0.054818 0.454045 0.306954 -0.106382
C21   C     C_R   0.543479 0.046210 0.301911 -0.054388
C22   C     C_R   0.519110 0.953593 0.751330 -0.035152
C23   C     C_R   0.519110 0.046407 0.751331 -0.035151
C24   C     C_R   0.543480 0.953790 0.301912 -0.054393
H17   H     H_    0.072277 0.588257 0.334372 0.145349
H18   H     H_    0.979102 0.412189 0.689635 0.118937
H19   H     H_    0.979101 0.587812 0.689635 0.118936
H20   H     H_    0.072258 0.411744 0.334372 0.145351
H21   H     H_    0.557013 0.088680 0.328546 0.140089
H22   H     H_    0.529131 0.910904 0.740505 0.104402
H23   H     H_    0.529132 0.089096 0.740505 0.104405
H24   H     H_    0.557015 0.911320 0.328549 0.140088
N17   N     N_R   0.026300 0.529110 0.206760 -0.053283
N18   N     N_R   0.973700 0.470890 0.793240 -0.048985
N19   N     N_R   0.973700 0.529110 0.793240 -0.048987
N20   N     N_R   0.026300 0.470890 0.206760 -0.053260
N21   N     N_R   0.526300 0.029110 0.206760 -0.049468
N22   N     N_R   0.473700 0.970890 0.793240 -0.038094
N23   N     N_R   0.473700 0.029110 0.793240 -0.038094
N24   N     N_R   0.526300 0.970890 0.206760 -0.049468
C25   C     C_R   0.744861 0.454807 0.693858 0.201370
C26   C     C_R   0.255315 0.545173 0.306209 0.199112
C27   C     C_R   0.255323 0.454816 0.306187 0.199170
C28   C     C_R   0.744854 0.545197 0.693866 0.201429
C29   C     C_R   0.244703 0.954576 0.694582 0.233829
C30   C     C_R   0.757138 0.045447 0.304189 0.236374
C31   C     C_R   0.757138 0.954552 0.304189 0.236371
C32   C     C_R   0.244702 0.045425 0.694583 0.233827
N25   N     N_R   0.818530 0.472270 0.792960 -0.116680
N26   N     N_R   0.181470 0.527730 0.207040 -0.115424
N27   N     N_R   0.181470 0.472270 0.207040 -0.115442
N28   N     N_R   0.818530 0.527730 0.792960 -0.116698
N29   N     N_R   0.318530 0.972270 0.792960 -0.112485
N30   N     N_R   0.681470 0.027730 0.207040 -0.112193
N31   N     N_R   0.681470 0.972270 0.207040 -0.112193
N32   N     N_R   0.318530 0.027730 0.792960 -0.112486
C33   C     C_R   0.812340 0.635963 0.001042 -0.014383
C34   C     C_R   0.186484 0.361052 0.000691 -0.019073
C35   C     C_R   0.186489 0.638941 0.000691 -0.019109
C36   C     C_R   0.812338 0.364038 0.001039 -0.014398
C37   C     C_R   0.379302 0.182778 0.002640 0.002265
C38   C     C_R   0.621650 0.816994 0.998341 0.002418
C39   C     C_R   0.621650 0.183006 0.998339 0.002427
C40   C     C_R   0.379300 0.817223 0.002642 0.002270
C41   C     C_R   0.075302 0.500001 0.372034 0.017492
C42   C     C_R   0.006327 0.500001 0.680695 0.022595
C43   C     C_R   0.557694 1.000000 0.364867 -0.005268
C44   C     C_R   0.550291 0.000000 0.726454 -0.018423
C45   C     C_R   0.695065 0.500003 0.630705 0.016685
C46   C     C_R   0.305064 0.499992 0.369291 0.008149
C47   C     C_R   0.195547 0.000000 0.632018 0.001385
C48   C     C_R   0.807305 1.000000 0.365512 -0.016143
Ni1   Ni    Ni4+2 0.934150 0.565840 0.869060 0.304536
Ni2   Ni    Ni4+2 0.065850 0.434160 0.130940 0.293406
Ni3   Ni    Ni4+2 0.065850 0.565840 0.130940 0.293400
Ni4   Ni    Ni4+2 0.934150 0.434160 0.869060 0.304541
Ni5   Ni    Ni4+2 0.434150 0.065840 0.869060 0.290662
Ni6   Ni    Ni4+2 0.565850 0.934160 0.130940 0.277193
Ni7   Ni    Ni4+2 0.565850 0.065840 0.130940 0.277191
Ni8   Ni    Ni4+2 0.434150 0.934160 0.869060 0.290661
C49   C     C_3   0.533077 0.454331 0.564567 -0.228538
C50   C     C_3   0.467032 0.545670 0.435868 -0.226307
C51   C     C_3   0.467030 0.454397 0.435682 -0.226289
C52   C     C_3   0.533082 0.545605 0.564755 -0.228929
C53   C     C_3   0.033323 0.954353 0.562763 -0.211916
C54   C     C_3   0.969413 0.045638 0.433875 -0.209403
C55   C     C_3   0.969414 0.954362 0.433877 -0.209400
C56   C     C_3   0.033322 0.045647 0.562762 -0.211911
C57   C     C_3   0.472941 0.499936 0.566048 0.453696
C58   C     C_3   0.527115 0.500065 0.434345 0.449352
C59   C     C_3   0.972396 1.000000 0.562310 0.445039
C60   C     C_3   0.030395 0.000000 0.434391 0.438307
H25   H     H_    0.560267 0.417272 0.618762 0.175345
H26   H     H_    0.439878 0.582735 0.381691 0.176125
H27   H     H_    0.439873 0.417389 0.381347 0.176127
H28   H     H_    0.560285 0.582607 0.619103 0.175226
H29   H     H_    0.059629 0.917411 0.617236 0.189110
H30   H     H_    0.942963 0.082534 0.379271 0.188883
H31   H     H_    0.942965 0.917466 0.379274 0.188881
H32   H     H_    0.059626 0.082589 0.617233 0.189112
C61   C     C_3   0.407541 0.499999 0.440334 -0.028775
C62   C     C_3   0.592564 0.500001 0.560057 -0.036785
C63   C     C_3   0.909128 1.000000 0.436693 -0.043888
C64   C     C_3   0.093679 0.000000 0.560043 -0.055129
C65   C     C_R   0.658947 0.314221 0.899374 -0.113119
C66   C     C_R   0.339906 0.688360 0.103589 -0.112841
C67   C     C_R   0.339907 0.311638 0.103586 -0.112992
C68   C     C_R   0.658948 0.685780 0.899378 -0.113265
C69   C     C_R   0.290424 0.732074 0.903177 -0.138276
C70   C     C_R   0.712915 0.267570 0.099427 -0.138873
C71   C     C_R   0.712919 0.732431 0.099431 -0.138857
C72   C     C_R   0.290421 0.267925 0.903173 -0.138258
H33   H     H_    0.636771 0.331011 0.820304 0.123898
H34   H     H_    0.360303 0.672859 0.182788 0.124329
H35   H     H_    0.360307 0.327141 0.182785 0.124344
H36   H     H_    0.636771 0.668990 0.820308 0.123863
H37   H     H_    0.269274 0.748064 0.823997 0.130575
H38   H     H_    0.735852 0.250625 0.178616 0.133014
H39   H     H_    0.735857 0.749376 0.178620 0.133014
H40   H     H_    0.269268 0.251935 0.823992 0.130573
C73   C     C_R   0.242653 0.686440 0.902701 -0.129598
C74   C     C_R   0.759331 0.314070 0.100244 -0.125440
C75   C     C_R   0.759336 0.685931 0.100248 -0.125418
C76   C     C_R   0.242646 0.313556 0.902697 -0.129588
C77   C     C_R   0.613354 0.267262 0.898452 -0.138542
C78   C     C_R   0.387124 0.734221 0.104123 -0.132498
C79   C     C_R   0.387128 0.265780 0.104119 -0.132472
C80   C     C_R   0.613354 0.732738 0.898456 -0.138515
H41   H     H_    0.186297 0.669040 0.823598 0.113672
H42   H     H_    0.816789 0.330618 0.179590 0.121596
H43   H     H_    0.816795 0.669383 0.179594 0.121595
H44   H     H_    0.186287 0.330955 0.823594 0.113666
H45   H     H_    0.558372 0.249597 0.819026 0.129205
H46   H     H_    0.441469 0.752293 0.183377 0.128511
H47   H     H_    0.441478 0.247710 0.183374 0.128513
H48   H     H_    0.558371 0.750403 0.819030 0.129187
C81   C     C_R   0.259976 0.668670 0.002423 0.134324
C82   C     C_R   0.739489 0.333747 0.000330 0.132927
C83   C     C_R   0.739492 0.666254 0.000334 0.132920
C84   C     C_R   0.259971 0.331325 0.002421 0.134306
C85   C     C_R   0.646515 0.240686 0.998593 0.121704
C86   C     C_R   0.355543 0.759639 0.003524 0.120836
C87   C     C_R   0.355545 0.240361 0.003521 0.120842
C88   C     C_R   0.646517 0.759315 0.998597 0.121716
C89   C     C_R   0.077348 0.449993 0.602021 -0.167974
C90   C     C_R   0.105232 0.549942 0.532641 -0.106470
C91   C     C_R   0.105240 0.450062 0.532649 -0.106444
C92   C     C_R   0.077339 0.550010 0.602013 -0.167986
C93   C     C_R   0.604674 0.950086 0.628821 -0.129139
C94   C     C_R   0.602766 0.049950 0.534753 -0.089937
C95   C     C_R   0.602767 0.950050 0.534755 -0.089939
C96   C     C_R   0.604672 0.049914 0.628818 -0.129137
H49   H     H_    0.068551 0.410636 0.628999 0.114692
H50   H     H_    0.113816 0.589267 0.505369 0.130687
H51   H     H_    0.113832 0.410738 0.505385 0.130658
H52   H     H_    0.068535 0.589368 0.628982 0.114698
H53   H     H_    0.604137 0.910738 0.662523 0.120226
H54   H     H_    0.601402 0.089367 0.500060 0.127811
H55   H     H_    0.601404 0.910633 0.500063 0.127810
H56   H     H_    0.604134 0.089262 0.662518 0.120229
C97   C     C_R   0.105669 0.500002 0.485843 0.186348
C98   C     C_R   0.053241 0.500001 0.626690 0.140259
C99   C     C_R   0.591511 1.000000 0.480747 0.149515
C100  C     C_R   0.593795 0.000000 0.667602 0.128424
N33   N     N_R   0.742440 0.402094 0.648204 0.239179
O1    O     O_R   0.814033 0.368551 0.704338 -0.411233
O2    O     O_R   0.674726 0.390247 0.545481 -0.363623
N34   N     N_R   0.258780 0.598104 0.351978 0.232872
O3    O     O_R   0.189469 0.632978 0.294581 -0.423351
O4    O     O_R   0.325288 0.609168 0.455585 -0.369473
N35   N     N_R   0.258826 0.401861 0.351901 0.232966
O5    O     O_R   0.189386 0.367052 0.294619 -0.423299
O6    O     O_R   0.325662 0.390652 0.455325 -0.369614
N36   N     N_R   0.742411 0.597919 0.648228 0.239214
O7    O     O_R   0.814027 0.631449 0.704328 -0.411207
O8    O     O_R   0.674629 0.609796 0.545548 -0.363593
N37   N     N_R   0.244916 0.903132 0.647000 0.241530
O9    O     O_R   0.324310 0.877010 0.689307 -0.436654
O10   O     O_R   0.170908 0.887806 0.550301 -0.364922
N38   N     N_R   0.760349 0.097361 0.352855 0.237154
O11   O     O_R   0.683208 0.125860 0.310415 -0.461081
O12   O     O_R   0.834856 0.111169 0.450440 -0.369112
N39   N     N_R   0.760350 0.902639 0.352856 0.237151
O13   O     O_R   0.683208 0.874139 0.310414 -0.461079
O14   O     O_R   0.834858 0.888830 0.450445 -0.369108
N40   N     N_R   0.244915 0.096869 0.647000 0.241531
O15   O     O_R   0.324309 0.122990 0.689304 -0.436643
O16   O     O_R   0.170906 0.112198 0.550305 -0.364919
N41   N     N_R   0.443533 0.499864 0.639489 0.258731
O17   O     O_R   0.507241 0.499813 0.746460 -0.392845
O18   O     O_R   0.354155 0.499845 0.599155 -0.343362
N42   N     N_R   0.556263 0.500134 0.360666 0.258882
O19   O     O_R   0.492382 0.500194 0.253730 -0.392239
O20   O     O_R   0.645575 0.500128 0.400745 -0.323626
N43   N     N_R   0.940652 0.999999 0.633484 0.263075
O21   O     O_R   0.002794 1.000000 0.740756 -0.370702
O22   O     O_R   0.850781 0.999999 0.590877 -0.335875
N44   N     N_R   0.062075 0.000001 0.363189 0.263127
O23   O     O_R   0.999919 0.000000 0.255917 -0.371175
O24   O     O_R   0.151937 0.000002 0.405806 -0.313243

loop_
_geom_bond_atom_site_label_1
_geom_bond_atom_site_label_2
_geom_bond_distance
_ccdc_geom_bond_type
N35   O5    1.300617 A    
C1    C33   1.385490 A    
C48   C63   1.436855 S    
C2    N2    1.328849 A    
C49   C51   1.552644 S    
C16   N16   1.334174 A    
C38   C88   1.463311 S    
C6    C38   1.377880 A    
C8    C40   1.380048 A    
C47   C64   1.437654 S    
N29   Ni8   1.875628 S    
C21   N21   1.330920 A    
N42   O19   1.300204 A    
C68   H36   1.080117 S    
C31   N31   1.331722 A    
N4    N9    1.399168 A    
C89   H49   1.080724 S    
N31   Ni6   1.875632 S    
C55   C60   1.532089 S    
C21   C43   1.386432 A    
N35   O6    1.301199 A    
C67   H35   1.079791 S    
N41   O17   1.300178 A    
C17   N17   1.329820 A    
C75   C83   1.398862 A    
N8    N13   1.399168 A    
C65   H33   1.080120 S    
C53   C55   1.552561 S    
C32   N40   1.435535 S    
C50   H26   1.110433 S    
N36   O8    1.300933 A    
N29   N32   1.344341 A    
C49   H25   1.110433 S    
N15   Ni8   1.833843 S    
C6    N6    1.330701 A    
C43   C99   1.459422 S    
C20   C41   1.378733 A    
C51   H27   1.110438 S    
C42   C98   1.447027 S    
C11   C34   1.393124 A    
C3    C35   1.378421 A    
C41   C97   1.448610 S    
N33   O2    1.300926 A    
C93   C100  1.401092 A    
C58   C62   1.514784 S    
C20   H20   1.079145 S    
N37   O10   1.300602 A    
C93   H53   1.080510 S    
C78   C86   1.399135 A    
C36   C82   1.462993 S    
N34   O3    1.300605 A    
C24   N24   1.330923 A    
C23   H23   1.077295 S    
C23   C44   1.391599 A    
C27   C46   1.369669 A    
C95   C99   1.402153 A    
C24   H24   1.078306 S    
C3    N3    1.328856 A    
N22   N23   1.411238 A    
C4    H4    1.076199 S    
C53   H29   1.110282 S    
C5    H5    1.075751 S    
C20   N20   1.329832 A    
N3    N10   1.399168 A    
C29   N37   1.435535 S    
C26   C46   1.369708 A    
N5    N16   1.399168 A    
C25   N33   1.436438 S    
C5    C37   1.380052 A    
C30   N30   1.331719 A    
C19   C42   1.380015 A    
C31   N39   1.436881 S    
N6    N15   1.399168 A    
N25   Ni4   1.875628 S    
C67   C79   1.381092 A    
C8    H8    1.075751 S    
N7    N14   1.399168 A    
C79   C87   1.399132 A    
C71   H39   1.079413 S    
C32   N32   1.330220 A    
C66   C81   1.403814 A    
C80   C88   1.399902 A    
C22   C44   1.391598 A    
N44   O23   1.300146 A    
N20   Ni2   1.861134 S    
C71   C88   1.405454 A    
C26   N26   1.334690 A    
C73   C81   1.398547 A    
C75   H43   1.081029 S    
C25   N25   1.333344 A    
C28   N36   1.436431 S    
N28   Ni1   1.875633 S    
C70   C85   1.405455 A    
C94   C96   1.382291 A    
C44   C100  1.459307 S    
C59   C63   1.513111 S    
C90   C97   1.399284 A    
N24   Ni6   1.861134 S    
C28   N28   1.333331 A    
C18   C42   1.380015 A    
C89   C98   1.401310 A    
C35   C81   1.458205 S    
C32   C47   1.369659 A    
C30   C48   1.368701 A    
C18   H18   1.075651 S    
C1    H1    1.076191 S    
C33   C83   1.462994 S    
C52   C57   1.533517 S    
C93   C95   1.382291 A    
C9    N9    1.339716 A    
C76   C84   1.398547 A    
C60   C64   1.513533 S    
N36   O7    1.300691 A    
N19   Ni1   1.861133 S    
C54   C60   1.532085 S    
C51   C61   1.545856 S    
C89   C91   1.377683 A    
C10   C35   1.393127 A    
C45   C62   1.446361 S    
C58   N42   1.456627 S    
C17   C41   1.378727 A    
C55   H31   1.110282 S    
C12   N12   1.339712 A    
C55   C63   1.544316 S    
C13   N13   1.334172 A    
C50   C52   1.552648 S    
C56   C64   1.544695 S    
C5    N5    1.328768 A    
C90   H50   1.080691 S    
C23   N23   1.332957 A    
C72   C76   1.382729 A    
N21   N24   1.411238 A    
N39   O13   1.299151 A    
N2    Ni2   1.863192 S    
C14   C39   1.387180 A    
C54   H30   1.110281 S    
N1    Ni1   1.863192 S    
C6    H6    1.073107 S    
N6    Ni6   1.863192 S    
C66   C78   1.381094 A    
N40   O16   1.300599 A    
N43   O21   1.300120 A    
C22   N22   1.332955 A    
N18   Ni4   1.861123 S    
N17   N20   1.411238 A    
N13   Ni6   1.833849 S    
C9    H9    1.078050 S    
C96   H56   1.080509 S    
N37   O9    1.300150 A    
C49   C57   1.533509 S    
C67   C84   1.403812 A    
C19   N19   1.329247 A    
N26   Ni3   1.875627 S    
C70   C74   1.383986 A    
C52   C62   1.546101 S    
N44   O24   1.300367 A    
C18   N18   1.329251 A    
C76   H44   1.081582 S    
C65   C82   1.404858 A    
C12   C33   1.396624 A    
C92   H52   1.080721 S    
N22   Ni8   1.861123 S    
N32   Ni5   1.875633 S    
N34   O4    1.301153 A    
N43   O22   1.300560 A    
C26   N34   1.437486 S    
C68   C83   1.404859 A    
C49   C62   1.546077 S    
C4    C36   1.385490 A    
C69   C86   1.404736 A    
N9    Ni2   1.833849 S    
C29   C47   1.369658 A    
C19   H19   1.075649 S    
C77   H45   1.080675 S    
C2    H2    1.075127 S    
C30   N38   1.436882 S    
C56   H32   1.110281 S    
N25   N28   1.344341 A    
C7    C39   1.377879 A    
C10   N10   1.341292 A    
C91   C97   1.399280 A    
N12   Ni3   1.833845 S    
C28   C45   1.370481 A    
C69   C73   1.382737 A    
C16   H16   1.079770 S    
C9    C36   1.396632 A    
C27   N35   1.437481 S    
C25   C45   1.370497 A    
C10   H10   1.072027 S    
N30   N31   1.344341 A    
C21   H21   1.078303 S    
C14   N14   1.339401 A    
N38   O12   1.300544 A    
N42   O20   1.300356 A    
C74   H42   1.081028 S    
C13   C40   1.387715 A    
C90   C92   1.377682 A    
C56   C59   1.531960 S    
C95   H55   1.079912 S    
C4    N4    1.330737 A    
C34   C84   1.458202 S    
C15   C38   1.387178 A    
N7    Ni7   1.863182 S    
C69   H37   1.079680 S    
C1    N1    1.330740 A    
C24   C43   1.386432 A    
N27   Ni2   1.875632 S    
C65   C77   1.384312 A    
C71   C75   1.383985 A    
C11   H11   1.072026 S    
C70   H38   1.079413 S    
C91   H51   1.080689 S    
N39   O14   1.300572 A    
N30   Ni7   1.875627 S    
C39   C85   1.463313 S    
N1    N12   1.399168 A    
N41   O18   1.300490 A    
C96   C100  1.401088 A    
N2    N11   1.399168 A    
C68   C80   1.384312 A    
N21   Ni7   1.861124 S    
C74   C82   1.398863 A    
C27   N27   1.334637 A    
N40   O15   1.300150 A    
C17   H17   1.079149 S    
C92   C98   1.401308 A    
C66   H34   1.079790 S    
C7    N7    1.330702 A    
C37   C87   1.458374 S    
N23   Ni5   1.861133 S    
C72   C87   1.404736 A    
C7    H7    1.073107 S    
C8    N8    1.328769 A    
C50   C61   1.545856 S    
C79   H47   1.080513 S    
C16   C37   1.387714 A    
N11   Ni4   1.833843 S    
C80   H48   1.080676 S    
C51   C58   1.533091 S    
C53   C59   1.531958 S    
N33   O1    1.300690 A    
C31   C48   1.368704 A    
N10   Ni1   1.833848 S    
C54   C56   1.552561 S    
N8    Ni8   1.863182 S    
C46   C61   1.446033 S    
C3    H3    1.075136 S    
C40   C86   1.458379 S    
C29   N29   1.330219 A    
C50   C58   1.533119 S    
C78   H46   1.080512 S    
C11   N11   1.341284 A    
N16   Ni7   1.833845 S    
C59   N43   1.457225 S    
N38   O11   1.299140 A    
C12   H12   1.078050 S    
C2    C34   1.378425 A    
N26   N27   1.344341 A    
C52   H28   1.110431 S    
N14   Ni5   1.833848 S    
C13   H13   1.079763 S    
N18   N19   1.411238 A    
C15   H15   1.079746 S    
C57   N41   1.456830 S    
C22   H22   1.077296 S    
C15   N15   1.339398 A    
C94   C99   1.402155 A    
C94   H54   1.079909 S    
C14   H14   1.079745 S    
C57   C61   1.514772 S    
C53   C64   1.544700 S    
N17   Ni3   1.861124 S    
C73   H41   1.081583 S    
C60   N44   1.456735 S    
C54   C63   1.544319 S    
C72   H40   1.079680 S    
C77   C85   1.399903 A    
N5    Ni5   1.863192 S    
N4    Ni4   1.863182 S    
N3    Ni3   1.863182 S    
