data_mof_unit_25569.cif
_audit_creation_date              2012-12-11T15:36:42-0500
_audit_creation_method            fapswitch 2.2
_symmetry_space_group_name_H-M    P1
_symmetry_Int_Tables_number       1
_space_group_crystal_system       triclinic
_cell_length_a                    8.209722
_cell_length_b                    17.353115
_cell_length_c                    18.987159
_cell_angle_alpha                 98.005339
_cell_angle_beta                  94.357223
_cell_angle_gamma                 97.312306
_cell_volume                      2644.72922239

loop_
_atom_site_label
_atom_site_type_symbol
_atom_type_description
_atom_site_fract_x
_atom_site_fract_y
_atom_site_fract_z
_atom_type_partial_charge
Ba1   Ba    Ba6+2 0.162080 0.538580 0.468810 1.644053
Ba2   Ba    Ba6+2 0.648090 0.461410 0.531130 1.654098
C1    C     C_3   0.372467 0.759202 0.219657 -0.360615
C2    C     C_3   0.394209 0.722652 0.287462 0.364348
C3    C     C_3   0.560418 0.699514 0.642467 0.333137
C4    C     C_3   0.591058 0.788347 0.663068 -0.352282
C5    C     C_3   0.853060 0.244996 0.672358 0.352479
C6    C     C_3   0.825370 0.162118 0.690730 -0.360478
C7    C     C_3   0.383690 0.288703 0.714111 0.357391
C8    C     C_3   0.401522 0.264176 0.787773 -0.360000
C9    C     C_2   0.744841 0.723760 0.486666 -0.250292
C10   C     C_3   0.667059 0.772284 0.437046 -0.038182
C11   C     C_2   0.720206 0.859101 0.458097 -0.107385
C12   C     C_3   0.934590 0.752482 0.315849 0.353824
C13   C     C_2   0.860686 0.886083 0.501197 0.010220
C14   C     C_2   0.949869 0.827259 0.534265 -0.121092
C15   C     C_1   0.886955 0.751445 0.524805 0.051736
C16   C     C_R   0.106381 0.139090 0.530035 -0.128687
C17   C     C_R   0.169952 0.218844 0.539719 0.013191
C18   C     C_R   0.922741 0.248456 0.476685 0.060499
C19   C     C_R   0.858953 0.168032 0.466026 -0.120661
C20   C     C_R   0.948380 0.112701 0.494079 0.007610
C21   C     C_2   0.928315 0.971926 0.517154 -0.074061
C22   C     C_2   0.878679 0.027590 0.479867 -0.073061
C23   C     C_3   0.972334 0.833870 0.294904 -0.368076
C24   C     C_R   0.075593 0.273334 0.515752 -0.287063
C25   C     C_R   0.613844 0.534925 0.301651 -0.283719
C26   C     C_R   0.459032 0.493139 0.276628 0.071706
C27   C     C_R   0.403185 0.485681 0.204094 -0.123755
C28   C     C_R   0.503355 0.518852 0.155855 -0.018202
C29   C     C_R   0.662623 0.557891 0.181611 -0.137455
C30   C     C_R   0.718291 0.564412 0.254120 0.006593
C31   C     C_R   0.478496 0.572118 0.039518 -0.070028
C32   C     C_R   0.425227 0.563453 0.966719 -0.059846
C33   C     C_R   0.337183 0.492081 0.930894 0.058320
C34   C     C_3   0.760116 0.367819 0.311797 0.311545
C35   C     C_R   0.301853 0.429946 0.970032 -0.075524
C36   C     C_R   0.355196 0.438619 0.042908 -0.073181
C37   C     C_R   0.444756 0.509752 0.078514 0.059387
C38   C     C_R   0.128125 0.442551 0.824220 -0.115354
C39   C     C_R   0.079702 0.435893 0.750833 0.019043
C40   C     C_R   0.341863 0.508566 0.733629 0.025097
C41   C     C_R   0.391195 0.515588 0.806591 -0.127280
C42   C     C_R   0.285350 0.482317 0.852843 -0.014686
C43   C     C_R   0.189237 0.466429 0.705765 -0.291447
C44   C     C_3   0.735292 0.348044 0.230772 -0.392268
C45   C     C_3   0.045504 0.632607 0.688845 0.339346
C46   C     C_3   0.070244 0.652903 0.770023 0.072560
C47   C     C_3   0.247388 0.301653 0.368867 0.312710
C48   C     C_3   0.220335 0.213101 0.345660 -0.389671
H1    H     H_    0.313738 0.665162 0.280646 0.096401
H2    H     H_    0.628127 0.301344 0.214520 0.125485
H3    H     H_    0.712030 0.400697 0.206807 0.065555
H4    H     H_    0.847569 0.327232 0.210133 0.126099
H5    H     H_    0.158827 0.613273 0.669211 -0.063937
H6    H     H_    0.941486 0.584210 0.673907 0.067581
H7    H     H_    0.171263 0.702732 0.785987 0.099189
H8    H     H_    0.103791 0.601830 0.793931 0.015092
H9    H     H_    0.128731 0.321229 0.381482 0.007977
H10   H     H_    0.337417 0.315569 0.417062 0.068456
H11   H     H_    0.406701 0.719484 0.173719 0.072994
H12   H     H_    0.127121 0.197395 0.298598 0.124379
H13   H     H_    0.175870 0.182602 0.389475 0.063320
H14   H     H_    0.338137 0.192749 0.331358 0.128021
H15   H     H_    0.524549 0.712017 0.293957 -0.079841
H16   H     H_    0.453411 0.816532 0.225471 0.106331
H17   H     H_    0.678997 0.678715 0.630619 0.024705
H18   H     H_    0.471666 0.685355 0.593823 0.057009
H19   H     H_    0.683953 0.804864 0.710184 0.158934
H20   H     H_    0.637711 0.816072 0.617898 0.056230
H21   H     H_    0.474254 0.810565 0.676177 0.126103
H22   H     H_    0.242458 0.768536 0.208590 0.153439
H23   H     H_    0.919263 0.833694 0.239297 0.115381
H24   H     H_    0.774031 0.246617 0.622628 0.094592
H25   H     H_    0.984609 0.258729 0.662994 -0.061881
H26   H     H_    0.856550 0.119791 0.646030 0.075610
H27   H     H_    0.905122 0.158366 0.739726 0.111559
H28   H     H_    0.694168 0.146132 0.699893 0.150524
H29   H     H_    0.253669 0.297847 0.702396 -0.065430
H30   H     H_    0.465832 0.344946 0.715274 0.091010
H31   H     H_    0.368535 0.310808 0.828233 0.068453
H32   H     H_    0.530848 0.255019 0.801535 0.151303
H33   H     H_    0.992304 0.754087 0.371061 0.065921
H34   H     H_    0.318056 0.208763 0.788717 0.111109
H35   H     H_    0.782578 0.011301 0.436128 0.068491
H36   H     H_    0.064492 0.847512 0.567930 0.085600
H37   H     H_    0.183457 0.098266 0.548070 0.074890
H38   H     H_    0.024259 0.988883 0.561047 0.073345
H39   H     H_    0.647417 0.897945 0.433875 0.068345
H40   H     H_    0.740806 0.148530 0.435190 0.083865
H41   H     H_    0.691175 0.662835 0.483866 0.069075
H42   H     H_    0.126111 0.334906 0.523347 0.073178
H43   H     H_    0.510846 0.547909 0.827143 0.117109
H44   H     H_    0.798946 0.738194 0.313990 -0.061990
H45   H     H_    0.451674 0.613089 0.938596 0.086552
H46   H     H_    0.544651 0.628053 0.065546 0.069362
H47   H     H_    0.282334 0.453508 0.185427 0.086050
H48   H     H_    0.236025 0.373978 0.943940 0.062405
H49   H     H_    0.329202 0.388965 0.071045 0.061168
H50   H     H_    0.041793 0.419297 0.858943 0.078284
H51   H     H_    0.745383 0.580453 0.145182 0.082794
H52   H     H_    0.151083 0.462057 0.649353 0.065937
H53   H     H_    0.657967 0.539433 0.357445 0.068040
H54   H     H_    0.917450 0.877042 0.331394 0.069518
H55   H     H_    0.107623 0.852158 0.298818 0.147405
H56   H     H_    0.645806 0.385867 0.331684 0.006653
H57   H     H_    0.863215 0.416775 0.326499 0.065998
O1    O     O_2   0.166667 0.691630 0.546720 -0.455309
O2    O     O_3   0.306406 0.337467 0.312507 -0.635910
O3    O     O_3   0.997755 0.697437 0.267822 -0.598444
O4    O     O_2   0.643630 0.308330 0.453260 -0.461904
O5    O     O_3   0.916470 0.406310 0.458240 -0.499958
O6    O     O_3   0.419940 0.355340 0.582140 -0.489503
O7    O     O_3   0.795543 0.300819 0.339769 -0.635077
O8    O     O_3   0.383960 0.539280 0.585630 -0.484332
O9    O     O_3   0.845010 0.394580 0.619730 -0.491740
O10   O     O_2   0.741429 0.441150 0.746738 -0.471536
O11   O     O_3   0.810961 0.297865 0.728845 -0.602355
O12   O     O_3   0.893830 0.593690 0.541700 -0.500525
O13   O     O_3   0.426330 0.460710 0.414310 -0.490819
O14   O     O_2   0.638540 0.536570 0.671920 -0.437635
O15   O     O_3   0.496921 0.665550 0.699375 -0.612513
O16   O     O_2   0.507131 0.217291 0.531284 -0.490335
O17   O     O_3   0.428502 0.230029 0.663375 -0.599196
O18   O     O_3   0.390350 0.644650 0.417800 -0.485768
O19   O     O_2   0.352105 0.785217 0.486330 -0.479484
O20   O     O_3   0.014239 0.699750 0.660155 -0.621699
O21   O     O_3   0.351519 0.773009 0.346017 -0.595463
O22   O     O_2   0.171750 0.463380 0.328050 -0.464445
O23   O     O_3   0.965290 0.605410 0.380210 -0.487722
O24   O     O_2   0.051864 0.551840 0.251602 -0.487730
P1    P     P_3+3 0.992230 0.679190 0.566750 0.990522
P2    P     P_3+3 0.339610 0.439630 0.337240 0.982776
P3    P     P_3+3 0.932699 0.603620 0.287754 0.943568
P4    P     P_3+3 0.818060 0.320800 0.433200 0.980374
P5    P     P_3+3 0.869585 0.393683 0.712149 0.956645
P6    P     P_3+3 0.438991 0.745872 0.424178 0.958382
P7    P     P_3+3 0.463701 0.563318 0.675053 0.986131
P8    P     P_3+3 0.382185 0.253755 0.578185 0.945610
Br1   Br    Br    0.869446 0.680745 0.808043 -0.578897

loop_
_geom_bond_atom_site_label_1
_geom_bond_atom_site_label_2
_ccdc_geom_bond_type
C4    H19   S    
C14   H36   S    
O19   P6    D    
O13   P2    S    
O16   P8    D    
C40   P7    S    
C48   H14   S    
O17   P8    S    
C3    H17   S    
O24   P3    D    
C34   O7    S    
C23   H55   S    
C46   H7    S    
Ba2   O5    S    
C31   C37   A    
C47   H10   S    
C29   H51   S    
C47   O2    S    
C26   C27   A    
C33   C35   A    
C35   C36   A    
Ba1   O18   S    
C16   C17   A    
Ba1   O22   S    
Ba1   O5    S    
C7    H29   S    
C28   C29   A    
C32   C33   A    
Ba2   O6    S    
C24   H42   S    
C13   C14   S    
C44   H2    S    
C6    H26   S    
C7    O17   S    
C44   H3    S    
C12   O3    S    
Ba1   Ba2   S    
Ba1   O12   S    
C8    H34   S    
C17   C24   A    
O20   P1    S    
Ba2   O9    S    
C45   C46   S    
C14   C15   D    
C21   C22   D    
O6    P8    S    
C34   C44   S    
C7    C8    S    
Ba1   P1    S    
C13   C21   S    
C18   P4    S    
C19   C20   A    
C34   H57   S    
C6    H28   S    
C48   H13   S    
C5    O11   S    
O23   P3    S    
C12   H33   S    
C3    H18   S    
Ba1   P2    S    
C35   H48   S    
C31   C32   A    
C5    H24   S    
C19   H40   S    
C1    H11   S    
C4    H21   S    
Ba2   O4    S    
C46   Br1   S    
C2    H1    S    
O2    P2    S    
C26   P2    S    
C5    C6    S    
C36   C37   A    
C32   H45   S    
O15   P7    S    
Ba1   O23   S    
Ba2   O13   S    
C5    H25   S    
O18   P6    S    
C34   H56   S    
C3    O15   S    
C8    H32   S    
C40   C43   A    
O14   P7    D    
C41   C42   A    
C27   C28   A    
Ba2   O8    S    
C29   C30   A    
O8    P7    S    
O7    P4    S    
C44   H4    S    
O12   P1    S    
C18   C19   A    
C45   O20   S    
C33   C42   S    
O21   P6    S    
O22   P2    D    
C38   C39   A    
C21   H38   S    
C11   C13   D    
C6    H27   S    
C48   H12   S    
C20   C22   S    
O3    P3    S    
C1    H16   S    
C40   C41   A    
O5    P4    S    
C1    C2    S    
C31   H46   S    
O11   P5    S    
C45   H5    S    
C22   H35   S    
Ba2   O14   S    
C4    H20   S    
C9    C15   D    
C2    O21   S    
C11   H39   S    
C25   C30   A    
C16   C20   A    
Ba2   P4    S    
C36   H49   S    
C38   H50   S    
Ba2   O12   S    
C23   H54   S    
C46   H8    S    
O9    P5    S    
Ba1   O13   S    
C8    H31   S    
C16   H37   S    
C47   H9    S    
C27   H47   S    
C1    H22   S    
C30   P3    S    
O4    P4    D    
C3    C4    S    
C18   C24   A    
C2    H15   S    
C25   H53   S    
C41   H43   S    
C12   H44   S    
C28   C37   S    
C23   H23   S    
C12   C23   S    
O1    P1    D    
C43   H52   S    
Ba1   O1    S    
C9    H41   S    
C38   C42   A    
C10   C11   S    
C17   P8    S    
C47   C48   S    
C25   C26   A    
C39   C43   A    
C10   P6    S    
Ba1   O8    S    
O10   P5    D    
C7    H30   S    
C39   P5    S    
C9    C10   S    
C45   H6    S    
C15   P1    S    
