data_mof_unit_6488.cif
_audit_creation_date              2012-12-10T16:59:22-0500
_audit_creation_method            fapswitch 2.2
_symmetry_space_group_name_H-M    P1
_symmetry_Int_Tables_number       1
_space_group_crystal_system       triclinic
_cell_length_a                    13.116251
_cell_length_b                    13.054929
_cell_length_c                    17.808835
_cell_angle_alpha                 110.151863
_cell_angle_beta                  73.237281
_cell_angle_gamma                 91.39171
_cell_volume                      2731.53697255

loop_
_atom_site_label
_atom_site_type_symbol
_atom_type_description
_atom_site_fract_x
_atom_site_fract_y
_atom_site_fract_z
_atom_type_partial_charge
C1    C     C_R   0.216381 0.541682 0.531836 0.901285
C2    C     C_R   0.592466 0.397415 0.898189 -0.228289
C3    C     C_R   0.655344 0.348609 0.929284 -0.152660
C4    C     C_R   0.782330 0.457512 0.469274 0.762547
C5    C     C_R   0.627222 0.365229 0.014766 -0.062762
C6    C     C_R   0.529268 0.426257 0.068988 -0.074125
C7    C     C_R   0.696549 0.323369 0.046882 0.390343
C8    C     C_R   0.665134 0.336780 0.132250 0.252818
C9    C     C_R   0.509707 0.456170 0.156842 0.354720
C10   C     C_2   0.897626 0.445213 0.458332 0.260620
C11   C     C_2   0.932113 0.472209 0.526702 0.249706
C12   C     C_R   0.305175 0.619772 0.861399 -0.359887
C13   C     C_2   0.099424 0.548190 0.548739 -0.451060
C14   C     C_2   0.049432 0.460738 0.513462 0.432585
C15   C     C_2   0.532305 0.896857 0.529870 -0.392246
C16   C     C_R   0.469132 0.217540 0.476911 0.882258
C17   C     C_2   0.453133 0.949199 0.519736 0.377062
C18   C     C_2   0.451571 0.103943 0.471580 -0.430871
C19   C     C_2   0.460903 0.067353 0.531698 0.375302
C20   C     C_R   0.527869 0.782657 0.523691 0.918933
C21   C     C_R   0.551416 0.433747 0.276772 0.958339
C22   C     C_R   0.447003 0.564627 0.723659 0.824265
C23   C     C_R   0.472401 0.529399 0.844354 -0.239936
C24   C     C_R   0.409027 0.576419 0.812538 -0.068756
C25   C     C_R   0.574073 0.405999 0.186854 -0.280006
C26   C     C_R   0.263013 0.615268 0.942512 0.512759
C27   C     C_3   0.157726 0.648387 0.169004 0.132035
C28   C     C_3   0.038730 0.666336 0.215433 -0.790943
C29   C     C_3   0.880119 0.321680 0.007436 0.152469
C30   C     C_3   0.916241 0.383015 0.946048 -0.489982
C31   C     C_3   0.016322 0.441488 0.956121 -0.814154
C32   C     C_3   0.074908 0.274746 0.478385 0.103402
C33   C     C_3   0.147205 0.173191 0.417271 -0.800023
C34   C     C_R   0.431722 0.515253 0.921826 -0.052032
C35   C     C_3   0.886393 0.480011 0.664662 0.097623
C36   C     C_3   0.787988 0.494115 0.738779 -0.810769
C37   C     C_3   0.942614 0.336172 0.317906 0.097781
C38   C     C_3   0.037935 0.294867 0.239423 -0.753998
C39   C     C_3   0.410357 0.136314 0.675476 0.051046
C40   C     C_3   0.420834 0.233980 0.749945 -0.284050
C41   C     C_3   0.338650 0.236069 0.831234 -0.962230
C42   C     C_3   0.272061 0.939753 0.531707 0.046439
C43   C     C_3   0.226680 0.910601 0.610620 -0.319375
C44   C     C_3   0.113787 0.964398 0.659153 -0.983158
C45   C     C_R   0.325137 0.558295 0.971683 -0.044411
C46   C     C_3   0.457038 0.641519 0.213372 0.036659
C47   C     C_3   0.518879 0.695775 0.275810 -0.297034
C48   C     C_3   0.533535 0.815071 0.283947 -0.929555
C49   C     C_3   0.690713 0.191095 0.168954 0.104617
C50   C     C_3   0.745350 0.153141 0.221033 -0.342685
C51   C     C_3   0.703736 0.047218 0.231710 -0.978129
C52   C     C_3   0.134281 0.761532 0.989996 0.088311
C53   C     C_3   0.040761 0.820783 0.066463 -0.833281
C54   C     C_R   0.495160 0.459296 0.950665 0.098607
C55   C     C_R   0.458057 0.461370 0.033920 0.056721
C56   C     C_R   0.349517 0.492530 0.078057 -0.337674
C57   C     C_R   0.283341 0.542131 0.049016 0.435264
H1    H     H_    0.053137 0.624095 0.592364 0.137400
H2    H     H_    0.199334 0.629388 0.209532 0.136075
H3    H     H_    0.010705 0.592145 0.229594 0.262063
H4    H     H_    0.023239 0.737056 0.275166 0.200595
H5    H     H_    0.993247 0.683027 0.176538 0.261613
H6    H     H_    0.946405 0.261522 0.995947 0.166445
H7    H     H_    0.865837 0.380139 0.072926 0.160839
H8    H     H_    0.933338 0.324133 0.880748 0.232866
H9    H     H_    0.851382 0.444744 0.957516 0.226361
H10   H     H_    0.999995 0.502932 0.020410 0.302947
H11   H     H_    0.040809 0.484400 0.910448 0.266502
H12   H     H_    0.428868 0.049749 0.418303 0.133684
H13   H     H_    0.083118 0.381726 0.944301 0.260041
H14   H     H_    0.991577 0.259281 0.476870 0.121373
H15   H     H_    0.080679 0.287774 0.542190 0.101403
H16   H     H_    0.231161 0.185162 0.417747 0.269145
H17   H     H_    0.121636 0.101340 0.435724 0.187297
H18   H     H_    0.142604 0.156900 0.352906 0.249510
H19   H     H_    0.948277 0.529797 0.687852 0.140980
H20   H     H_    0.915340 0.391614 0.637535 0.106350
H21   H     H_    0.726839 0.441949 0.716784 0.255743
H22   H     H_    0.809019 0.468716 0.786281 0.196229
H23   H     H_    0.600336 0.939235 0.544517 0.128883
H24   H     H_    0.754920 0.581042 0.767951 0.256319
H25   H     H_    0.876845 0.366085 0.300933 0.168069
H26   H     H_    0.917597 0.266118 0.339372 0.106247
H27   H     H_    0.105251 0.263558 0.253863 0.264759
H28   H     H_    0.015598 0.227586 0.190111 0.186552
H29   H     H_    0.063968 0.362373 0.215523 0.261407
H30   H     H_    0.424719 0.059783 0.686506 0.140259
H31   H     H_    0.327231 0.142411 0.671956 0.126400
H32   H     H_    0.502463 0.228976 0.755889 0.224940
H33   H     H_    0.408443 0.311167 0.739281 0.234731
H34   H     H_    0.728121 0.300267 0.886029 0.180523
H35   H     H_    0.256358 0.244381 0.827451 0.258985
H36   H     H_    0.348363 0.306613 0.884568 0.278888
H37   H     H_    0.349792 0.159738 0.843316 0.264397
H38   H     H_    0.221075 0.907290 0.490008 0.168150
H39   H     H_    0.266282 0.029970 0.547454 0.115981
H40   H     H_    0.224943 0.820361 0.592326 0.254960
H41   H     H_    0.278529 0.938028 0.652125 0.210189
H42   H     H_    0.114122 0.054971 0.679773 0.259293
H43   H     H_    0.082948 0.941011 0.715448 0.272861
H44   H     H_    0.059735 0.936925 0.619422 0.268170
H45   H     H_    0.255626 0.652915 0.834695 0.156674
H46   H     H_    0.380918 0.692253 0.232190 0.159316
H47   H     H_    0.502829 0.641608 0.150052 0.134434
H48   H     H_    0.475092 0.692215 0.338289 0.251534
H49   H     H_    0.599038 0.651234 0.253865 0.219402
H50   H     H_    0.579022 0.820367 0.222434 0.252515
H51   H     H_    0.578651 0.852052 0.329450 0.276658
H52   H     H_    0.454609 0.862332 0.306733 0.269101
H53   H     H_    0.709193 0.127919 0.104971 0.164967
H54   H     H_    0.602665 0.199977 0.199820 0.131786
H55   H     H_    0.832997 0.139742 0.189819 0.221069
H56   H     H_    0.553746 0.503302 0.806429 0.160220
H57   H     H_    0.730225 0.217817 0.283981 0.200227
H58   H     H_    0.718755 0.980869 0.169640 0.265174
H59   H     H_    0.616630 0.059666 0.264958 0.266850
H60   H     H_    0.745517 0.021738 0.269299 0.268138
H61   H     H_    0.109440 0.752026 0.933496 0.143844
H62   H     H_    0.202933 0.813577 0.991402 0.130443
H63   H     H_    0.063831 0.837069 0.124517 0.246140
H64   H     H_    0.017242 0.900193 0.063602 0.208143
H65   H     H_    0.971313 0.770284 0.068292 0.258787
H66   H     H_    0.313368 0.473676 0.133955 0.221934
H67   H     H_    0.619710 0.380481 0.831654 0.138179
H68   H     H_    0.185381 0.725388 0.159142 0.137890
O1    O     O_3   0.500000 0.500000 0.500000 -0.493467
O2    O     O_R   0.474570 0.394560 0.317400 -0.635081
O3    O     O_R   0.403380 0.624270 0.695980 -0.651716
O4    O     O_R   0.609140 0.497770 0.314440 -0.655005
O5    O     O_R   0.512900 0.483390 0.672170 -0.638789
O6    O     O_3   0.174995 0.561978 0.091269 -0.568794
O7    O     O_3   0.791186 0.262315 0.993528 -0.640715
O8    O     O_3   0.108826 0.365302 0.454340 -0.535597
O9    O     O_3   0.858516 0.515925 0.606279 -0.627662
O10   O     O_3   0.972475 0.421977 0.379688 -0.590232
O11   O     O_3   0.486511 0.137980 0.601360 -0.614231
O12   O     O_R   0.526170 0.271940 0.521690 -0.577284
O13   O     O_3   0.376637 0.888896 0.487216 -0.653010
O14   O     O_3   0.430325 0.536099 0.215018 -0.645783
O15   O     O_3   0.729710 0.290961 0.163632 -0.644155
O16   O     O_3   0.158977 0.657357 0.991322 -0.581200
O17   O     O_R   0.451880 0.756290 0.574830 -0.638518
O18   O     O_R   0.271960 0.460780 0.472050 -0.560005
O19   O     O_R   0.749980 0.510990 0.431420 -0.639951
O20   O     O_R   0.262540 0.611050 0.579000 -0.673235
O21   O     O_R   0.715520 0.417170 0.517520 -0.622199
O22   O     O_R   0.426070 0.262540 0.438550 -0.671020
O23   O     O_R   0.595870 0.709230 0.464930 -0.642648
Zn1   Zn    Zn3+2 0.562560 0.419520 0.551940 0.991092
Zn2   Zn    Zn3+2 0.419550 0.406100 0.433160 0.997282
Zn3   Zn    Zn3+2 0.611810 0.553570 0.428930 0.976393
Zn4   Zn    Zn3+2 0.406080 0.620810 0.585960 0.955246

loop_
_geom_bond_atom_site_label_1
_geom_bond_atom_site_label_2
_ccdc_geom_bond_type
C55   C56   A    
C29   H6    S    
C42   O13   S    
C27   O6    S    
C1    O20   A    
C16   O12   A    
O23   Zn3   S    
C39   H30   S    
C6    C55   A    
C6    C9    A    
C53   H63   S    
C9    C25   A    
C7    C8    A    
C32   H15   S    
C48   H51   S    
C31   H10   S    
C45   C57   A    
C29   C30   S    
C38   H29   S    
C16   O22   A    
C42   H39   S    
C5    C6    A    
O4    Zn3   S    
O19   Zn3   S    
C53   H65   S    
O2    Zn2   S    
C32   O8    S    
C44   H42   S    
C29   O7    S    
C56   C57   A    
C3    H34   S    
C18   C19   D    
O17   Zn4   S    
C26   C45   A    
C51   H60   S    
C54   C55   A    
O1    Zn4   S    
O3    Zn4   S    
O18   Zn2   S    
C41   H36   S    
C47   C48   S    
C47   H48   S    
C23   C24   A    
C37   O10   S    
C17   O13   S    
C40   H32   S    
C21   O2    A    
C26   O16   S    
C49   H54   S    
C28   H4    S    
C47   H49   S    
C18   H12   S    
C48   H52   S    
C29   H7    S    
C13   C14   D    
C22   O5    A    
C8    C25   A    
O12   Zn1   S    
C15   C20   S    
C39   H31   S    
C9    O14   S    
C35   O9    S    
C33   H18   S    
C32   H14   S    
C39   O11   S    
C28   H3    S    
C31   H11   S    
C35   H19   S    
C38   H28   S    
C42   H38   S    
O20   Zn4   S    
C56   H66   S    
C20   O17   A    
O22   Zn2   S    
C10   O10   S    
C2    C54   A    
C11   O9    S    
C39   C40   S    
C5    C7    A    
C44   H43   S    
C51   H59   S    
C13   H1    S    
C19   O11   S    
C46   H47   S    
C35   H20   S    
C51   H58   S    
C12   C26   A    
C50   H57   S    
C35   C36   S    
C43   C44   S    
C12   H45   S    
C37   C38   S    
C1    O18   A    
C23   H56   S    
O21   Zn1   S    
O1    Zn3   S    
C22   O3    A    
C41   H37   S    
C36   H24   S    
C23   C34   A    
C4    O21   A    
O5    Zn1   S    
C50   H55   S    
C50   C51   S    
C34   C45   A    
C21   O4    A    
C7    O7    S    
C30   H9    S    
C33   H16   S    
C40   C41   S    
C34   C54   A    
C43   H41   S    
C22   C24   S    
C37   H25   S    
C1    C13   S    
C42   C43   S    
C4    C10   S    
C52   C53   S    
C46   O14   S    
C15   C17   D    
C21   C25   S    
C46   C47   S    
C38   H27   S    
C57   O6    S    
C43   H40   S    
C3    C5    A    
C36   H22   S    
C4    O19   A    
C44   H44   S    
C14   O8    S    
C2    H67   S    
C46   H46   S    
C12   C24   A    
C52   O16   S    
C36   H21   S    
C8    O15   S    
C32   C33   S    
C31   H13   S    
C2    C3    A    
C11   C14   S    
C27   H2    S    
O1    Zn2   S    
C20   O23   A    
C30   C31   S    
C27   H68   S    
C17   C19   S    
C15   H23   S    
C30   H8    S    
C10   C11   D    
C48   H50   S    
C52   H62   S    
C33   H17   S    
C41   H35   S    
C16   C18   S    
C49   C50   S    
C49   O15   S    
C27   C28   S    
C37   H26   S    
C53   H64   S    
C40   H33   S    
O1    Zn1   S    
C28   H5    S    
C49   H53   S    
C52   H61   S    
