data_mof_unit_66078.cif
_audit_creation_date              2012-12-10T20:48:21-0500
_audit_creation_method            fapswitch 2.2
_symmetry_space_group_name_H-M    P1
_symmetry_Int_Tables_number       1
_space_group_crystal_system       triclinic
_cell_length_a                    16.052073
_cell_length_b                    19.172077
_cell_length_c                    19.22033
_cell_angle_alpha                 94.545584
_cell_angle_beta                  94.950611
_cell_angle_gamma                 90.535906
_cell_volume                      5873.70363957

loop_
_atom_site_label
_atom_site_type_symbol
_atom_type_description
_atom_site_fract_x
_atom_site_fract_y
_atom_site_fract_z
_atom_type_partial_charge
C1    C     C_R   0.509633 0.310689 0.492250 0.903779
C2    C     C_R   0.459801 0.810777 0.559528 0.322894
C3    C     C_R   0.430401 0.126462 0.496729 0.433317
C4    C     C_R   0.491247 0.689545 0.506953 0.911431
C5    C     C_R   0.433800 0.198106 0.488802 -0.295013
C6    C     C_R   0.505615 0.089322 0.507075 0.198768
C7    C     C_R   0.510671 0.234143 0.492676 -0.183259
C8    C     C_R   0.586014 0.197042 0.502443 0.372023
C9    C     C_R   0.582201 0.125225 0.510368 -0.278517
C10   C     C_R   0.493156 0.487827 0.233552 -0.311699
C11   C     C_R   0.484585 0.550010 0.198103 0.242042
C12   C     C_1   0.111757 0.480181 0.484765 0.077983
C13   C     C_R   0.507065 0.549484 0.128233 0.318203
C14   C     C_R   0.523015 0.484568 0.091798 0.129497
C15   C     C_R   0.526590 0.423420 0.126275 -0.283794
C16   C     C_R   0.508933 0.508268 0.690284 0.884895
C17   C     C_R   0.514153 0.424280 0.197118 0.324211
C18   C     C_R   0.566017 0.487748 0.883880 -0.279441
C19   C     C_R   0.576106 0.491513 0.812548 0.322372
C20   C     C_R   0.487969 0.500753 0.910660 0.195648
C21   C     C_R   0.506092 0.507302 0.766696 -0.189308
C22   C     C_R   0.429042 0.521138 0.794135 -0.280850
C23   C     C_1   0.888405 0.517977 0.516768 0.118602
C24   C     C_R   0.420048 0.518166 0.865162 0.410891
C25   C     C_R   0.491991 0.491875 0.310083 1.020822
C26   C     C_R   0.724011 0.510069 0.509982 0.862115
C27   C     C_R   0.276015 0.490040 0.490167 0.817262
C28   C     C_1   0.813305 0.514385 0.513988 -0.012603
C29   C     C_2   0.978277 0.521910 0.519222 0.240664
C30   C     C_2   0.021941 0.474487 0.482068 0.304007
C31   C     C_1   0.186781 0.484923 0.487164 -0.032879
C32   C     C_R   0.480961 0.765448 0.502438 -0.241928
C33   C     C_R   0.490293 0.792380 0.437729 -0.324782
C34   C     C_R   0.479437 0.863253 0.428856 0.385066
C35   C     C_R   0.461062 0.908915 0.485963 0.074896
C36   C     C_R   0.449520 0.882524 0.551085 0.307084
Cl1   Cl    Cl    0.322014 0.536368 0.896359 -0.424330
Cl2   Cl    Cl    0.028384 0.591922 0.572405 -0.477242
Cl3   Cl    Cl    0.330903 0.087434 0.499043 -0.426642
Cl4   Cl    Cl    0.419900 0.939183 0.621452 -0.373862
Cl5   Cl    Cl    0.449605 0.779400 0.642481 -0.408332
H1    H     H_    0.505303 0.757656 0.393570 0.257291
H2    H     H_    0.588999 0.657204 0.999927 0.401685
H3    H     H_    0.373352 0.647250 0.332086 0.371216
H4    H     H_    0.778078 0.161528 0.533280 0.374123
H5    H     H_    0.423160 0.964546 0.280167 0.406699
H6    H     H_    0.619608 0.475712 0.918708 0.231858
H7    H     H_    0.540922 0.374934 0.097278 0.214228
H8    H     H_    0.374769 0.533416 0.760003 0.227697
H9    H     H_    0.375866 0.226470 0.482666 0.215481
H10   H     H_    0.639351 0.096302 0.518549 0.206086
H11   H     H_    0.012692 0.316326 0.362517 0.414398
H12   H     H_    0.664654 0.366705 0.771626 0.355097
H13   H     H_    0.519573 0.262400 0.155053 0.372117
N1    N     N_2   0.455126 0.981262 0.476934 -0.009331
N2    N     N_2   0.507892 0.016711 0.516392 -0.089833
N3    N     N_2   0.537024 0.479420 0.020032 -0.098630
N4    N     N_2   0.476183 0.500439 0.983100 -0.051228
O1    O     O_3   0.500000 0.500000 0.500000 -0.552482
O2    O     O_R   0.688130 0.469010 0.547620 -0.568276
O3    O     O_R   0.315580 0.449250 0.449280 -0.619699
O4    O     O_R   0.680710 0.547310 0.468650 -0.631899
O5    O     O_R   0.315580 0.534430 0.534450 -0.621592
O6    O     O_2   0.923998 0.359876 0.473052 -0.221477
O7    O     O_2   0.913821 0.431917 0.372926 -0.250014
O8    O     O_3   0.044960 0.354403 0.390980 -0.500871
O9    O     O_2   0.696778 0.535406 0.737159 -0.229966
O10   O     O_2   0.742683 0.482919 0.845525 -0.224364
O11   O     O_3   0.681841 0.400741 0.739200 -0.456269
O12   O     O_R   0.456860 0.545290 0.655940 -0.632497
O13   O     O_2   0.588260 0.358153 0.303437 -0.240601
O14   O     O_2   0.446300 0.319998 0.259652 -0.246570
O15   O     O_3   0.568380 0.282987 0.185010 -0.471188
O16   O     O_2   0.441902 0.648743 0.050019 -0.196975
O17   O     O_2   0.553990 0.686871 0.140262 -0.155082
O18   O     O_3   0.594944 0.616662 0.028767 -0.521026
O19   O     O_2   0.513667 0.670574 0.277372 -0.238702
O20   O     O_2   0.393145 0.668114 0.189566 -0.145539
O21   O     O_3   0.378651 0.604052 0.301012 -0.579774
O22   O     O_2   0.684185 0.288800 0.447383 -0.200029
O23   O     O_R   0.446440 0.450430 0.339790 -0.577276
O24   O     O_2   0.708393 0.276370 0.573145 -0.239487
O25   O     O_3   0.758929 0.177532 0.486893 -0.463899
O26   O     O_2   0.570064 0.939757 0.352347 -0.239972
O27   O     O_2   0.498671 0.835695 0.291361 -0.186287
O28   O     O_3   0.409230 0.944089 0.323540 -0.482571
O29   O     O_R   0.557290 0.347960 0.537250 -0.595453
O30   O     O_R   0.539410 0.656320 0.467010 -0.632606
O31   O     O_R   0.456880 0.340240 0.450910 -0.613678
O32   O     O_R   0.446420 0.655480 0.544820 -0.586924
O33   O     O_R   0.557280 0.467820 0.657110 -0.581780
O34   O     O_R   0.539420 0.536460 0.347160 -0.610051
S1    S     S_3+6 0.972635 0.403803 0.428751 0.083258
S2    S     S_3+6 0.677646 0.479360 0.784125 0.108767
S3    S     S_3+6 0.528779 0.345332 0.238770 0.100520
S4    S     S_3+6 0.523186 0.628447 0.087318 0.148278
S5    S     S_3+6 0.442591 0.626288 0.241127 0.122285
S6    S     S_3+6 0.685770 0.237650 0.502826 0.120442
S7    S     S_3+6 0.491946 0.895075 0.346460 0.119777
Zn1   Zn    Zn3+2 0.430910 0.557800 0.557800 1.055885
Zn2   Zn    Zn3+2 0.574380 0.447110 0.559460 1.127638
Zn3   Zn    Zn3+2 0.563780 0.559000 0.446630 1.079944
Zn4   Zn    Zn3+2 0.430930 0.436090 0.436110 1.095138

loop_
_geom_bond_atom_site_label_1
_geom_bond_atom_site_label_2
_ccdc_geom_bond_type
C1    O29   A    
N1    N2    D    
C16   C21   S    
O26   S7    D    
C35   C36   A    
C9    H10   S    
C3    C6    A    
H12   O11   S    
C18   H6    S    
C6    C9    A    
C7    C8    A    
O5    Zn1   S    
C33   H1    S    
C23   C29   S    
O3    Zn4   S    
O6    S1    D    
C18   C19   A    
C30   S1    S    
O13   S3    D    
C10   C17   A    
C2    C32   A    
C34   C35   A    
C8    S6    S    
C27   O3    A    
O29   Zn2   S    
O14   S3    D    
C20   C24   A    
C8    C9    A    
O25   S6    S    
C29   Cl2   S    
O9    S2    D    
O19   S5    D    
C17   S3    S    
O34   Zn3   S    
C12   C30   S    
O7    S1    D    
C3    Cl3   S    
C13   C14   A    
O31   Zn4   S    
C25   O23   A    
O1    Zn1   S    
O24   S6    D    
H4    O25   S    
C15   H7    S    
O33   Zn2   S    
O32   Zn1   S    
O12   Zn1   S    
O17   S4    D    
C33   C34   A    
C4    O32   A    
C13   S4    S    
C27   C31   S    
O1    Zn2   S    
O16   S4    D    
C36   Cl4   S    
C16   O12   A    
O11   S2    S    
C5    C7    A    
C35   N1    S    
O10   S2    D    
C29   C30   D    
O27   S7    D    
H13   O15   S    
O20   S5    D    
C24   Cl1   S    
C23   C28   T    
O28   S7    S    
C4    C32   S    
C19   S2    S    
C27   O5    A    
C22   H8    S    
C10   C25   S    
O8    S1    S    
C12   C31   T    
C22   C24   A    
C5    H9    S    
O15   S3    S    
C20   N4    S    
O2    Zn2   S    
H11   O8    S    
O23   Zn4   S    
C2    C36   A    
H2    O18   S    
C15   C17   A    
C14   N3    S    
C25   O34   A    
C1    O31   A    
C19   C21   A    
C1    C7    S    
O1    Zn3   S    
O21   S5    S    
H3    O21   S    
C6    N2    S    
C3    C5    A    
O30   Zn3   S    
C4    O30   A    
C34   S7    S    
C26   C28   S    
C11   S5    S    
O1    Zn4   S    
C32   C33   A    
C26   O4    A    
O18   S4    S    
C11   C13   A    
N3    N4    D    
O22   S6    D    
C18   C20   A    
C10   C11   A    
C16   O33   A    
C14   C15   A    
C2    Cl5   S    
O4    Zn3   S    
C21   C22   A    
C26   O2    A    
H5    O28   S    
