data_mof_unit_10057.cif
_audit_creation_date              2012-12-10T17:48:51-0500
_audit_creation_method            fapswitch 2.2
_symmetry_space_group_name_H-M    P1
_symmetry_Int_Tables_number       1
_space_group_crystal_system       triclinic
_cell_length_a                    10.725605
_cell_length_b                    14.812713
_cell_length_c                    14.869472
_cell_angle_alpha                 63.866674
_cell_angle_beta                  105.633923
_cell_angle_gamma                 102.572316
_cell_volume                      2028.99507958

loop_
_atom_site_label
_atom_site_type_symbol
_atom_type_description
_atom_site_fract_x
_atom_site_fract_y
_atom_site_fract_z
_atom_type_partial_charge
C1    C     C_R   0.478080 0.119952 0.312214 0.924485
C2    C     C_3   0.877655 0.998664 0.500438 -0.040180
C3    C     C_3   0.967553 0.012576 0.595759 -0.444786
C4    C     C_3   0.916833 0.086476 0.402040 0.098530
C5    C     C_R   0.451441 0.188592 0.203609 -0.129099
C6    C     C_R   0.521671 0.812026 0.795802 -0.053625
C7    C     C_R   0.325922 0.221243 0.032212 0.282951
C8    C     C_R   0.365008 0.154196 0.133042 -0.184478
C9    C     C_R   0.501004 0.291243 0.172150 0.225019
C10   C     C_R   0.443206 0.362015 0.076884 0.016367
C11   C     C_R   0.364267 0.325974 0.003270 0.042432
C12   C     C_R   0.260801 0.998594 0.502159 0.857402
C13   C     C_R   0.463336 0.467537 0.051943 0.050932
C14   C     C_R   0.436665 0.536231 0.948503 0.060098
C15   C     C_R   0.365656 0.498332 0.874950 -0.158320
C16   C     C_R   0.326091 0.395470 0.902799 -0.114615
C17   C     C_R   0.498027 0.505820 0.128007 -0.148109
C18   C     C_R   0.525839 0.609244 0.103619 0.238909
C19   C     C_R   0.521761 0.677655 0.001033 0.076458
C20   C     C_R   0.477884 0.640836 0.922863 0.042242
C21   C     C_R   0.560209 0.781901 0.974384 -0.108835
C22   C     C_R   0.559578 0.848450 0.872639 -0.192367
C23   C     C_R   0.519639 0.880121 0.687766 0.814719
C24   C     C_R   0.481444 0.708982 0.821507 -0.144639
C25   C     C_R   0.756602 0.303244 0.629011 -0.224656
C26   C     C_R   0.703374 0.211793 0.621463 0.035734
C27   C     C_R   0.509473 0.283436 0.514332 0.406873
C28   C     C_R   0.551087 0.372520 0.533578 -0.092965
C29   C     C_R   0.683538 0.386129 0.580289 0.044686
C30   C     C_R   0.471263 0.452182 0.500380 0.091302
C31   C     C_R   0.530374 0.549307 0.496657 0.053361
C32   C     C_R   0.667291 0.564811 0.521055 -0.139395
C33   C     C_R   0.741985 0.483920 0.570203 0.290394
C34   C     C_R   0.739917 0.998724 0.501698 0.841135
C35   C     C_R   0.334042 0.437255 0.475219 -0.141512
C36   C     C_R   0.260725 0.518831 0.425696 -0.120414
C37   C     C_R   0.318784 0.615438 0.417124 0.121098
C38   C     C_R   0.450665 0.628886 0.463935 -0.023888
C39   C     C_R   0.243653 0.696593 0.370637 -0.247188
C40   C     C_R   0.295963 0.787884 0.379001 0.074203
C41   C     C_R   0.491216 0.717074 0.484591 0.371354
C42   C     C_3   0.041296 0.895396 0.504491 0.122064
C43   C     C_3   0.898762 0.896153 0.504936 -0.339876
C44   C     C_3   0.111329 0.012978 0.596064 -0.412963
C45   C     C_3   0.063073 0.086818 0.403307 0.039138
C46   C     C_3   0.122213 0.997901 0.501589 -0.045798
Cu1   Cu    Cu3+1 0.465900 0.918260 0.475680 1.031776
Cu2   Cu    Cu3+1 0.534100 0.081740 0.524320 1.009013
H1    H     H_    0.906540 0.159317 0.402834 0.150201
H2    H     H_    0.166155 0.086360 0.595038 0.196218
H3    H     H_    0.267236 0.371191 0.844127 0.199364
H4    H     H_    0.457471 0.682266 0.761558 0.185347
H5    H     H_    0.590118 0.928184 0.854367 0.172715
H6    H     H_    0.327301 0.074905 0.156212 0.204623
H7    H     H_    0.043879 0.885416 0.435117 0.179867
H8    H     H_    0.592440 0.812819 0.031609 0.197310
H9    H     H_    0.237000 0.849868 0.344948 0.158350
H10   H     H_    0.761335 0.149113 0.656818 0.141355
H11   H     H_    0.835106 0.881172 0.439126 0.214004
H12   H     H_    0.281435 0.362477 0.493819 0.171892
H13   H     H_    0.871101 0.834131 0.575441 0.242121
H14   H     H_    0.155219 0.952601 0.668102 0.225626
H15   H     H_    0.115684 0.159104 0.406638 0.167711
N1    N     N_R   0.585360 0.204570 0.560800 -0.196002
N2    N     N_R   0.414550 0.795430 0.439160 -0.196530
O1    O     O_R   0.455060 0.022100 0.338110 -0.581447
O2    O     O_R   0.512640 0.160150 0.379180 -0.506845
O3    O     O_R   0.288900 0.930980 0.479450 -0.567299
O4    O     O_R   0.346480 0.069030 0.520520 -0.567316
O5    O     O_R   0.487360 0.839850 0.620820 -0.535087
O6    O     O_R   0.544940 0.977900 0.661890 -0.601199
O7    O     O_R   0.653520 0.930970 0.479480 -0.541242
O8    O     O_R   0.711100 0.069020 0.520550 -0.596868
Br1   Br    Br    0.111030 0.776752 0.621725 -0.473842
H16   H     H_    0.955357 0.085099 0.596216 0.192927
Br2   Br    Br    0.571695 0.651139 0.214967 -0.499263
Br3   Br    Br    0.213660 0.165264 0.939944 -0.481917
Br4   Br    Br    0.669859 0.327551 0.245149 -0.438101
H17   H     H_    0.331735 0.547193 0.796255 0.175725
H18   H     H_    0.498740 0.455617 0.207305 0.226906
Br5   Br    Br    0.926357 0.514390 0.612345 -0.448917
Br6   Br    Br    0.627242 0.710829 0.602113 -0.530446
H19   H     H_    0.156596 0.505106 0.399858 0.168229
H20   H     H_    0.855674 0.309010 0.670412 0.201246
Br7   Br    Br    0.370928 0.287236 0.398657 -0.514942
H21   H     H_    0.718235 0.640222 0.502171 0.203984
H22   H     H_    0.143735 0.688361 0.331228 0.172804
H23   H     H_    0.940693 0.950388 0.666838 0.209626
Br8   Br    Br    0.097236 0.089792 0.278475 -0.439576
Br9   Br    Br    0.794569 0.083552 0.277931 -0.396283

loop_
_geom_bond_atom_site_label_1
_geom_bond_atom_site_label_2
_ccdc_geom_bond_type
C24   H4    S    
C12   O4    A    
C19   C20   A    
C16   H3    S    
C39   H22   S    
Cu2   O4    S    
C7    C8    A    
C45   C46   S    
C7    C11   A    
C12   O3    A    
C30   C35   A    
C1    C5    S    
C36   C37   A    
C19   C21   A    
C30   C31   A    
Cu2   N1    S    
C41   Br6   S    
C36   H19   S    
C15   C16   A    
C6    C22   A    
C29   C33   A    
C18   C19   A    
C42   C46   S    
C27   Br7   S    
C26   N1    A    
C15   H17   S    
Cu1   Cu2   S    
C25   H20   S    
C3    H16   S    
C9    C10   A    
Cu1   O1    S    
C43   H11   S    
C7    Br3   S    
C2    C34   S    
C6    C24   A    
C21   C22   A    
C23   O5    A    
C44   C46   S    
C17   C18   A    
C22   H5    S    
C4    Br9   S    
C4    C45   S    
C25   C29   A    
C3    C44   S    
C42   Br1   S    
C23   O6    A    
C38   C41   A    
C12   C46   S    
C10   C11   A    
C8    H6    S    
C39   C40   A    
C41   N2    A    
C44   H14   S    
C25   C26   A    
C45   H15   S    
C17   H18   S    
C35   H12   S    
C35   C36   A    
C2    C4    S    
Cu1   O5    S    
C5    C9    A    
C37   C38   A    
C14   C20   A    
C42   H7    S    
C21   H8    S    
C11   C16   A    
C31   C32   A    
C2    C43   S    
C32   H21   S    
C1    O1    A    
C26   H10   S    
C40   N2    A    
C42   C43   S    
Cu2   O6    S    
C34   O7    A    
Cu1   O3    S    
C45   Br8   S    
C43   H13   S    
C44   H2    S    
C28   C29   A    
C18   Br2   S    
C40   H9    S    
C3    H23   S    
Cu2   O8    S    
C10   C13   A    
C5    C8    A    
C31   C38   A    
C13   C17   A    
C4    H1    S    
C32   C33   A    
C28   C30   A    
C2    C3    S    
C37   C39   A    
C6    C23   S    
C1    O2    A    
C9    Br4   S    
Cu2   O2    S    
C20   C24   A    
Cu1   O7    S    
C27   N1    A    
C34   O8    A    
C27   C28   A    
C14   C15   A    
C13   C14   A    
C33   Br5   S    
Cu1   N2    S    
