data_mof_unit_25065.cif
_audit_creation_date              2013-03-05T15:50:42-0500
_audit_creation_method            fapswitch 2.2
_symmetry_space_group_name_H-M    P1
_symmetry_Int_Tables_number       1
_space_group_crystal_system       triclinic
_cell_length_a                    14.979432
_cell_length_b                    10.826291
_cell_length_c                    9.681893
_cell_angle_alpha                 90.524805
_cell_angle_beta                  89.868104
_cell_angle_gamma                 94.335155
_cell_volume                      1565.56900101

loop_
_atom_site_label
_atom_site_type_symbol
_atom_site_description
_atom_site_fract_x
_atom_site_fract_y
_atom_site_fract_z
_atom_type_partial_charge
O1    O     O_R   0.499990 0.319640 0.618810 -0.549943
O2    O     O_R   0.500000 0.319660 0.381240 -0.558516
C1    C     C_R   0.504385 0.262253 0.500532 0.812155
O3    O     O_R   0.370250 0.499960 0.618800 -0.548822
O4    O     O_R   0.370260 0.499980 0.381230 -0.538398
C2    C     C_R   0.329417 0.498809 0.500167 0.799619
Cu1   Cu    Cu3+1 0.499990 0.499990 0.640660 1.015943
Cu2   Cu    Cu3+1 0.500010 0.500010 0.359340 1.008206
O5    O     O_R   0.500000 0.680340 0.618760 -0.606735
O6    O     O_R   0.500010 0.680360 0.381190 -0.571678
O7    O     O_R   0.629740 0.500020 0.618770 -0.533113
O8    O     O_R   0.629750 0.500040 0.381200 -0.598379
C3    C     C_R   0.488198 0.735205 0.501000 0.786100
C4    C     C_R   0.670887 0.499355 0.499979 0.781129
C5    C     C_R   0.820234 0.607108 0.472365 -0.127487
C6    C     C_R   0.767766 0.498798 0.500569 -0.030665
C7    C     C_R   0.807234 0.390852 0.534025 -0.140860
C8    C     C_R   0.900636 0.388720 0.540108 0.086554
C9    C     C_R   0.953912 0.498239 0.506473 -0.006109
C10   C     C_R   0.913534 0.608978 0.473890 0.020515
C11   C     C_R   0.941563 0.279993 0.578336 0.018264
C12   C     C_R   0.035879 0.280938 0.579022 0.351698
C13   C     C_R   0.088557 0.388899 0.541477 -0.030759
C14   C     C_R   0.047441 0.497323 0.504925 0.017002
C15   C     C_R   0.100312 0.605352 0.466511 0.080846
C16   C     C_R   0.060216 0.713733 0.434367 -0.210278
C17   C     C_R   0.967421 0.717897 0.440758 0.335578
C18   C     C_R   0.182229 0.391536 0.541109 -0.069875
C19   C     C_R   0.233300 0.498020 0.500739 -0.039042
C20   C     C_R   0.193118 0.604203 0.462688 -0.178780
H1    H     H_    0.787522 0.689734 0.450546 0.179370
H2    H     H_    0.764146 0.308710 0.553025 0.118325
H3    H     H_    0.216400 0.311136 0.570728 0.199072
H4    H     H_    0.234395 0.686421 0.433106 0.124959
H5    H     H_    0.101474 0.796790 0.407781 0.204755
H6    H     H_    0.469010 0.110332 0.288410 0.210651
C21   C     C_R   0.542415 0.110732 0.758575 0.178587
C22   C     C_R   0.509074 0.058223 0.881888 -0.011569
H7    H     H_    0.527228 0.100676 0.980617 0.183575
C23   C     C_R   0.454213 0.948780 0.878582 -0.137355
H8    H     H_    0.426793 0.909421 0.972694 0.149359
C24   C     C_R   0.442132 0.883238 0.755130 -0.144231
H9    H     H_    0.403004 0.795042 0.756976 0.172712
C25   C     C_R   0.475941 0.934587 0.630638 0.019243
C26   C     C_R   0.510241 0.059443 0.630066 0.106433
C27   C     C_R   0.504888 0.126001 0.503787 -0.162002
C28   C     C_R   0.477532 0.061195 0.383132 -0.089189
C29   C     C_R   0.458115 0.933353 0.383099 0.201062
C30   C     C_R   0.470579 0.867805 0.505057 -0.123024
C31   C     C_R   0.601573 0.697694 0.132748 0.115736
C32   C     C_R   0.612526 0.806479 0.051807 0.221515
C33   C     C_R   0.618518 0.790749 0.908895 -0.339348
H10   H     H_    0.648007 0.865968 0.846853 0.227127
C34   C     C_R   0.615830 0.670595 0.856410 0.380155
C35   C     C_R   0.557803 0.582581 0.925114 -0.003286
C36   C     C_R   0.554243 0.589460 0.073033 0.040766
N1    N     N_R   0.500860 0.501210 0.147910 -0.249267
C37   C     C_R   0.442738 0.422298 0.072778 0.329814
C38   C     C_R   0.440870 0.425382 0.925236 0.315968
N2    N     N_R   0.500890 0.501290 0.852040 -0.283045
C39   C     C_3   0.620731 0.205774 0.769697 -0.732514
H11   H     H_    0.675843 0.166463 0.827075 0.251072
H12   H     H_    0.647120 0.231547 0.666695 0.198948
H13   H     H_    0.601323 0.289300 0.826187 0.258531
C40   C     C_3   0.411579 0.872431 0.259827 -0.768318
H14   H     H_    0.360225 0.799490 0.293455 0.220774
H15   H     H_    0.376136 0.940700 0.199916 0.243087
H16   H     H_    0.460224 0.830534 0.191825 0.235945
N3    N     N_R   0.377253 0.341975 0.141645 0.164816
O9    O     O_R   0.299046 0.382093 0.166235 -0.287064
O10   O     O_R   0.382607 0.223163 0.129585 -0.375939
C41   C     C_3   0.682267 0.685354 0.221355 -0.601233
H17   H     H_    0.709017 0.593567 0.204892 0.226788
H18   H     H_    0.740126 0.750711 0.192553 0.237908
H19   H     H_    0.665402 0.708978 0.329093 0.235022
N4    N     N_R   0.643255 0.923919 0.113810 0.136020
O11   O     O_R   0.636472 0.941529 0.246351 -0.363753
O12   O     O_R   0.684750 0.010504 0.040343 -0.360428
N5    N     N_R   0.700701 0.634397 0.807302 0.146172
O13   O     O_R   0.730783 0.531128 0.848536 -0.348869
O14   O     O_R   0.754671 0.713329 0.741345 -0.339961
N6    N     N_R   0.368827 0.357817 0.854380 0.174410
O15   O     O_R   0.289802 0.400027 0.857319 -0.301329
O16   O     O_R   0.375847 0.243039 0.818742 -0.322252
C42   C     C_3   0.884790 0.163866 0.618411 -0.623090
H20   H     H_    0.842224 0.130834 0.529804 0.249260
H21   H     H_    0.924545 0.086406 0.648767 0.297282
H22   H     H_    0.841617 0.184278 0.707896 0.217792
N7    N     N_R   0.078337 0.171831 0.616686 0.114767
O17   O     O_R   0.111124 0.102467 0.521649 -0.309743
O18   O     O_R   0.086858 0.144219 0.746268 -0.280199
N8    N     N_R   0.929604 0.833489 0.414378 0.125846
O19   O     O_R   0.875175 0.878048 0.503591 -0.341614
O20   O     O_R   0.962306 0.904851 0.316263 -0.289169

loop_
_geom_bond_atom_site_label_1
_geom_bond_atom_site_label_2
_geom_bond_distance
_ccdc_geom_bond_type
C25   C30   1.408222 A    
C35   C36   1.434464 A    
C8    C11   1.420050 A    
C9    C10   1.421307 A    
C38   N6    1.430081 S    
Cu1   Cu2   2.723711 S    
C42   H20   1.110333 S    
C33   H10   1.082804 S    
Cu1   O7    1.954592 S    
C16   C17   1.395362 A    
C21   C22   1.401705 A    
C18   C19   1.393053 A    
N4    O12   1.301184 A    
C41   H19   1.104976 S    
C22   H7    1.083116 S    
O7    C4    1.303836 A    
C5    C6    1.390258 A    
C36   N1    1.404401 A    
H6    C28   1.077067 S    
N3    O10   1.299006 A    
C8    C9    1.418301 A    
C39   H12   1.102382 S    
C31   C41   1.498723 S    
O5    C3    1.308892 A    
C27   C28   1.403041 A    
C6    C7    1.390136 A    
C40   H15   1.110497 S    
C13   C14   1.414346 A    
C29   C40   1.505089 S    
N7    O18   1.301172 A    
C23   C24   1.389568 A    
C38   N2    1.371838 A    
C11   C12   1.412105 A    
C39   H11   1.109422 S    
C24   C25   1.408976 A    
O3    Cu1   1.955383 S    
C33   C34   1.389984 A    
C7    C8    1.402422 A    
C42   H21   1.106837 S    
C5    C10   1.396313 A    
C11   C42   1.516635 S    
C20   H4    1.085032 S    
C32   C33   1.396060 A    
C14   C15   1.414205 A    
C41   H18   1.113267 S    
N5    O14   1.301839 A    
C15   C16   1.395872 A    
C26   C27   1.430311 A    
C31   C36   1.440084 A    
O1    C1    1.301739 A    
C39   H13   1.109651 S    
C19   C20   1.390280 A    
Cu2   N1    2.047208 S    
C28   C29   1.392608 A    
Cu2   O8    1.955382 S    
C40   H16   1.101126 S    
N8    O20   1.301272 A    
C31   C32   1.419585 A    
C17   N8    1.437332 S    
C13   C18   1.401274 A    
N4    O11   1.300478 A    
C3    C30   1.479269 S    
O3    C2    1.302064 A    
C29   C30   1.403237 A    
O8    C4    1.306291 A    
C18   H3    1.083745 S    
N6    O15   1.300884 A    
N6    O16   1.298445 A    
C4    C6    1.451680 S    
C24   H9    1.082236 S    
C21   C26   1.427689 A    
Cu1   N2    2.046545 S    
C25   C26   1.409361 A    
C34   N5    1.437010 S    
C42   H22   1.110490 S    
C15   C20   1.391591 A    
Cu1   O5    1.965918 S    
C34   C35   1.410566 A    
C23   H8    1.076781 S    
O1    Cu1   1.962021 S    
O2    Cu2   1.965920 S    
C41   H17   1.109246 S    
O6    C3    1.315969 A    
O4    Cu2   1.954592 S    
C21   C39   1.504210 S    
C37   N3    1.428870 S    
C5    H1    1.074769 S    
C10   C17   1.416612 A    
C1    C27   1.476309 S    
O2    C1    1.320687 A    
C37   C38   1.429570 A    
C22   C23   1.390138 A    
N1    C37   1.376984 A    
O4    C2    1.302438 A    
N8    O19   1.300806 A    
C12   N7    1.433624 S    
C9    C14   1.401839 A    
N3    O9    1.300575 A    
N5    O13   1.302913 A    
C16   H5    1.084554 S    
C2    C19   1.439154 S    
Cu2   O6    1.962021 S    
C40   H14   1.110439 S    
C32   N4    1.444861 S    
C7    H2    1.075612 S    
C12   C13   1.409947 A    
N7    O17   1.301075 A    
C35   N2    1.371069 A    
