data_mof_unit_29936.cif
_audit_creation_date              2013-03-05T15:48:53-0500
_audit_creation_method            fapswitch 2.2
_symmetry_space_group_name_H-M    P1
_symmetry_Int_Tables_number       1
_space_group_crystal_system       triclinic
_cell_length_a                    15.992551
_cell_length_b                    12.975747
_cell_length_c                    11.776462
_cell_angle_alpha                 99.303606
_cell_angle_beta                  95.346956
_cell_angle_gamma                 90.947097
_cell_volume                      2399.91360738

loop_
_atom_site_label
_atom_site_type_symbol
_atom_site_description
_atom_site_fract_x
_atom_site_fract_y
_atom_site_fract_z
_atom_type_partial_charge
O1    O     O_R   0.504390 0.354460 0.582000 -0.572158
O2    O     O_R   0.493940 0.341410 0.386200 -0.519489
C1    C     C_R   0.507606 0.299892 0.479397 0.871067
O3    O     O_R   0.384660 0.506540 0.597940 -0.548635
O4    O     O_R   0.374210 0.493480 0.402140 -0.548700
C2    C     C_R   0.340323 0.499206 0.498096 0.831874
Cu1   Cu    Cu3+1 0.506190 0.507730 0.615930 1.039698
Cu2   Cu    Cu3+1 0.493810 0.492270 0.384070 1.091957
O5    O     O_R   0.506060 0.658590 0.613800 -0.568555
O6    O     O_R   0.495610 0.645540 0.418000 -0.537308
O7    O     O_R   0.625790 0.506520 0.597860 -0.545921
O8    O     O_R   0.615340 0.493460 0.402060 -0.563597
C3    C     C_R   0.491102 0.700148 0.520701 0.817337
C4    C     C_R   0.659821 0.501577 0.501284 0.797652
C5    C     C_3   0.058816 0.428011 0.575201 0.400982
C6    C     C_3   0.036392 0.447896 0.347350 0.178879
C7    C     C_3   0.933280 0.446875 0.362170 0.396438
C8    C     C_1   0.749553 0.504481 0.504026 -0.048572
C9    C     C_3   0.081976 0.495677 0.476739 -0.173601
C10   C     C_3   0.957837 0.432735 0.591714 0.170612
C11   C     C_3   0.917299 0.503952 0.496663 -0.177552
C12   C     C_3   0.957515 0.625765 0.527987 0.122013
C13   C     C_3   0.054121 0.615438 0.504308 -0.151037
C14   C     C_1   0.825055 0.506163 0.503396 0.154633
C15   C     C_1   0.175060 0.496237 0.480407 0.146393
C16   C     C_1   0.250714 0.497421 0.490410 -0.012945
H1    H     H_    0.050110 0.641602 0.422426 0.164991
C17   C     C_R   0.476975 0.814249 0.531930 -0.247745
C18   C     C_R   0.521616 0.186398 0.467364 -0.218526
C19   C     C_R   0.502770 0.017982 0.343110 0.284574
C20   C     C_R   0.518780 0.125770 0.356574 0.225436
C21   C     C_R   0.534847 0.136510 0.565264 0.065452
C22   C     C_R   0.507320 0.030345 0.554366 -0.085299
C23   C     C_R   0.492995 0.969579 0.441681 -0.185959
C24   C     C_R   0.474241 0.861514 0.431763 0.293016
C25   C     C_R   0.468983 0.877502 0.640675 -0.023313
C26   C     C_R   0.488610 0.985375 0.652324 0.336491
N1    N     N_R   0.515490 0.519350 0.790130 -0.309800
N2    N     N_R   0.484510 0.480650 0.209890 -0.255760
C27   C     C_R   0.408268 0.417357 0.024154 0.194006
C28   C     C_R   0.418855 0.424185 0.145086 0.445735
C29   C     C_R   0.542455 0.529000 0.156651 0.103877
C30   C     C_R   0.536440 0.522954 0.033793 -0.069816
C31   C     C_R   0.466500 0.469404 0.966247 -0.208119
C32   C     C_R   0.457269 0.469262 0.843812 0.402698
C33   C     C_R   0.583723 0.570772 0.855994 0.447083
C34   C     C_R   0.597795 0.569818 0.977146 -0.076378
H2    H     H_    0.591846 0.574716 0.211768 0.162523
C35   C     C_3   0.910854 0.321728 0.583792 -0.342462
C36   C     C_3   0.940227 0.258314 0.680618 -0.233702
C37   C     C_3   0.916635 0.141953 0.647047 -0.825675
H3    H     H_    0.847971 0.130284 0.624041 0.244673
H4    H     H_    0.949969 0.106720 0.572349 0.289135
H5    H     H_    0.935046 0.101018 0.720947 0.255894
H6    H     H_    0.009200 0.266122 0.702108 0.284237
H7    H     H_    0.910442 0.288004 0.760497 0.253290
H8    H     H_    0.842807 0.333708 0.589524 0.192225
H9    H     H_    0.909644 0.268767 0.503407 0.273784
N3    N     N_R   0.108893 0.470481 0.686973 0.167321
O9    O     O_R   0.109736 0.568654 0.731447 -0.407500
O10   O     O_R   0.140670 0.407177 0.753778 -0.211254
N4    N     N_R   0.940559 0.480671 0.711519 0.123222
O11   O     O_R   0.987154 0.462591 0.802399 -0.325639
O12   O     O_R   0.863829 0.503489 0.730468 -0.376968
C38   C     C_3   0.912849 0.700435 0.446327 -0.366196
C39   C     C_3   0.942146 0.817484 0.468211 -0.432070
C40   C     C_3   0.901191 0.876223 0.376510 -0.783133
H10   H     H_    0.917373 0.840818 0.289324 0.261975
H11   H     H_    0.831945 0.874966 0.378968 0.256971
H12   H     H_    0.924462 0.958919 0.394002 0.274467
H13   H     H_    0.926600 0.859577 0.552562 0.229539
H14   H     H_    0.010603 0.825190 0.466456 0.240841
H15   H     H_    0.924284 0.673890 0.355850 0.224750
H16   H     H_    0.843822 0.697344 0.450473 0.224784
N5    N     N_R   0.444603 0.800654 0.321997 0.171549
O13   O     O_R   0.365611 0.771947 0.301248 -0.352735
O14   O     O_R   0.497762 0.757903 0.252893 -0.355401
C41   C     C_3   0.436715 0.831254 0.741877 -0.330495
C42   C     C_3   0.365155 0.890877 0.801056 -0.321509
C43   C     C_3   0.308105 0.818638 0.852747 -0.744626
H17   H     H_    0.275873 0.758722 0.783923 0.245538
H18   H     H_    0.345561 0.779032 0.916338 0.287069
H19   H     H_    0.259588 0.865100 0.897572 0.271878
H20   H     H_    0.391613 0.951094 0.873783 0.318199
H21   H     H_    0.326554 0.930756 0.739140 0.241488
H22   H     H_    0.410272 0.751460 0.710664 0.210142
H23   H     H_    0.489953 0.825906 0.807987 0.264225
N6    N     N_R   0.499999 0.959190 0.228919 0.187766
O15   O     O_R   0.428848 0.945811 0.164234 -0.254571
O16   O     O_R   0.569689 0.941393 0.181341 -0.322623
N7    N     N_R   0.481712 0.050511 0.761384 0.080353
O17   O     O_R   0.426600 0.123185 0.769364 -0.279808
O18   O     O_R   0.529040 0.035881 0.853176 -0.325772
N8    N     N_R   0.541736 0.171652 0.259713 0.169415
O19   O     O_R   0.499194 0.149150 0.158722 -0.206870
O20   O     O_R   0.610646 0.228611 0.270014 -0.305362
C44   C     C_3   0.586454 0.191717 0.675133 -0.277891
C45   C     C_3   0.668085 0.246373 0.653509 -0.450331
C46   C     C_3   0.711809 0.303820 0.767655 -0.683059
H24   H     H_    0.669196 0.360915 0.811100 0.259415
H25   H     H_    0.731261 0.247420 0.825942 0.262192
H26   H     H_    0.768256 0.347296 0.751514 0.276859
H27   H     H_    0.710323 0.187246 0.613041 0.223261
H28   H     H_    0.656600 0.303638 0.594275 0.234282
H29   H     H_    0.547055 0.247431 0.726607 0.263158
H30   H     H_    0.608858 0.133808 0.729415 0.231884
N9    N     N_R   0.382907 0.423455 0.777466 0.172721
O21   O     O_R   0.382371 0.328677 0.720915 -0.256227
O22   O     O_R   0.313364 0.474042 0.781322 -0.279631
N10   N     N_R   0.089391 0.319485 0.541885 0.125043
O23   O     O_R   0.168861 0.301283 0.562543 -0.227174
O24   O     O_R   0.044403 0.244360 0.477586 -0.324763
N11   N     N_R   0.642458 0.626055 0.802146 0.131965
O25   O     O_R   0.629161 0.722003 0.788398 -0.400823
O26   O     O_R   0.715973 0.588049 0.787513 -0.378492
N12   N     N_R   0.339584 0.352988 0.962973 0.190341
O27   O     O_R   0.349062 0.252861 0.937813 -0.202614
O28   O     O_R   0.263877 0.388102 0.963269 -0.255306
C47   C     C_3   0.680380 0.614794 0.042954 -0.377025
C48   C     C_3   0.675500 0.731965 0.086326 -0.278311
C49   C     C_3   0.760601 0.778046 0.141743 -0.791872
H31   H     H_    0.782480 0.737485 0.214630 0.272933
H32   H     H_    0.807563 0.769418 0.077295 0.258096
H33   H     H_    0.754886 0.862446 0.175063 0.276050
H34   H     H_    0.654537 0.773525 0.013887 0.278356
H35   H     H_    0.629518 0.744884 0.151460 0.274619
H36   H     H_    0.699256 0.573069 0.115785 0.239279
H37   H     H_    0.733225 0.600320 0.988891 0.266433
N13   N     N_R   0.357633 0.373286 0.199726 0.166021
O29   O     O_R   0.283839 0.412960 0.206761 -0.340466
O30   O     O_R   0.366817 0.276551 0.213088 -0.252543
C50   C     C_3   0.064086 0.521235 0.256810 -0.427806
C51   C     C_3   0.081534 0.473472 0.132012 -0.175391
C52   C     C_3   0.108404 0.558181 0.065195 -0.695742
H38   H     H_    0.057451 0.614458 0.057056 0.247158
H39   H     H_    0.166217 0.600761 0.109749 0.256164
H40   H     H_    0.121875 0.521818 0.977133 0.324168
H41   H     H_    0.133064 0.417666 0.134080 0.299233
H42   H     H_    0.025747 0.431447 0.081956 0.289870
H43   H     H_    0.019618 0.584453 0.247507 0.189999
H44   H     H_    0.124888 0.561242 0.292132 0.188180
N14   N     N_R   0.068251 0.343377 0.301035 0.217967
O31   O     O_R   0.145164 0.319863 0.330268 -0.244502
O32   O     O_R   0.035133 0.293555 0.201503 -0.264213
N15   N     N_R   0.889838 0.341298 0.339243 0.130754
O33   O     O_R   0.808014 0.335745 0.330427 -0.297378
O34   O     O_R   0.926336 0.253254 0.313204 -0.260108
N16   N     N_R   0.888750 0.499210 0.271339 0.097231
O35   O     O_R   0.817809 0.544162 0.288138 -0.413322
O36   O     O_R   0.897843 0.461847 0.164088 -0.316400
C53   C     C_3   0.124497 0.701498 0.562374 -0.374148
C54   C     C_3   0.176038 0.744978 0.473436 -0.438258
C55   C     C_3   0.241586 0.827337 0.532165 -0.749294
H45   H     H_    0.212119 0.889849 0.589656 0.262133
H46   H     H_    0.290534 0.789481 0.582312 0.237071
H47   H     H_    0.271692 0.863250 0.466217 0.288029
H48   H     H_    0.209081 0.681806 0.422562 0.233635
H49   H     H_    0.134466 0.780636 0.410776 0.236026
H50   H     H_    0.098928 0.770164 0.613260 0.206497
H51   H     H_    0.171088 0.670861 0.622391 0.260856
C56   C     C_3   0.948986 0.686095 0.655841 -0.245042
C57   C     C_3   0.860600 0.720065 0.688737 -0.330972
C58   C     C_3   0.862553 0.761879 0.818092 -0.698300
H52   H     H_    0.908123 0.829076 0.842959 0.225965
H53   H     H_    0.799398 0.788810 0.838918 0.279915
H54   H     H_    0.880661 0.699728 0.869506 0.286530
H55   H     H_    0.836967 0.782859 0.642102 0.194844
H56   H     H_    0.813169 0.656716 0.665998 0.289693
H57   H     H_    0.981773 0.650154 0.723986 0.270781
H58   H     H_    0.984039 0.761170 0.670496 0.154804

loop_
_geom_bond_atom_site_label_1
_geom_bond_atom_site_label_2
_geom_bond_distance
_ccdc_geom_bond_type
C41   H23   1.109843 S    
C4    C8    1.432139 S    
C9    C13   1.614141 S    
C58   H52   1.110768 S    
N5    O13   1.300700 A    
C52   H40   1.109647 S    
C56   C57   1.552365 S    
C35   H8    1.108559 S    
Cu1   Cu2   2.693668 S    
N2    C28   1.366066 A    
C27   N12   1.432094 S    
C48   C49   1.522199 S    
C5    C9    1.628212 S    
C24   N5    1.436189 S    
N4    O11   1.301570 A    
C8    C14   1.208039 T    
O4    C2    1.290145 A    
C25   C26   1.411369 A    
C58   H53   1.110179 S    
N16   O36   1.300008 A    
C57   C58   1.529473 S    
C18   C21   1.411875 A    
C43   H19   1.110432 S    
N15   O33   1.302868 A    
C19   C20   1.398476 A    
O7    C4    1.298747 A    
C48   H35   1.106728 S    
C45   H27   1.109483 S    
C44   C45   1.536832 S    
C38   H15   1.098683 S    
C21   C44   1.533021 S    
C23   C24   1.412959 A    
C1    C18   1.479326 S    
O5    C3    1.302530 A    
N10   O23   1.304265 A    
N1    C32   1.382596 A    
N4    O12   1.298050 A    
C54   H48   1.106645 S    
C39   H14   1.100130 S    
C46   H24   1.110940 S    
C17   C24   1.412348 A    
C50   C51   1.552276 S    
C49   H33   1.110278 S    
N9    O21   1.299917 A    
C3    C17   1.487913 S    
Cu2   N2    2.023555 S    
C13   H1    1.069702 S    
C55   H46   1.105968 S    
Cu2   O8    1.934892 S    
C56   H57   1.089553 S    
C47   H37   1.105315 S    
C41   H22   1.104290 S    
C34   C47   1.524162 S    
C39   C40   1.525428 S    
N3    O9    1.296000 A    
C11   C12   1.667847 S    
N9    O22   1.301444 A    
C5    N10   1.501983 S    
O3    Cu1   1.934894 S    
C6    C50   1.625042 S    
N15   O34   1.296932 A    
Cu1   O7    1.944160 S    
N2    C29   1.364435 A    
N10   O24   1.295329 A    
C12   C13   1.599289 S    
C5    C10   1.645440 S    
C54   H49   1.108925 S    
N3    O10   1.303906 A    
N1    C33   1.374205 A    
C19   C23   1.425731 A    
C37   H3    1.108138 S    
C58   H54   1.110742 S    
C22   C23   1.426272 A    
N16   O35   1.301111 A    
C43   H18   1.111206 S    
N7    O17   1.299680 A    
C12   C56   1.599739 S    
C26   N7    1.433373 S    
C41   C42   1.548398 S    
C6    C7    1.674384 S    
C52   H39   1.111033 S    
C15   C16   1.204253 T    
C36   H7    1.110227 S    
C35   H9    1.074518 S    
C40   H10   1.110479 S    
O1    C1    1.303893 A    
C53   H50   1.097848 S    
C6    N14   1.493946 S    
C30   C31   1.412954 A    
C12   C38   1.603103 S    
C10   C35   1.598657 S    
N7    O18   1.302340 A    
C39   H13   1.105430 S    
C27   C31   1.426490 A    
C53   C54   1.559268 S    
C7    N16   1.490440 S    
C36   C37   1.529293 S    
C29   H2    1.077773 S    
N6    O15   1.301673 A    
C55   H47   1.109696 S    
N8    O20   1.301781 A    
N5    O14   1.300501 A    
C49   H31   1.110126 S    
C57   H56   1.092313 S    
C56   H58   1.096629 S    
O3    C2    1.304055 A    
C27   C28   1.406588 A    
C46   H25   1.110707 S    
N6    O16   1.300952 A    
C51   H42   1.105798 S    
C42   H20   1.108266 S    
C51   C52   1.529388 S    
C35   C36   1.553787 S    
N14   O32   1.303960 A    
C42   C43   1.530141 S    
C29   C30   1.430331 A    
C44   H30   1.105970 S    
C19   N6    1.431234 S    
C42   H21   1.108683 S    
C31   C32   1.435333 A    
C22   C26   1.427242 A    
N11   O25   1.299601 A    
C40   H11   1.110417 S    
C50   H44   1.107315 S    
Cu1   O5    1.961764 S    
C13   C53   1.596703 S    
C33   C34   1.425600 A    
C33   N11   1.426482 S    
O1    Cu1   1.963367 S    
C5    N3    1.494012 S    
O2    Cu2   1.961764 S    
O8    C4    1.298211 A    
C43   H17   1.110046 S    
O6    C3    1.308018 A    
C7    N15   1.498770 S    
O4    Cu2   1.944161 S    
C47   C48   1.529311 S    
C52   H38   1.110931 S    
C50   H43   1.106550 S    
C20   N8    1.442490 S    
C36   H6    1.107724 S    
C37   H5    1.110447 S    
C21   C22   1.421339 A    
C40   H12   1.110584 S    
O2    C1    1.301126 A    
N13   O29   1.299676 A    
C44   H29   1.109792 S    
C18   C20   1.406823 A    
C25   C41   1.543528 S    
C53   H51   1.102384 S    
C28   N13   1.429103 S    
C2    C16   1.427062 S    
C6    C9    1.646279 S    
C45   H28   1.104843 S    
N13   O30   1.299050 A    
C48   H34   1.110121 S    
Cu1   N1    2.023789 S    
N12   O28   1.300789 A    
N12   O27   1.299672 A    
C38   C39   1.555677 S    
C10   N4    1.499462 S    
N8    O19   1.301137 A    
C9    C15   1.485096 S    
C7    C11   1.680720 S    
C49   H32   1.110946 S    
C38   H16   1.109888 S    
C57   H55   1.106588 S    
C51   H41   1.107146 S    
C46   H26   1.104142 S    
C10   C11   1.657181 S    
C17   C25   1.422709 A    
Cu2   O6    1.963366 S    
C45   C46   1.528129 S    
C11   C14   1.485209 S    
N14   O31   1.300786 A    
C54   C55   1.519254 S    
C37   H4    1.110158 S    
C55   H45   1.110391 S    
C30   C34   1.418109 A    
C32   N9    1.425254 S    
N11   O26   1.297926 A    
C47   H36   1.107780 S    
