data_mof_unit_53268.cif
_audit_creation_date              2012-12-11T14:40:19-0500
_audit_creation_method            fapswitch 2.2
_symmetry_space_group_name_H-M    P1
_symmetry_Int_Tables_number       1
_space_group_crystal_system       triclinic
_cell_length_a                    19.534622
_cell_length_b                    10.875728
_cell_length_c                    19.476012
_cell_angle_alpha                 90.123984
_cell_angle_beta                  97.710456
_cell_angle_gamma                 89.65901
_cell_volume                      4100.25482289

loop_
_atom_site_label
_atom_site_type_symbol
_atom_type_description
_atom_site_fract_x
_atom_site_fract_y
_atom_site_fract_z
_atom_type_partial_charge
Br1   Br    Br    0.573009 0.428851 0.929443 -0.443043
Br2   Br    Br    0.444388 0.408457 0.054404 -0.427069
Br3   Br    Br    0.050053 0.915273 0.947913 -0.418001
Br4   Br    Br    0.919818 0.922458 0.073020 -0.441469
C1    C     C_R   0.726265 0.950414 0.360368 0.548646
C2    C     C_3   0.253033 0.398366 0.566600 0.056956
C3    C     C_3   0.238652 0.866264 0.438164 0.054638
C4    C     C_3   0.753031 0.898372 0.566601 0.056954
C5    C     C_3   0.761795 0.498552 0.454675 -0.113414
C6    C     C_3   0.285564 0.503775 0.531156 -0.130519
C7    C     C_3   0.261801 0.998558 0.454676 -0.112455
C8    C     C_3   0.785564 0.003777 0.531155 -0.130682
C9    C     C_3   0.819865 0.447570 0.508887 -0.129559
C10   C     C_3   0.216044 0.518551 0.483422 -0.114126
C11   C     C_3   0.319868 0.947572 0.508888 -0.129738
C12   C     C_R   0.290349 0.994265 0.632471 0.548565
C13   C     C_3   0.716044 0.018555 0.483420 -0.115568
C14   C     C_3   0.796491 0.314835 0.491546 -0.111657
C15   C     C_3   0.184011 0.412222 0.520041 -0.111526
C16   C     C_3   0.296491 0.814840 0.491545 -0.112328
C17   C     C_3   0.684009 0.912229 0.520042 -0.112029
C18   C     C_3   0.746189 0.319626 0.546078 -0.112948
C19   C     C_3   0.209317 0.318801 0.469212 -0.121014
C20   C     C_3   0.246189 0.819634 0.546076 -0.112004
C21   C     C_3   0.709314 0.818804 0.469215 -0.120769
C22   C     C_3   0.769660 0.451668 0.562607 0.055149
C23   C     C_R   0.226263 0.450420 0.360371 0.539598
C24   C     C_3   0.241378 0.424210 0.433309 0.057604
C25   C     C_3   0.269663 0.951673 0.562607 0.053773
C26   C     C_3   0.741377 0.924208 0.433309 0.055241
C27   C     C_3   0.543110 0.277152 0.968076 0.200465
C28   C     C_3   0.493214 0.268225 0.021984 0.214416
C29   C     C_3   0.004271 0.771398 0.978841 0.210726
C30   C     C_3   0.954012 0.774881 0.032679 0.193769
C31   C     C_3   0.592848 0.183850 0.008650 -0.169408
C32   C     C_3   0.455193 0.161114 0.982494 -0.123023
C33   C     C_3   0.045394 0.666382 0.017708 -0.120252
C34   C     C_R   0.790347 0.494261 0.632471 0.545740
C35   C     C_3   0.907279 0.678629 0.991378 -0.167067
C36   C     C_3   0.542142 0.175087 0.062381 0.011808
C37   C     C_3   0.505405 0.170661 0.928360 0.029995
C38   C     C_3   0.994813 0.670576 0.071722 0.028342
C39   C     C_3   0.958309 0.675467 0.937694 0.012690
C40   C     C_R   0.535109 0.180202 0.338008 0.548461
C41   C     C_R   0.464915 0.179719 0.661988 0.538253
C42   C     C_R   0.035106 0.680202 0.338009 0.535827
C43   C     C_R   0.964911 0.679720 0.661987 0.551507
C44   C     C_3   0.504510 0.067095 0.023055 -0.138230
C45   C     C_3   0.688074 0.370372 0.491663 -0.137935
C46   C     C_3   0.554375 0.076081 0.967661 -0.161370
C47   C     C_3   0.948971 0.573094 0.031706 -0.155938
C48   C     C_3   0.999133 0.569612 0.976399 -0.133370
C49   C     C_1   0.763874 0.427003 0.904867 0.029146
C50   C     C_1   0.242319 0.408720 0.100150 0.025109
C51   C     C_1   0.273838 0.952483 0.910785 0.017015
C52   C     C_1   0.722584 0.960902 0.087868 0.025180
C53   C     C_1   0.748834 0.410651 0.035382 -0.012844
C54   C     C_1   0.266102 0.358718 0.974311 0.004450
C55   C     C_1   0.243539 0.889197 0.031699 0.005016
C56   C     C_3   0.278792 0.304334 0.516592 -0.115286
C57   C     C_1   0.751648 0.902228 0.965769 -0.002759
C58   C     C_1   0.755842 0.417754 0.964683 -0.001198
C59   C     C_1   0.255031 0.382743 0.043087 0.010477
C60   C     C_1   0.259005 0.923227 0.966210 0.002339
C61   C     C_1   0.736206 0.934806 0.031486 0.002756
C62   C     C_1   0.743303 0.396925 0.095532 0.012578
C63   C     C_1   0.272862 0.338843 0.914765 0.014427
C64   C     C_1   0.232780 0.857946 0.088240 0.024034
C65   C     C_1   0.763575 0.869317 0.909866 0.016795
C66   C     C_R   0.726475 0.316451 0.368798 0.545369
C67   C     C_3   0.188076 0.870383 0.491662 -0.137863
C68   C     C_R   0.259942 0.365238 0.638728 0.546938
C69   C     C_R   0.226476 0.816455 0.368799 0.545962
C70   C     C_R   0.759941 0.865243 0.638730 0.544306
C71   C     C_R   0.706111 0.993442 0.154444 0.529658
C72   C     C_R   0.292415 0.990055 0.845834 0.529872
C73   C     C_R   0.222527 0.450716 0.164378 0.541880
C74   C     C_R   0.778188 0.452765 0.836512 0.548531
C75   C     C_R   0.563189 0.182483 0.136826 0.549097
C76   C     C_R   0.473151 0.178431 0.857139 0.553863
C77   C     C_R   0.026766 0.678630 0.142963 0.560141
C78   C     C_3   0.778789 0.804335 0.516595 -0.114378
C79   C     C_R   0.937056 0.682915 0.863267 0.551448
C80   C     C_R   0.736071 0.361261 0.164547 0.540974
C81   C     C_R   0.278034 0.310540 0.843819 0.536010
C82   C     C_R   0.223617 0.816107 0.155581 0.550622
C83   C     C_R   0.774844 0.821857 0.844272 0.523181
C84   C     C_1   0.485921 0.171504 0.594753 -0.013361
C85   C     C_1   0.513969 0.172439 0.405170 -0.014816
C86   C     C_1   0.985902 0.671505 0.594744 -0.014289
C87   C     C_1   0.013951 0.672438 0.405162 -0.011923
C88   C     C_1   0.504007 0.168722 0.464659 -0.062775
C89   C     C_3   0.738650 0.366256 0.438164 0.055410
C90   C     C_1   0.495818 0.168295 0.535225 -0.062971
C91   C     C_1   0.003982 0.668721 0.464648 -0.062080
C92   C     C_1   0.995792 0.668295 0.535214 -0.063336
C93   C     C_3   0.711593 0.503560 0.509740 -0.122836
C94   C     C_3   0.310711 0.410724 0.479526 -0.122063
C95   C     C_3   0.211598 0.003569 0.509740 -0.123383
C96   C     C_3   0.810710 0.910721 0.479527 -0.121931
Cr1   Cr    Cr6+3 0.765830 0.160660 0.268180 1.041643
Cr2   Cr    Cr6+3 0.384070 0.324050 0.751550 1.067431
Cr3   Cr    Cr6+3 0.115930 0.824050 0.248450 1.070682
Cr4   Cr    Cr6+3 0.884070 0.824050 0.751550 1.065027
Cr5   Cr    Cr6+3 0.234170 0.160660 0.731820 1.045996
Cr6   Cr    Cr6+3 0.265830 0.660660 0.268180 1.040941
Cr7   Cr    Cr6+3 0.734170 0.660660 0.731820 1.040738
Cr8   Cr    Cr6+3 0.612110 0.009150 0.248770 1.037695
Cr9   Cr    Cr6+3 0.387890 0.009150 0.751230 1.034177
Cr10  Cr    Cr6+3 0.112110 0.509150 0.248770 1.036143
Cr11  Cr    Cr6+3 0.887890 0.509150 0.751230 1.036132
Cr12  Cr    Cr6+3 0.615930 0.324050 0.248450 1.060603
H1    H     H_    0.633907 0.337632 0.482642 0.119525
H2    H     H_    0.316989 0.576376 0.560056 0.116761
H3    H     H_    0.267702 0.070202 0.415411 0.127950
H4    H     H_    0.816991 0.076378 0.560055 0.116178
H5    H     H_    0.374068 0.980272 0.517662 0.119074
H6    H     H_    0.689196 0.105955 0.467118 0.099823
H7    H     H_    0.874064 0.480274 0.517659 0.118502
H8    H     H_    0.189194 0.605950 0.467121 0.100228
H9    H     H_    0.831502 0.237895 0.481843 0.128919
H10   H     H_    0.132519 0.414389 0.538207 0.128662
H11   H     H_    0.331500 0.737896 0.481843 0.128920
H12   H     H_    0.305857 0.217218 0.533072 0.100554
H13   H     H_    0.632517 0.914402 0.538209 0.127917
H14   H     H_    0.739848 0.248624 0.585558 0.128411
H15   H     H_    0.178400 0.244627 0.441109 0.121708
H16   H     H_    0.239846 0.748628 0.585552 0.131652
H17   H     H_    0.678397 0.744627 0.441115 0.121748
H18   H     H_    0.649698 0.193573 0.020843 0.115936
H19   H     H_    0.398215 0.151573 0.970852 0.108442
H20   H     H_    0.102592 0.661149 0.029527 0.122533
H21   H     H_    0.850183 0.682473 0.979381 0.112944
H22   H     H_    0.488394 0.981063 0.046769 0.161086
H23   H     H_    0.133909 0.837648 0.482639 0.120215
H24   H     H_    0.579295 0.997878 0.943721 0.147994
H25   H     H_    0.926395 0.492410 0.055088 0.147721
H26   H     H_    0.017970 0.485653 0.952185 0.161368
H27   H     H_    0.805851 0.717216 0.533075 0.100413
H28   H     H_    0.676895 0.580218 0.520523 0.128481
H29   H     H_    0.362005 0.408732 0.460961 0.123774
H30   H     H_    0.176901 0.080228 0.520524 0.128469
H31   H     H_    0.862005 0.908724 0.460963 0.124210
H32   H     H_    0.767694 0.570193 0.415406 0.126858
O1    O     O_R   0.783230 0.287800 0.346510 -0.508877
O2    O     O_R   0.454570 0.285140 0.836900 -0.467643
O3    O     O_R   0.045430 0.785140 0.163100 -0.468836
O4    O     O_R   0.954570 0.785140 0.836900 -0.451316
O5    O     O_R   0.677850 0.374730 0.185500 -0.495275
O6    O     O_R   0.322150 0.374730 0.814500 -0.466567
O7    O     O_R   0.177850 0.874730 0.185500 -0.469536
O8    O     O_R   0.822150 0.874730 0.814500 -0.489040
O9    O     O_3   0.664630 0.164620 0.255130 -0.323997
O10   O     O_3   0.335370 0.164620 0.744870 -0.320477
O11   O     O_3   0.164630 0.664620 0.255130 -0.302099
O12   O     O_R   0.216770 0.287800 0.653490 -0.521975
O13   O     O_3   0.835370 0.664620 0.744870 -0.319652
O14   O     O_R   0.760130 0.037060 0.338610 -0.512428
O15   O     O_R   0.239870 0.037060 0.661390 -0.488650
O16   O     O_R   0.260130 0.537060 0.338610 -0.518634
O17   O     O_R   0.739870 0.537060 0.661390 -0.493438
O18   O     O_R   0.666620 0.921370 0.332440 -0.507209
O19   O     O_R   0.333380 0.921370 0.667560 -0.500355
O20   O     O_R   0.166620 0.421370 0.332440 -0.509600
O21   O     O_R   0.833380 0.421370 0.667560 -0.506935
O22   O     O_R   0.557170 0.082420 0.312350 -0.487816
O23   O     O_R   0.283230 0.787800 0.346510 -0.504481
O24   O     O_R   0.442830 0.082420 0.687650 -0.512904
O25   O     O_R   0.057170 0.582420 0.312350 -0.494866
O26   O     O_R   0.942830 0.582420 0.687650 -0.506218
O27   O     O_R   0.548310 0.285980 0.316250 -0.507235
O28   O     O_R   0.451690 0.285980 0.683750 -0.496993
O29   O     O_R   0.048310 0.785980 0.316250 -0.511257
O30   O     O_R   0.951690 0.785980 0.683750 -0.492987
O31   O     O_R   0.680520 0.375500 0.327470 -0.494474
O32   O     O_R   0.319480 0.375500 0.672530 -0.495373
O33   O     O_R   0.180520 0.875500 0.327470 -0.490545
O34   O     O_R   0.716770 0.787800 0.653490 -0.521008
O35   O     O_R   0.819480 0.875500 0.672530 -0.497328
O36   O     O_R   0.780350 0.286970 0.193350 -0.502632
O37   O     O_R   0.219650 0.286970 0.806650 -0.496890
O38   O     O_R   0.280350 0.786970 0.193350 -0.489476
O39   O     O_R   0.719650 0.786970 0.806650 -0.493227
O40   O     O_R   0.757460 0.036290 0.196640 -0.468076
O41   O     O_R   0.242540 0.036290 0.803360 -0.481399
O42   O     O_R   0.257460 0.536290 0.196640 -0.499734
O43   O     O_R   0.742540 0.536290 0.803360 -0.489445
O44   O     O_R   0.663740 0.920540 0.179290 -0.497458
O45   O     O_R   0.554500 0.081650 0.170370 -0.505875
O46   O     O_R   0.336260 0.920540 0.820710 -0.479176
O47   O     O_R   0.163740 0.420540 0.179290 -0.498275
O48   O     O_R   0.836260 0.420540 0.820710 -0.505822
O49   O     O_R   0.445500 0.081650 0.829630 -0.519713
O50   O     O_R   0.054500 0.581650 0.170370 -0.504886
O51   O     O_R   0.945500 0.581650 0.829630 -0.494574
O52   O     O_R   0.545430 0.285140 0.163100 -0.446601

loop_
_geom_bond_atom_site_label_1
_geom_bond_atom_site_label_2
_ccdc_geom_bond_type
C34   O21   A    
C35   C47   S    
Cr6   O11   S    
C15   H10   S    
C10   C24   S    
C68   O12   A    
Cr7   O43   S    
C39   C79   S    
Cr4   O4    S    
C95   H30   S    
C45   H1    S    
C91   C92   S    
C30   C38   S    
Br1   C27   S    
Cr4   O13   S    
C69   O23   A    
C21   H17   S    
C37   C76   S    
Cr3   O3    S    
C53   C58   S    
C3    C69   S    
C3    C7    S    
C76   O49   A    
Cr1   O1    S    
C55   C60   S    
C9    C14   S    
Cr1   O36   S    
C4    C78   S    
C28   C32   S    
C44   H22   S    
C56   C94   S    
C3    C67   S    
C55   C64   T    
C39   C48   S    
C18   H14   S    
Cr12  O27   S    
C50   C59   T    
Br3   C29   S    
Cr2   O32   S    
C52   C61   T    
C26   C96   S    
Cr10  O47   S    
Cr3   O29   S    
C80   O36   A    
C64   C82   S    
Br2   C28   S    
Cr5   O41   S    
C33   C38   S    
C6    C94   S    
C5    C9    S    
C20   C25   S    
Cr6   O38   S    
C16   H11   S    
Cr8   O22   S    
Cr10  O11   S    
C9    H7    S    
C77   O50   A    
C81   O6    A    
C7    C11   S    
C34   O17   A    
Cr12  O52   S    
C70   O35   A    
Cr7   O17   S    
C20   H16   S    
C77   O3    A    
C8    C13   S    
Cr10  O50   S    
C48   H26   S    
Cr9   O49   S    
Cr11  O21   S    
C7    H3    S    
C66   O31   A    
Cr2   O10   S    
C93   H28   S    
C65   C83   S    
Cr3   O7    S    
C38   C47   S    
C50   C73   S    
C69   O33   A    
C80   O5    A    
C44   C46   S    
Cr5   O10   S    
Cr11  O48   S    
C52   C71   S    
C12   O15   A    
C13   C26   S    
C32   C37   S    
C11   C16   S    
C38   C77   S    
C71   O40   A    
C88   C90   S    
Cr7   O13   S    
C5    H32   S    
C11   C25   S    
C32   C44   S    
C84   C90   T    
C12   O19   A    
Cr2   O28   S    
C19   C56   S    
Br4   C30   S    
C63   C81   S    
C25   C95   S    
C30   C35   S    
C29   C39   S    
C16   C20   S    
C41   C84   S    
C74   O48   A    
Cr6   O42   S    
Cr9   O19   S    
C32   H19   S    
C33   C48   S    
Cr10  O20   S    
C22   C34   S    
Cr4   O30   S    
C42   C87   S    
C22   C93   S    
C23   O16   A    
C2    C68   S    
Cr8   O18   S    
C13   C17   S    
C75   O52   A    
C47   C48   S    
Cr7   O39   S    
Cr3   O33   S    
C6    C10   S    
C73   O47   A    
C15   C19   S    
C78   H27   S    
C2    C15   S    
Cr9   O24   S    
C2    C56   S    
C23   O20   A    
C49   C58   T    
C27   C28   S    
C70   O34   A    
Cr1   O9    S    
Cr9   O46   S    
C4    C8    S    
C51   C60   T    
C66   C89   S    
C31   C46   S    
C4    C70   S    
C4    C17   S    
C42   O29   A    
C66   O1    A    
C40   O22   A    
C19   C24   S    
C73   O42   A    
C85   C88   T    
Cr9   O10   S    
C31   H18   S    
Cr1   O40   S    
C13   H6    S    
Cr2   O6    S    
C18   C45   S    
C51   C72   S    
C47   H25   S    
Cr3   O11   S    
Cr1   O14   S    
C1    O14   A    
C10   H8    S    
Cr12  O9    S    
C94   H29   S    
C75   O45   A    
C21   C78   S    
C43   C86   S    
C27   C31   S    
C9    C22   S    
C56   H12   S    
C17   H13   S    
C41   O28   A    
C5    C89   S    
C37   C46   S    
C43   O26   A    
C36   C75   S    
C19   H15   S    
C1    C26   S    
C35   H21   S    
C24   C94   S    
C21   C26   S    
C36   C44   S    
C17   C21   S    
C28   C36   S    
C83   O39   A    
C5    C93   S    
C27   C37   S    
C71   O44   A    
C14   C18   S    
C78   C96   S    
C10   C15   S    
Cr8   O44   S    
Cr12  O31   S    
C54   C59   S    
C96   H31   S    
C6    H2    S    
C2    C6    S    
C35   C39   S    
C33   H20   S    
C86   C92   T    
C81   O37   A    
C42   O25   A    
C45   C89   S    
C83   O8    A    
Cr11  O26   S    
C57   C65   T    
C1    O18   A    
Cr4   O8    S    
C49   C74   S    
Cr11  O13   S    
C40   O27   A    
Cr7   O34   S    
C53   C62   T    
C46   H24   S    
C82   O7    A    
Cr6   O23   S    
C67   H23   S    
Cr5   O15   S    
C67   C95   S    
Cr6   O16   S    
C7    C95   S    
C76   O2    A    
C29   C30   S    
C31   C36   S    
C68   O32   A    
C57   C61   S    
C79   O51   A    
Cr8   O45   S    
C41   O24   A    
C29   C33   S    
C8    C96   S    
C43   O30   A    
C72   O46   A    
C40   C85   S    
C14   H9    S    
C62   C80   S    
C79   O4    A    
Cr4   O35   S    
Cr10  O25   S    
C11   H5    S    
C54   C63   T    
Cr8   O9    S    
Cr5   O12   S    
C12   C25   S    
C87   C91   T    
C3    C16   S    
C18   C22   S    
C23   C24   S    
C82   O38   A    
C14   C89   S    
Cr12  O5    S    
C74   O43   A    
Cr5   O37   S    
Cr2   O2    S    
C72   O41   A    
C20   C67   S    
Cr11  O51   S    
C8    H4    S    
C45   C93   S    
