data_mof_unit_30774.cif
_audit_creation_date              2013-03-05T15:55:02-0500
_audit_creation_method            fapswitch 2.2
_symmetry_space_group_name_H-M    P1
_symmetry_Int_Tables_number       1
_space_group_crystal_system       triclinic
_cell_length_a                    22.963786
_cell_length_b                    10.559986
_cell_length_c                    10.077715
_cell_angle_alpha                 88.951951
_cell_angle_beta                  86.5211
_cell_angle_gamma                 94.340786
_cell_volume                      2431.67468499

loop_
_atom_site_label
_atom_site_type_symbol
_atom_site_description
_atom_site_fract_x
_atom_site_fract_y
_atom_site_fract_z
_atom_type_partial_charge
O1    O     O_R   0.500000 0.316780 0.614690 -0.585540
O2    O     O_R   0.500000 0.316750 0.385360 -0.614480
C1    C     C_R   0.510636 0.264476 0.500631 0.955704
O3    O     O_R   0.416160 0.499970 0.614690 -0.565213
O4    O     O_R   0.416150 0.499950 0.385360 -0.644100
C2    C     C_R   0.389238 0.502069 0.502710 0.979911
Zn1   Zn    Zn3+2 0.500000 0.500020 0.653130 1.065488
Zn2   Zn    Zn3+2 0.500000 0.499980 0.346870 1.050036
O5    O     O_R   0.500000 0.683250 0.614640 -0.591712
O6    O     O_R   0.500000 0.683220 0.385310 -0.610872
O7    O     O_R   0.583850 0.500050 0.614640 -0.564988
O8    O     O_R   0.583840 0.500030 0.385310 -0.563939
C3    C     C_R   0.497379 0.740687 0.499837 0.896608
C4    C     C_R   0.611195 0.505244 0.495106 1.006992
C5    C     C_R   0.887093 0.706325 0.412338 0.674894
N1    N     N_R   0.859473 0.587778 0.398375 -0.350041
C6    C     C_R   0.890758 0.486299 0.365293 0.549242
C7    C     C_R   0.951259 0.503211 0.340537 -0.021205
C8    C     C_R   0.980611 0.619283 0.373792 -0.039639
C9    C     C_R   0.948627 0.722059 0.414314 -0.193935
C10   C     C_R   0.983042 0.405527 0.287587 -0.073298
C11   C     C_R   0.043702 0.421309 0.271733 -0.070588
C12   C     C_R   0.073506 0.530880 0.318263 0.004855
C13   C     C_R   0.042037 0.629953 0.370662 -0.028085
C14   C     C_R   0.071844 0.736254 0.425395 -0.176861
C15   C     C_R   0.040490 0.842183 0.461462 0.220630
C16   C     C_R   0.979120 0.835781 0.454153 0.230267
C17   C     C_R   0.134046 0.539240 0.324047 0.587970
N2    N     N_R   0.160506 0.627789 0.402683 -0.356842
C18   C     C_R   0.131075 0.726653 0.451992 0.615722
O9    O     O_2   0.854881 0.807607 0.423908 -0.414018
O10   O     O_2   0.863488 0.369083 0.357666 -0.449314
H1    H     H_    0.961164 0.316805 0.258381 0.224809
H2    H     H_    0.067187 0.343850 0.231888 0.222588
O11   O     O_2   0.165961 0.454401 0.259695 -0.482396
O12   O     O_2   0.158150 0.810588 0.531547 -0.420021
C19   C     C_R   0.266378 0.690714 0.417250 0.531327
C20   C     C_R   0.321053 0.658201 0.451904 -0.234391
H3    H     H_    0.358764 0.724587 0.427568 0.186231
C21   C     C_R   0.328968 0.536789 0.502676 -0.256399
C22   C     C_R   0.280575 0.448306 0.529193 0.211402
C23   C     C_R   0.224047 0.486463 0.512596 0.224199
C24   C     C_R   0.217064 0.604329 0.447883 -0.010412
C25   C     C_R   0.761610 0.507479 0.328729 0.478247
C26   C     C_R   0.702936 0.475201 0.363885 -0.124726
H4    H     H_    0.677734 0.420328 0.294844 0.260738
C27   C     C_R   0.675416 0.524729 0.477620 -0.291249
C28   C     C_R   0.708352 0.610119 0.555467 0.156277
C29   C     C_R   0.770000 0.611525 0.541445 0.412762
C30   C     C_R   0.796768 0.569371 0.422176 0.037005
C31   C     C_R   0.532632 0.113109 0.753272 0.410185
C32   C     C_R   0.512015 0.043974 0.870636 0.212096
C33   C     C_R   0.473576 0.935653 0.860684 -0.119488
H5    H     H_    0.455625 0.883228 0.949035 0.221695
C34   C     C_R   0.462212 0.886813 0.736833 -0.120574
H6    H     H_    0.433300 0.801271 0.733653 0.181632
C35   C     C_R   0.491534 0.942821 0.620952 0.042646
C36   C     C_R   0.517559 0.065768 0.628262 0.020795
C37   C     C_R   0.529278 0.135592 0.507957 -0.198255
C38   C     C_R   0.545944 0.071199 0.393265 0.296459
H7    H     H_    0.544202 0.889953 0.304755 0.253822
C39   C     C_R   0.530145 0.941913 0.390356 -0.137837
C40   C     C_R   0.500555 0.878080 0.500484 -0.151757
C41   C     C_R   0.431681 0.317460 0.160137 -0.226219
H8    H     H_    0.424959 0.326174 0.263826 0.228827
C42   C     C_R   0.402320 0.212570 0.108536 0.409197
C43   C     C_R   0.397125 0.208724 0.973153 0.181734
C44   C     C_R   0.423288 0.309936 0.889367 0.121397
C45   C     C_R   0.463661 0.408153 0.938041 -0.079636
C46   C     C_R   0.465632 0.409041 0.080985 0.055138
N3    N     N_R   0.499460 0.498800 0.142780 -0.155202
C47   C     C_R   0.534812 0.584241 0.064360 0.265372
C48   C     C_R   0.536183 0.581121 0.922253 0.243440
N4    N     N_R   0.499440 0.498720 0.857170 -0.177665
N5    N     N_R   0.681517 0.715915 0.616408 0.276464
O13   O     O_R   0.636162 0.759173 0.564707 -0.338282
O14   O     O_R   0.709813 0.789099 0.697202 -0.223672
O15   O     O_3   0.804986 0.658416 0.638639 -0.652487
H9    H     H_    0.782764 0.644324 0.725738 0.387182
N6    N     N_R   0.589047 0.126911 0.295298 0.265988
O16   O     O_R   0.627314 0.056017 0.240295 -0.224843
O17   O     O_R   0.597218 0.249117 0.276845 -0.365582
O18   O     O_3   0.571780 0.218744 0.756642 -0.680204
H10   H     H_    0.561246 0.267199 0.836609 0.355928
N7    N     N_R   0.531812 0.078647 0.998234 0.208261
O19   O     O_R   0.584863 0.128513 0.008024 -0.244186
O20   O     O_R   0.500946 0.040572 0.105998 -0.401683
N8    N     N_R   0.572706 0.676897 0.124811 0.234532
O21   O     O_R   0.570489 0.796035 0.092159 -0.313640
O22   O     O_R   0.619703 0.641591 0.175632 -0.303735
O23   O     O_3   0.372638 0.119157 0.190052 -0.618182
H11   H     H_    0.383571 0.131306 0.282926 0.368272
N9    N     N_R   0.355045 0.114971 0.925004 0.273187
O24   O     O_R   0.357725 0.995794 0.956955 -0.320724
O25   O     O_R   0.305947 0.150436 0.884668 -0.195025
N10   N     N_R   0.392134 0.329820 0.776107 0.260912
O26   O     O_R   0.346856 0.396371 0.793457 -0.329536
O27   O     O_R   0.391540 0.243758 0.685272 -0.348581
N11   N     N_R   0.582406 0.653277 0.848604 0.262968
O28   O     O_R   0.574545 0.768092 0.808946 -0.293698
O29   O     O_R   0.635426 0.621527 0.861382 -0.301307
N12   N     N_R   0.070571 0.958176 0.501283 0.271984
O30   O     O_R   0.110430 0.017621 0.420849 -0.249245
O31   O     O_R   0.055440 0.009220 0.613489 -0.236311
N13   N     N_R   0.948347 0.943537 0.493435 0.275636
O32   O     O_R   0.918233 0.940894 0.607198 -0.227061
O33   O     O_R   0.957467 0.049974 0.425651 -0.295708
O34   O     O_3   0.263894 0.804210 0.348291 -0.642995
H12   H     H_    0.226346 0.804244 0.305209 0.367304
N14   N     N_R   0.288768 0.317768 0.558855 0.278745
O35   O     O_R   0.319746 0.253743 0.475347 -0.340902
O36   O     O_R   0.258531 0.257786 0.657193 -0.179713
N15   N     N_R   0.173486 0.402376 0.551513 0.246420
O37   O     O_R   0.130474 0.444003 0.624059 -0.324770
O38   O     O_R   0.167152 0.289654 0.501787 -0.211302
O39   O     O_3   0.782660 0.476814 0.203136 -0.647045
H13   H     H_    0.819004 0.530990 0.179141 0.349192

loop_
_geom_bond_atom_site_label_1
_geom_bond_atom_site_label_2
_geom_bond_distance
_ccdc_geom_bond_type
C34   H6    1.081974 S    
C21   C22   1.406090 A    
N9    O24   1.300234 A    
C7    C10   1.402977 A    
C22   C23   1.406586 A    
C8    C9    1.408743 A    
C33   H5    1.082617 S    
C29   O15   1.379536 S    
Zn1   O7    1.940959 S    
N13   O33   1.301046 A    
C15   C16   1.412246 A    
C44   N10   1.404203 S    
O18   H10   0.989923 S    
C17   N2    1.367888 A    
N1    C30   1.443180 S    
C45   C46   1.444185 A    
C20   H3    1.085156 S    
N6    O16   1.302147 A    
O7    C4    1.322500 A    
C10   H1    1.083332 S    
C16   N13   1.433583 S    
C5    N1    1.373426 A    
O34   H12   0.988654 S    
C38   C39   1.387148 A    
C7    C8    1.409392 A    
C48   N4    1.369737 A    
O5    C3    1.303202 A    
N14   O35   1.300910 A    
N11   O28   1.298650 A    
C17   O11   1.350290 S    
N1    C6    1.369729 A    
N10   O27   1.301608 A    
C12   C13   1.408533 A    
C46   N3    1.363275 A    
C41   C46   1.400560 A    
N2    C18   1.370637 A    
C33   C34   1.390907 A    
C42   C43   1.377821 A    
C37   C38   1.399736 A    
N9    O25   1.300258 A    
C10   C11   1.389456 A    
N2    C24   1.439482 S    
C28   N5    1.445141 S    
N12   O30   1.301260 A    
O3    Zn1   1.986745 S    
C47   N8    1.429320 S    
C35   C40   1.416146 A    
Zn1   N4    2.055305 S    
Zn1   O5    1.966436 S    
C26   C27   1.403833 A    
C5    C9    1.411653 A    
C11   H2    1.083361 S    
N7    O20   1.300371 A    
C43   C44   1.422838 A    
C13   C14   1.408906 A    
C32   N7    1.434315 S    
C19   O34   1.381066 S    
N6    O17   1.298264 A    
O23   H11   0.991741 S    
O15   H9    0.991145 S    
C44   C45   1.450568 A    
C36   C37   1.408429 A    
N7    O19   1.300192 A    
C31   C32   1.415699 A    
O1    C1    1.302135 A    
C41   C42   1.379298 A    
C19   C24   1.414487 A    
N5    O13   1.301574 A    
C19   C20   1.389359 A    
C23   N15   1.437455 S    
C27   C28   1.412540 A    
C3    C40   1.447334 S    
Zn2   O8    1.986743 S    
N10   O26   1.303292 A    
C39   C40   1.399863 A    
C6    C7    1.393971 A    
C45   N4    1.423098 A    
C31   C36   1.416554 A    
C12   C17   1.391170 A    
N12   O31   1.301119 A    
N5    O14   1.301404 A    
C42   O23   1.383149 S    
O3    C2    1.319874 A    
C28   C29   1.413070 A    
N11   O29   1.300240 A    
O8    C4    1.305111 A    
C22   N14   1.433865 S    
C34   C35   1.409262 A    
C2    C21   1.458350 S    
C23   C24   1.418951 A    
C31   O18   1.380931 S    
C32   C33   1.399910 A    
N15   O37   1.301218 A    
C25   C30   1.414482 A    
C14   C18   1.412911 A    
C48   N11   1.421067 S    
C38   N6    1.439647 S    
Zn2   N3    2.057811 S    
O1    Zn1   1.980343 S    
O2    Zn2   1.966435 S    
C25   C26   1.387549 A    
N8    O22   1.298859 A    
C47   C48   1.431590 A    
O6    C3    1.314052 A    
O4    Zn2   1.940961 S    
C5    O9    1.348522 S    
C4    C27   1.472915 S    
C9    C16   1.420610 A    
N13   O32   1.301183 A    
C18   O12   1.348346 S    
C41   H8    1.053712 S    
O2    C1    1.321070 A    
C14   C15   1.416637 A    
N3    C47   1.372177 A    
C15   N12   1.435992 S    
C20   C21   1.400432 A    
C35   C36   1.392705 A    
O4    C2    1.302068 A    
O39   H13   0.990202 S    
C8    C13   1.404940 A    
H7    C39   1.076938 S    
N14   O36   1.300929 A    
C26   H4    1.080565 S    
N8    O21   1.300105 A    
C25   O39   1.380196 S    
Zn2   O6    1.980345 S    
C29   C30   1.411397 A    
C43   N9    1.441873 S    
C6    O10   1.349885 S    
C11   C12   1.402158 A    
N15   O38   1.301404 A    
C1    C37   1.459252 S    
