data_mof_unit_45237.cif
_audit_creation_date              2013-03-05T15:55:18-0500
_audit_creation_method            fapswitch 2.2
_symmetry_space_group_name_H-M    P1
_symmetry_Int_Tables_number       1
_space_group_crystal_system       triclinic
_cell_length_a                    27.741206
_cell_length_b                    10.60001
_cell_length_c                    9.92334
_cell_angle_alpha                 90.127588
_cell_angle_beta                  89.97842
_cell_angle_gamma                 95.188665
_cell_volume                      2906.0637684

loop_
_atom_site_label
_atom_site_type_symbol
_atom_site_description
_atom_site_fract_x
_atom_site_fract_y
_atom_site_fract_z
_atom_type_partial_charge
O1    O     O_R   0.500000 0.316780 0.614690 -0.599255
O2    O     O_R   0.500000 0.316750 0.385360 -0.535942
C1    C     C_R   0.508174 0.264230 0.499641 0.962143
O3    O     O_R   0.428760 0.500030 0.614650 -0.513337
O4    O     O_R   0.428750 0.500010 0.385320 -0.523056
C2    C     C_R   0.406144 0.507909 0.499982 0.984980
Zn1   Zn    Zn3+2 0.500000 0.500020 0.653130 0.999905
Zn2   Zn    Zn3+2 0.500000 0.499980 0.346870 1.087449
O5    O     O_R   0.500000 0.683250 0.614640 -0.635942
O6    O     O_R   0.500000 0.683220 0.385310 -0.539910
O7    O     O_R   0.571250 0.499990 0.614680 -0.664796
O8    O     O_R   0.571240 0.499970 0.385350 -0.588521
C3    C     C_R   0.503578 0.741706 0.499738 0.917083
C4    C     C_R   0.593847 0.499773 0.499981 0.846913
C5    C     C_R   0.174468 0.411909 0.474879 0.599330
O9    O     O_2   0.196732 0.303768 0.475665 -0.548822
N1    N     N_R   0.201239 0.526010 0.481729 -0.335766
C6    C     C_R   0.180577 0.637994 0.478278 0.597837
C7    C     C_R   0.275495 0.524018 0.614798 0.297593
C8    C     C_R   0.326104 0.525173 0.620912 0.179336
C9    C     C_R   0.329136 0.539181 0.374141 0.241310
C10   C     C_R   0.279220 0.538814 0.371646 -0.193617
C11   C     C_R   0.252564 0.528216 0.489827 0.131176
C12   C     C_R   0.101444 0.520703 0.466774 -0.123134
C13   C     C_R   0.124088 0.406973 0.467613 -0.083114
C14   C     C_R   0.096286 0.290847 0.458335 -0.205370
C15   C     C_R   0.129961 0.638325 0.470206 -0.133758
C16   C     C_R   0.353490 0.524077 0.498804 -0.313630
H1    H     H_    0.260626 0.547693 0.276580 0.198997
H2    H     H_    0.113363 0.203080 0.451744 0.205238
C17   C     C_R   0.646288 0.495989 0.499528 -0.079677
C18   C     C_R   0.971520 0.396658 0.489808 0.059440
C19   C     C_R   0.976743 0.626031 0.447128 0.007484
C20   C     C_R   0.948798 0.509927 0.470668 0.072270
C21   C     C_R   0.943056 0.287891 0.534996 -0.161779
C22   C     C_R   0.893199 0.286389 0.545446 -0.162511
C23   C     C_R   0.870132 0.394425 0.514548 0.004717
C24   C     C_R   0.897779 0.507394 0.478114 -0.126878
C25   C     C_R   0.874439 0.617712 0.450654 -0.156947
C26   C     C_R   0.823667 0.610878 0.459194 0.584740
N2    N     N_R   0.797978 0.499678 0.493498 -0.343150
C27   C     C_R   0.819840 0.392822 0.521888 0.529393
C28   C     C_R   0.720280 0.465640 0.377729 0.567005
C29   C     C_R   0.670074 0.468866 0.379523 -0.309613
C30   C     C_R   0.672944 0.519678 0.618429 -0.222116
C31   C     C_R   0.722993 0.519479 0.616355 -0.186341
C32   C     C_R   0.746552 0.494376 0.496093 0.227261
O10   O     O_2   0.792812 0.285430 0.556460 -0.567870
C33   C     C_R   0.022161 0.397652 0.469739 -0.074192
C34   C     C_R   0.050334 0.516407 0.463880 0.021302
C35   C     C_R   0.027753 0.630856 0.456863 0.035305
C36   C     C_R   0.046042 0.285002 0.454223 0.498891
H3    H     H_    0.649873 0.450655 0.287239 0.179503
H4    H     H_    0.872834 0.200166 0.579133 0.204509
H5    H     H_    0.958667 0.204290 0.569550 0.214623
O11   O     O_2   0.209209 0.747811 0.483093 -0.472737
C37   C     C_R   0.107206 0.751875 0.466326 0.557202
C38   C     C_R   0.952738 0.733961 0.415585 -0.316516
C39   C     C_R   0.902366 0.730153 0.413993 0.561348
O12   O     O_2   0.799823 0.713668 0.433605 -0.495195
C40   C     C_R   0.056830 0.746937 0.462795 -0.317079
H6    H     H_    0.972160 0.822840 0.387896 0.164241
H7    H     H_    0.655274 0.540652 0.712175 0.166709
H8    H     H_    0.743629 0.540377 0.707573 0.161570
H9    H     H_    0.041401 0.836433 0.470840 0.181853
C41   C     C_R   0.561284 0.143223 0.722699 -0.129077
H10   H     H_    0.565245 0.245331 0.727531 0.160918
C42   C     C_R   0.581521 0.079109 0.827930 -0.110700
H11   H     H_    0.597757 0.131454 0.912728 0.168836
C43   C     C_R   0.583687 0.948898 0.819926 -0.154595
H12   H     H_    0.601753 0.900364 0.898313 0.138544
C44   C     C_R   0.564258 0.881852 0.708600 -0.124860
H13   H     H_    0.571045 0.783689 0.700253 0.144155
C45   C     C_R   0.539929 0.943315 0.606066 0.041561
C46   C     C_R   0.540367 0.076174 0.610420 0.064681
C47   C     C_R   0.523505 0.137330 0.495956 -0.269951
C48   C     C_R   0.519823 0.072559 0.373020 0.174677
C49   C     C_R   0.507343 0.943045 0.375854 0.457267
C50   C     C_R   0.515813 0.877833 0.496478 -0.267410
C51   C     C_R   0.445052 0.298469 0.136456 0.654141
C52   C     C_R   0.438884 0.182436 0.067928 -0.331224
H14   H     H_    0.426517 0.095684 0.119349 0.208395
C53   C     C_R   0.441362 0.180476 0.930449 -0.396303
H15   H     H_    0.430947 0.091956 0.879334 0.193864
C54   C     C_R   0.447186 0.295883 0.861371 0.612110
C55   C     C_R   0.473112 0.402210 0.927079 0.014583
C56   C     C_R   0.472460 0.403244 0.072117 -0.042185
N3    N     N_R   0.499540 0.498800 0.142780 -0.117340
C57   C     C_R   0.530679 0.581338 0.072551 0.553000
H16   H     H_    0.551435 0.655284 0.874990 0.138878
C58   C     C_R   0.528607 0.585149 0.928904 -0.236495
N4    N     N_R   0.499520 0.498720 0.857170 -0.107853
Br1   Br    Br    0.359680 0.570359 0.201145 -0.400814
Br2   Br    Br    0.236399 0.517787 0.775950 -0.389950
O13   O     O_3   0.133779 0.868479 0.477209 -0.545404
C59   C     C_3   0.133772 0.930334 0.351440 -0.199609
H17   H     H_    0.097350 0.960056 0.327121 0.136770
H18   H     H_    0.146619 0.870067 0.269095 0.158097
H19   H     H_    0.159170 0.017244 0.356893 0.218170
O14   O     O_3   0.880971 0.840245 0.386639 -0.557783
C60   C     C_3   0.881342 0.859556 0.246037 -0.221228
H20   H     H_    0.861574 0.943509 0.223823 0.198120
H21   H     H_    0.862469 0.777166 0.191886 0.168881
H22   H     H_    0.918866 0.879504 0.207180 0.122097
Br3   Br    Br    0.547394 0.152977 0.212088 -0.612954
O15   O     O_3   0.475747 0.887109 0.279607 -0.596802
C61   C     C_3   0.497976 0.880202 0.152284 -0.106494
H23   H     H_    0.482891 0.791983 0.102023 0.191063
H24   H     H_    0.538051 0.879781 0.157111 0.192110
H25   H     H_    0.488282 0.958791 0.087409 0.177065
O16   O     O_3   0.563173 0.662065 0.144620 -0.612903
C62   C     C_3   0.610949 0.648768 0.101475 -0.322325
H26   H     H_    0.619341 0.703582 0.007945 0.144005
H27   H     H_    0.617890 0.547762 0.086376 0.162204
H28   H     H_    0.636254 0.688341 0.180581 0.213720
O17   O     O_3   0.424903 0.308342 0.262740 -0.555016
C63   C     C_3   0.378249 0.242879 0.274343 -0.253560
H29   H     H_    0.380971 0.141182 0.296677 0.168735
H30   H     H_    0.355515 0.254789 0.183531 0.184651
H31   H     H_    0.359433 0.281976 0.361324 0.177442
O18   O     O_3   0.425715 0.307831 0.736839 -0.547226
C64   C     C_3   0.382621 0.227705 0.717099 -0.225686
H32   H     H_    0.358415 0.225817 0.806757 0.187545
H33   H     H_    0.391089 0.130918 0.688039 0.153766
H34   H     H_    0.362446 0.264912 0.631704 0.177513
O19   O     O_3   0.744660 0.445471 0.259028 -0.617025
C65   C     C_3   0.733971 0.318580 0.217854 -0.292970
H35   H     H_    0.696029 0.301460 0.181597 0.169600
H36   H     H_    0.740984 0.250912 0.299787 0.198229
H37   H     H_    0.758014 0.299407 0.132293 0.199501
O20   O     O_3   0.021379 0.167796 0.430989 -0.626912
C66   C     C_3   0.012275 0.155016 0.291650 -0.334465
H38   H     H_    0.046616 0.160043 0.232992 0.164729
H39   H     H_    0.988781 0.227584 0.255231 0.179689
H40   H     H_    0.992786 0.060553 0.272965 0.191587
Br4   Br    Br    0.355049 0.538973 0.798540 -0.371861

loop_
_geom_bond_atom_site_label_1
_geom_bond_atom_site_label_2
_geom_bond_distance
_ccdc_geom_bond_type
C38   H6    1.078244 S    
C41   C42   1.392865 A    
C56   N3    1.393411 A    
C3    C50   1.452578 S    
C19   C38   1.410639 A    
C26   O12   1.349392 S    
C10   H1    1.083704 S    
N2    C27   1.362315 A    
O13   C59   1.411100 S    
C35   C40   1.410094 A    
C12   C15   1.415242 A    
C4    C17   1.458945 S    
C46   C47   1.409882 A    
C62   H27   1.114631 S    
C52   H14   1.081011 S    
C48   C49   1.385489 A    
Zn1   O7    2.012938 S    
N1    C11   1.424176 S    
C22   C23   1.396143 A    
C51   C56   1.438495 A    
C63   H30   1.114052 S    
O4    C2    1.305166 A    
O7    C4    1.299302 A    
C5    C13   1.395749 A    
O15   C61   1.410371 S    
Zn1   N4    2.024865 S    
C5    O9    1.350401 S    
C59   H19   1.109257 S    
O17   C63   1.416899 S    
C5    N1    1.362420 A    
C23   C27   1.395595 A    
O5    C3    1.298391 A    
C29   H3    1.081649 S    
C2    C16   1.486089 S    
C51   O17   1.379599 S    
C66   H38   1.113457 S    
C59   H18   1.114207 S    
C61   H23   1.107071 S    
C54   O18   1.383052 S    
C43   H12   1.081498 S    
C57   C58   1.427448 A    
C6    O11   1.349361 S    
C44   H13   1.077054 S    
C41   H10   1.078929 S    
C60   H21   1.114008 S    
O1    Zn1   1.978614 S    
C9    C10   1.384609 A    
C39   O14   1.383688 S    
C61   H24   1.113201 S    
O3    Zn1   2.012989 S    
C28   O19   1.383840 S    
C62   H26   1.109499 S    
C52   C53   1.366164 A    
C34   C35   1.416628 A    
C12   C34   1.414779 A    
C17   C29   1.402998 A    
C6    C15   1.406789 A    
C21   H5    1.077634 S    
C60   H20   1.109282 S    
C66   H40   1.109333 S    
C12   C13   1.408893 A    
C44   C45   1.413600 A    
C15   C37   1.409370 A    
C63   H31   1.107445 S    
C58   N4    1.364181 A    
C49   C50   1.413886 A    
C42   H11   1.082510 S    
C8    C16   1.430521 A    
C38   C39   1.394387 A    
C54   C55   1.436382 A    
C30   H7    1.083303 S    
C8    Br4   1.936958 S    
C31   H8    1.082918 S    
O1    C1    1.298045 A    
C21   C22   1.385589 A    
C18   C20   1.418778 A    
C7    C11   1.396623 A    
C28   C29   1.396384 A    
C65   H36   1.114153 S    
C23   C24   1.410147 A    
C14   C36   1.390210 A    
C53   H15   1.081729 S    
Zn2   O8    2.012986 S    
C33   C36   1.425009 A    
C25   C39   1.409905 A    
C59   H17   1.111965 S    
N1    C6    1.364558 A    
N2    C32   1.422870 S    
C27   O10   1.350157 S    
C47   C48   1.397762 A    
C1    C47   1.447356 S    
O18   C64   1.415864 S    
C7    Br2   1.929820 S    
Zn2   O6    1.978614 S    
C26   N2    1.364842 A    
C53   C54   1.400149 A    
C9    C16   1.426010 A    
O8    C4    1.299251 A    
C14   H2    1.083340 S    
C60   H22   1.112309 S    
C45   C50   1.423081 A    
C17   C30   1.402766 A    
C61   H25   1.106240 S    
C30   C31   1.388768 A    
O3    C2    1.306068 A    
C64   H33   1.110456 S    
O20   C66   1.409700 S    
C45   C46   1.407828 A    
C25   C26   1.406319 A    
C55   C56   1.439401 A    
Zn1   O5    1.980275 S    
C31   C32   1.396993 A    
O16   C62   1.411688 S    
C20   C24   1.415059 A    
C36   O20   1.381989 S    
O2    Zn2   1.980273 S    
C18   C21   1.411110 A    
C51   C52   1.400989 A    
O6    C3    1.292046 A    
O4    Zn2   2.012941 S    
C37   C40   1.394189 A    
C19   C35   1.414701 A    
C57   O16   1.383653 S    
C49   O15   1.391455 S    
C7    C8    1.404223 A    
C48   Br3   1.936299 S    
O2    C1    1.293550 A    
C13   C14   1.395123 A    
C65   H37   1.109230 S    
C55   N4    1.389861 A    
C63   H29   1.110259 S    
H16   C58   1.075318 S    
C24   C25   1.414003 A    
C9    Br1   1.930042 S    
C64   H34   1.108440 S    
O19   C65   1.410508 S    
C41   C46   1.416195 A    
O14   C60   1.410523 S    
C19   C20   1.413774 A    
C18   C33   1.417898 A    
C22   H4    1.083551 S    
C40   H9    1.078246 S    
N3    C57   1.364891 A    
C66   H39   1.113171 S    
C33   C34   1.421669 A    
C37   O13   1.384709 S    
C42   C43   1.389061 A    
C10   C11   1.385532 A    
C43   C44   1.394149 A    
Zn2   N3    2.025303 S    
C64   H32   1.113589 S    
C28   C32   1.400880 A    
C62   H28   1.109352 S    
C65   H35   1.111609 S    
