data_mof_unit_58319.cif
_audit_creation_date              2012-12-10T17:57:25-0500
_audit_creation_method            fapswitch 2.2
_symmetry_space_group_name_H-M    P1
_symmetry_Int_Tables_number       1
_space_group_crystal_system       triclinic
_cell_length_a                    9.537125
_cell_length_b                    10.832938
_cell_length_c                    13.461031
_cell_angle_alpha                 90.682129
_cell_angle_beta                  72.386456
_cell_angle_gamma                 89.928946
_cell_volume                      1325.41802908

loop_
_atom_site_label
_atom_site_type_symbol
_atom_type_description
_atom_site_fract_x
_atom_site_fract_y
_atom_site_fract_z
_atom_type_partial_charge
C1    C     C_R   0.499892 0.737876 0.500225 0.789264
C2    C     C_R   0.433076 0.480396 0.979524 0.083921
C3    C     C_R   0.471555 0.453104 0.871180 0.084477
C4    C     C_R   0.542179 0.467105 0.031271 0.074519
C5    C     C_R   0.682626 0.417614 0.976461 0.167208
C6    C     C_R   0.711001 0.376637 0.873913 -0.248699
C7    C     C_R   0.606109 0.391598 0.822730 -0.205188
C8    C     C_R   0.516789 0.502864 0.135675 -0.246928
C9    C     C_R   0.762972 0.440752 0.130075 -0.184504
C10   C     C_R   0.373396 0.486971 0.814816 -0.103325
C11   C     C_R   0.627052 0.936024 0.500882 -0.183353
C12   C     C_R   0.421366 0.493250 0.700029 0.778237
C13   C     C_R   0.627088 0.063740 0.500899 -0.167405
C14   C     C_R   0.499909 0.128260 0.500401 -0.018017
C15   C     C_R   0.372510 0.063996 0.500349 -0.180086
C16   C     C_R   0.372459 0.936291 0.500339 -0.186873
C17   C     C_R   0.499787 0.871766 0.500464 -0.019829
C18   C     C_R   0.897873 0.577188 0.564955 -0.052797
C19   C     C_R   0.046390 0.576936 0.565107 -0.083665
C20   C     C_R   0.103244 0.422344 0.434659 0.239302
C21   C     C_R   0.953678 0.422138 0.434918 0.027568
C22   C     C_R   0.499994 0.262127 0.500069 0.799017
C23   C     C_R   0.578733 0.498900 0.299913 0.818736
C24   C     C_R   0.792484 0.407124 0.025603 -0.202418
C25   C     C_R   0.623186 0.484774 0.186286 -0.052740
C26   C     C_R   0.230318 0.526592 0.869248 -0.192447
C27   C     C_R   0.186830 0.539499 0.976879 -0.155282
C28   C     C_R   0.286961 0.519276 0.031615 -0.180872
Cu1   Cu    Cu3+1 0.359340 0.499980 0.500000 0.959881
Cu2   Cu    Cu3+1 0.640660 0.500020 0.500000 0.950475
H1    H     H_    0.847589 0.428343 0.167451 0.168460
H2    H     H_    0.726538 0.111620 0.501333 0.154777
H3    H     H_    0.272871 0.112065 0.500398 0.149660
H4    H     H_    0.272868 0.888392 0.500220 0.149382
H5    H     H_    0.819700 0.639156 0.617108 0.139122
H6    H     H_    0.079920 0.638675 0.617384 0.129643
H7    H     H_    0.814978 0.332748 0.832883 0.146899
H8    H     H_    0.900243 0.370387 0.983768 0.143088
H9    H     H_    0.414151 0.544357 0.180265 0.148357
H10   H     H_    0.152343 0.550503 0.828362 0.153290
H11   H     H_    0.245173 0.532643 0.114799 0.122625
H12   H     H_    0.075812 0.569379 0.018017 0.146487
H13   H     H_    0.631480 0.351409 0.745514 0.174788
H14   H     H_    0.726552 0.887907 0.501195 0.149528
N1    N     N_R   0.147940 0.499970 0.499970 -0.153086
N2    N     N_R   0.852060 0.500060 0.499990 -0.186791
O1    O     O_R   0.381250 0.680340 0.500010 -0.589852
O2    O     O_R   0.618820 0.680370 0.500010 -0.587069
O3    O     O_R   0.323240 0.499950 0.650980 -0.583941
O4    O     O_R   0.560810 0.499980 0.650980 -0.587743
O5    O     O_R   0.381180 0.319630 0.499990 -0.561721
O6    O     O_R   0.618750 0.319660 0.499990 -0.587636
O7    O     O_R   0.439190 0.500020 0.349020 -0.557277
O8    O     O_R   0.676760 0.500050 0.349020 -0.578101
N3    N     N_3   0.208642 0.341063 0.366264 -0.523415
H15   H     H_    0.212807 0.360285 0.289480 0.193918
H16   H     H_    0.172887 0.250214 0.382290 0.187964
C29   C     C_1   0.909539 0.337308 0.366783 0.244269
N4    N     N_1   0.875571 0.268166 0.312088 -0.313803

loop_
_geom_bond_atom_site_label_1
_geom_bond_atom_site_label_2
_ccdc_geom_bond_type
C12   O4    A    
N3    H15   S    
C19   N1    A    
C1    O2    A    
C12   O3    A    
C6    C7    A    
C8    H9    S    
C7    H13   S    
C11   C13   A    
C18   H5    S    
C13   H2    S    
C24   H8    S    
C20   N1    A    
C4    C8    A    
C26   H10   S    
C10   C26   A    
N3    H16   S    
C2    C3    A    
Cu2   O4    S    
C6    H7    S    
C9    C25   A    
C21   C29   S    
C9    C24   A    
C3    C10   A    
Cu1   O3    S    
C13   C14   A    
C8    C25   A    
Cu2   O8    S    
C27   H12   S    
C14   C22   S    
C26   C27   A    
Cu1   Cu2   S    
C5    C24   A    
C10   C12   S    
Cu1   O1    S    
C20   N3    S    
C2    C4    A    
C18   N2    A    
Cu2   O2    S    
Cu2   N2    S    
C23   O7    A    
C3    C7    A    
C19   H6    S    
C23   C25   S    
C1    O1    A    
C5    C6    A    
C22   O5    A    
C9    H1    S    
C15   C16   A    
C28   H11   S    
C11   H14   S    
C18   C19   A    
C20   C21   A    
C23   O8    A    
C22   O6    A    
C21   N2    A    
Cu1   O5    S    
C27   C28   A    
Cu2   O6    S    
C14   C15   A    
C4    C5    A    
C2    C28   A    
C16   H4    S    
C29   N4    T    
C1    C17   S    
C15   H3    S    
C11   C17   A    
Cu1   N1    S    
C16   C17   A    
Cu1   O7    S    
