data_mof_unit_66815.cif
_audit_creation_date              2013-03-05T15:41:27-0500
_audit_creation_method            fapswitch 2.2
_symmetry_space_group_name_H-M    P1
_symmetry_Int_Tables_number       1
_space_group_crystal_system       triclinic
_cell_length_a                    8.20698
_cell_length_b                    14.96495
_cell_length_c                    15.041532
_cell_angle_alpha                 96.89149
_cell_angle_beta                  99.283952
_cell_angle_gamma                 97.798841
_cell_volume                      1787.17709798

loop_
_atom_site_label
_atom_site_type_symbol
_atom_site_description
_atom_site_fract_x
_atom_site_fract_y
_atom_site_fract_z
_atom_type_partial_charge
P1    P     P_3+3 0.004160 0.709210 0.580280 0.487200
O1    O     O_2   0.174040 0.723040 0.553850 -0.355950
O2    O     O_3   0.901550 0.609570 0.550800 -0.348784
O3    O     O_3   0.370320 0.665070 0.388210 -0.355750
O4    O     O_2   0.295479 0.825033 0.450511 -0.412238
O5    O     O_3   0.071295 0.704916 0.697824 -0.561273
O6    O     O_3   0.339564 0.806783 0.281559 -0.488590
H1    H     H_    0.470861 0.713823 0.222607 0.081089
C1    C     C_3   0.407034 0.809757 0.130549 0.367191
P2    P     P_3+3 0.305010 0.425580 0.290930 0.499211
P3    P     P_3+3 0.890217 0.614689 0.223377 0.514379
O7    O     O_2   0.134800 0.452800 0.278160 -0.373534
O8    O     O_3   0.937630 0.618610 0.340820 -0.403467
O9    O     O_2   0.008909 0.558316 0.179609 -0.332691
O10   O     O_3   0.266949 0.307004 0.261365 -0.517393
O11   O     O_3   0.940834 0.724537 0.196936 -0.446911
C2    C     C_3   0.925796 0.787639 0.271022 0.399129
H2    H     H_    0.031068 0.790173 0.328003 0.167166
H3    H     H_    0.806971 0.769436 0.295548 -0.016247
C3    C     C_3   0.930809 0.881745 0.242236 -0.732986
H4    H     H_    0.915933 0.931783 0.299780 0.196454
H5    H     H_    0.052366 0.903366 0.221927 0.307939
C4    C     C_3   0.720009 0.341979 0.262639 0.286636
H6    H     H_    0.607471 0.361598 0.285953 0.084758
H7    H     H_    0.824430 0.400100 0.281437 0.082893
C5    C     C_3   0.684301 0.317069 0.159359 -0.091085
H8    H     H_    0.653446 0.376531 0.126642 0.062298
H9    H     H_    0.796537 0.295775 0.135759 0.189212
Ba1   Ba    Ba6+2 0.154720 0.543770 0.458160 1.610570
C6    C     C_3   0.066099 0.779021 0.765504 0.930791
C7    C     C_3   0.054707 0.871446 0.733601 -0.932959
H10   H     H_    0.156548 0.890150 0.696168 0.227775
H11   H     H_    0.069597 0.925440 0.793055 0.329562
H12   H     H_    0.930068 0.869677 0.692395 0.233464
C8    C     C_3   0.214841 0.265468 0.332558 0.235797
H13   H     H_    0.102251 0.291127 0.349954 0.085579
H14   H     H_    0.315899 0.279078 0.393486 0.092940
C9    C     C_3   0.173601 0.162483 0.301950 -0.109413
H15   H     H_    0.143534 0.127958 0.359805 0.046146
H16   H     H_    0.284359 0.136558 0.280932 0.178741
P4    P     P_3+3 0.806120 0.290780 0.419650 0.481869
O12   O     O_2   0.636250 0.276900 0.446120 -0.379741
O13   O     O_3   0.908740 0.390420 0.449120 -0.404345
O14   O     O_3   0.439970 0.334920 0.611710 -0.391142
O15   O     O_3   0.762014 0.265817 0.300826 -0.521243
P5    P     P_3+3 0.916386 0.393647 0.779352 0.499044
O16   O     O_3   0.402050 0.547860 0.609740 -0.406852
O17   O     O_3   0.872650 0.381380 0.659100 -0.387575
O18   O     O_2   0.795299 0.450487 0.819506 -0.345741
O19   O     O_3   0.865814 0.290565 0.818830 -0.544989
Ba2   Ba    Ba6+2 0.655440 0.456220 0.541760 1.620017
P6    P     P_3+3 0.411309 0.783288 0.391333 0.456998
C10   C     C_3   0.457955 0.787211 0.227126 0.110505
H17   H     H_    0.580361 0.829857 0.256158 0.019236
H18   H     H_    0.493362 0.782243 0.088140 0.025218
O20   O     O_3   0.408230 0.452130 0.390190 -0.405813
C11   C     C_3   0.570457 0.738098 0.666775 0.434800
H19   H     H_    0.700656 0.735284 0.657410 0.024008
H20   H     H_    0.483349 0.703126 0.604480 0.117502
C12   C     C_3   0.541541 0.836400 0.678004 -0.771934
H21   H     H_    0.621606 0.874962 0.741066 0.315584
H22   H     H_    0.569631 0.868086 0.618226 0.221905
H23   H     H_    0.409047 0.839234 0.682483 0.252424
P7    P     P_3+3 0.503318 0.582466 0.722067 0.542972
O21   O     O_2   0.675480 0.547140 0.721810 -0.305097
O22   O     O_3   0.544560 0.701354 0.745857 -0.485366
H24   H     H_    0.828330 0.880832 0.183922 0.271489
C13   C     C_3   0.868105 0.219012 0.750720 0.188685
H25   H     H_    0.775115 0.222099 0.689177 0.166487
H26   H     H_    0.993588 0.221414 0.731927 0.056514
C14   C     C_3   0.820009 0.129321 0.785642 0.294700
H27   H     H_    0.694752 0.126467 0.804360 0.153917
P8    P     P_3+3 0.397330 0.216688 0.605256 0.459803
C15   C     C_3   0.405671 0.251043 0.777642 0.222125
H28   H     H_    0.269073 0.250536 0.761044 0.043466
O23   O     O_2   0.518421 0.175446 0.549363 -0.383732
O24   O     O_3   0.456894 0.188947 0.714119 -0.506055
H29   H     H_    0.472114 0.321277 0.779051 0.088144
H30   H     H_    0.387551 0.266410 0.920471 0.128045
C16   C     C_3   0.447654 0.225041 0.872692 0.005206
H31   H     H_    0.584922 0.239741 0.897124 0.145432
C17   C     C_R   0.633451 0.828666 0.441135 0.157726
H32   H     H_    0.667955 0.697554 0.479056 0.162712
H33   H     H_    0.489608 0.964060 0.371325 0.188346
C18   C     C_R   0.891626 0.793787 0.523429 0.222021
C19   C     C_R   0.076851 0.233438 0.522164 -0.536978
C20   C     C_R   0.178779 0.172196 0.552531 0.243206
C21   C     C_R   0.117440 0.078939 0.539613 -0.247152
C22   C     C_R   0.951489 0.044297 0.494064 0.072394
C23   C     C_R   0.851494 0.107766 0.458196 0.003727
C24   C     C_R   0.879992 0.949399 0.485701 0.104227
C25   C     C_R   0.708938 0.920559 0.443935 -0.000104
C26   C     C_R   0.618054 0.983698 0.405446 -0.177234
C27   C     C_R   0.688920 0.074369 0.410368 -0.001628
C28   C     C_R   0.970210 0.882947 0.521442 -0.275359
C29   C     C_R   0.726376 0.767058 0.480186 -0.476310
C30   C     C_R   0.916387 0.203203 0.472383 0.249789
H34   H     H_    0.101112 0.898814 0.549502 0.166963
H35   H     H_    0.126985 0.305358 0.532697 0.177777
H36   H     H_    0.202485 0.035809 0.566279 0.164858
H37   H     H_    0.611392 0.118216 0.377935 0.171679
C31   C     C_R   0.227643 0.482636 0.767392 -0.422464
C32   C     C_R   0.130778 0.448181 0.826617 0.268082
C33   C     C_R   0.196080 0.456978 0.919795 -0.200004
C34   C     C_R   0.361880 0.501753 0.955447 0.073938
C35   C     C_R   0.454972 0.538783 0.893019 -0.227992
C36   C     C_R   0.388081 0.528658 0.800502 0.276672
C37   C     C_R   0.602350 0.555716 0.089836 -0.280262
C38   C     C_R   0.670773 0.565181 0.182035 0.195394
C39   C     C_R   0.414282 0.485552 0.212121 0.324666
C40   C     C_R   0.344968 0.474724 0.119216 -0.166281
C41   C     C_R   0.436040 0.511528 0.055764 0.094164
C42   C     C_R   0.574782 0.533573 0.243447 -0.520857
H38   H     H_    0.684542 0.581965 0.046972 0.176767
H39   H     H_    0.114281 0.428890 0.962128 0.158493
H40   H     H_    0.221602 0.435631 0.098618 0.147197
H41   H     H_    0.578799 0.577086 0.913359 0.173332
H42   H     H_    0.629199 0.540796 0.314907 0.172393
H43   H     H_    0.175845 0.476283 0.695611 0.175107
Br1   Br    Br    0.497994 0.218076 0.121337 -0.287140
Br2   Br    Br    0.275454 0.794381 0.851373 -0.338311
N1    N     N_R   0.932725 0.753154 0.816057 0.233273
O25   O     O_R   0.919431 0.673564 0.843185 -0.321756
O26   O     O_R   0.855583 0.814527 0.852604 -0.308746
N2    N     N_R   0.236452 0.765446 0.090080 0.276363
O27   O     O_R   0.122696 0.812772 0.060271 -0.238918
O28   O     O_R   0.202539 0.676925 0.074626 -0.354300
N3    N     N_R   0.032285 0.140321 0.226149 0.296191
O29   O     O_R   0.048878 0.161343 0.146277 -0.228368
O30   O     O_R   0.891442 0.095181 0.236743 -0.346259
N4    N     N_R   0.425139 0.908708 0.131280 0.261031
O31   O     O_R   0.526363 0.948174 0.084374 -0.257700
O32   O     O_R   0.344276 0.958273 0.180244 -0.344980
Br3   Br    Br    0.804158 0.033255 0.686974 -0.610657
N5    N     N_R   0.938821 0.115514 0.864689 0.281607
O33   O     O_R   0.050220 0.182416 0.910520 -0.325888
O34   O     O_R   0.915136 0.039837 0.898643 -0.233869
Br4   Br    Br    0.371254 0.096310 0.873468 -0.264700

loop_
_geom_bond_atom_site_label_1
_geom_bond_atom_site_label_2
_geom_bond_distance
_ccdc_geom_bond_type
C20   C21   1.396971 A    
C26   C27   1.390213 A    
C4    O15   1.395589 S    
O7    Ba1   2.850038 S    
P3    C38   1.828952 S    
P3    O8    1.738561 S    
P4    O12   1.505187 D    
C3    H24   1.110342 S    
C40   C41   1.420398 A    
C11   O22   1.403314 S    
N3    O29   1.301044 A    
C14   Br3   1.913433 S    
C28   H34   1.071956 S    
N5    O33   1.302320 A    
C10   H17   1.106685 S    
P5    O18   1.541314 D    
C5    H8    1.106407 S    
C34   C35   1.419153 A    
O3    P6    1.748901 S    
C12   H23   1.106437 S    
O8    Ba1   2.746828 S    
C8    H14   1.110566 S    
C5    Br1   1.938919 S    
O6    P6    1.754559 S    
Ba2   O20   2.785327 S    
P2    O10   1.749144 S    
C14   N5    1.465170 S    
C6    C7    1.527074 S    
C18   C29   1.388552 A    
C11   H20   1.107972 S    
C35   C36   1.393272 A    
C2    C3    1.519480 S    
C17   C25   1.422372 A    
C37   C38   1.392354 A    
C12   H22   1.107237 S    
P1    O1    1.504974 D    
Ba2   O21   2.850276 S    
C4    C5    1.524029 S    
C37   H38   1.074331 S    
O2    Ba1   2.896297 S    
C19   C30   1.392309 A    
C39   C40   1.402438 A    
P8    C20   1.838376 S    
C2    H3    1.108787 S    
O17   Ba2   2.747421 S    
C8    H13   1.104501 S    
C27   H37   1.078598 S    
O11   C2    1.404372 S    
C15   O24   1.405615 S    
C4    H6    1.102537 S    
C7    H11   1.110004 S    
O4    P6    1.544997 D    
C40   H40   1.076040 S    
C1    H18   1.113714 S    
C22   C24   1.443638 A    
P2    O20   1.569333 S    
C23   C30   1.432729 A    
O3    Ba1   2.778552 S    
C38   C42   1.391467 A    
O12   Ba2   2.860303 S    
C15   C16   1.524828 S    
Ba1   O13   2.817722 S    
P4    O13   1.584079 S    
O14   P8    1.744197 S    
O10   C8    1.396895 S    
C33   C34   1.420912 A    
C23   C27   1.403775 A    
C1    N4    1.466570 S    
P1    C18   1.873052 S    
P5    O17   1.768370 S    
C17   C29   1.397454 A    
C15   H28   1.107292 S    
P1    O5    1.776575 S    
C6    N1    1.466424 S    
C8    C9    1.529583 S    
H30   C16   1.110655 S    
C24   C25   1.427462 A    
O2    Ba2   2.818359 S    
C19   C20   1.390538 A    
C13   H25   1.110575 S    
C11   C12   1.515589 S    
O16   Ba2   2.893856 S    
C1    N2    1.465049 S    
C37   C41   1.418068 A    
C12   H21   1.108672 S    
P1    O2    1.584063 S    
P7    O22   1.747205 S    
C33   H39   1.076283 S    
P3    O11   1.748684 S    
C7    H10   1.104588 S    
C6    Br2   1.943892 S    
P1    Ba1   3.391418 S    
C2    H2    1.107626 S    
C7    H12   1.102428 S    
C31   C36   1.384224 A    
C3    H4    1.108234 S    
P6    C17   1.856694 S    
C19   H35   1.081950 S    
C39   C42   1.391076 A    
C21   H36   1.076419 S    
P2    O7    1.496935 D    
O14   Ba2   2.777903 S    
O5    C6    1.422644 S    
C34   C41   1.514994 S    
Ba1   O16   2.786016 S    
O1    Ba1   2.859774 S    
C35   H41   1.074443 S    
N2    O27   1.301853 A    
P8    O23   1.544946 D    
P4    C30   1.872289 S    
C1    C10   1.535816 S    
O6    C10   1.405911 S    
N1    O26   1.302107 A    
N4    O31   1.301033 A    
O16   P7    1.741759 S    
P7    C36   1.821006 S    
Ba1   Ba2   4.548503 S    
N5    O34   1.300881 A    
P4    O15   1.749086 S    
C3    H5    1.108007 S    
C16   H31   1.110101 S    
N4    O32   1.301231 A    
N3    O30   1.300446 A    
H1    C10   1.112637 S    
C9    N3    1.460567 S    
Ba1   O20   2.894625 S    
P5    C32   1.826132 S    
P5    O19   1.740737 S    
C5    H9    1.110867 S    
P7    O21   1.574752 D    
N1    O25   1.301063 A    
C14   H27   1.105532 S    
C9    H16   1.111623 S    
C18   C28   1.406906 A    
P2    Ba1   3.391509 S    
O13   Ba2   2.897198 S    
C11   H19   1.105777 S    
C9    H15   1.108022 S    
C13   C14   1.524990 S    
C16   Br4   1.945355 S    
H32   C29   1.081580 S    
C25   C26   1.402682 A    
P3    O9    1.546171 D    
P2    C39   1.842486 S    
H33   C26   1.079902 S    
C4    H7    1.109683 S    
C31   C32   1.385249 A    
C24   C28   1.423330 A    
C42   H42   1.081948 S    
C21   C22   1.419557 A    
C13   H26   1.108184 S    
C15   H29   1.112602 S    
C32   C33   1.401099 A    
N2    O28   1.300590 A    
P8    O24   1.747149 S    
C22   C23   1.434693 A    
O19   C13   1.394593 S    
P4    Ba2   3.391886 S    
C31   H43   1.082492 S    
