data_mof_unit_11206.cif
_audit_creation_date              2012-12-10T18:57:10-0500
_audit_creation_method            fapswitch 2.2
_symmetry_space_group_name_H-M    P1
_symmetry_Int_Tables_number       1
_space_group_crystal_system       triclinic
_cell_length_a                    10.655053
_cell_length_b                    9.890321
_cell_length_c                    10.722592
_cell_angle_alpha                 90.835292
_cell_angle_beta                  92.103439
_cell_angle_gamma                 89.790394
_cell_volume                      1129.08016657

loop_
_atom_site_label
_atom_site_type_symbol
_atom_type_description
_atom_site_fract_x
_atom_site_fract_y
_atom_site_fract_z
_atom_type_partial_charge
C1    C     C_R   0.260337 0.500099 0.509792 0.874609
C2    C     C_R   0.475726 0.624120 0.938592 -0.127050
C3    C     C_R   0.480663 0.498351 0.128148 -0.093450
C4    C     C_R   0.474280 0.502703 0.870507 -0.120252
C5    C     C_R   0.453353 0.378906 0.060882 -0.215613
C6    C     C_R   0.451115 0.380791 0.931548 -0.126475
C7    C     C_3   0.558950 0.748276 0.934511 0.327882
C8    C     C_3   0.573763 0.738395 0.075983 0.325723
C9    C     C_R   0.060616 0.377227 0.528354 -0.100451
C10   C     C_R   0.939243 0.373558 0.475708 -0.108158
C11   C     C_R   0.872384 0.497084 0.473968 -0.108914
C12   C     C_R   0.739201 0.499126 0.487951 0.878671
C13   C     C_R   0.126561 0.499981 0.518024 -0.104171
C14   C     C_R   0.935358 0.620446 0.479146 -0.204134
C15   C     C_R   0.062931 0.621382 0.495682 -0.232531
C16   C     C_3   0.375875 0.867047 0.861004 -0.191185
C17   C     C_3   0.754543 0.591713 0.089873 -0.277418
C18   C     C_2   0.104536 0.268119 0.615688 0.919341
C19   C     C_2   0.896813 0.253638 0.398057 0.920053
C20   C     C_3   0.725856 0.179663 0.695839 -0.118071
C21   C     C_3   0.269807 0.171118 0.310274 -0.178698
C22   C     C_3   0.754349 0.854787 0.669061 -0.223163
C23   C     C_R   0.558166 0.072904 0.595824 0.364959
C24   C     C_3   0.261516 0.842124 0.307050 -0.224606
C25   C     C_R   0.442807 0.070657 0.403710 0.387801
C26   C     C_R   0.562668 0.928796 0.592484 0.397925
C27   C     C_R   0.440730 0.926551 0.404958 0.375192
C28   C     C_R   0.496727 0.499089 0.260116 0.885115
C29   C     C_R   0.495326 0.500989 0.739870 0.863376
C30   C     C_R   0.486138 0.619671 0.065602 -0.041565
H1    H     H_    0.441949 0.283483 0.106927 0.227552
H2    H     H_    0.724405 0.552263 0.996178 0.128820
H3    H     H_    0.735878 0.515855 0.161972 0.193533
H4    H     H_    0.857834 0.604945 0.089354 0.185236
H5    H     H_    0.069315 0.088987 0.695500 0.323590
H6    H     H_    0.932619 0.063814 0.336371 0.336852
H7    H     H_    0.770897 0.150662 0.607077 0.147640
H8    H     H_    0.780821 0.135253 0.774867 0.159891
H9    H     H_    0.733056 0.290624 0.709587 0.163572
H10   H     H_    0.230831 0.150760 0.403291 0.160270
H11   H     H_    0.213014 0.115846 0.237735 0.157008
H12   H     H_    0.439355 0.286034 0.880576 0.220975
H13   H     H_    0.256967 0.280000 0.290037 0.171286
H14   H     H_    0.784245 0.894504 0.577903 0.124597
H15   H     H_    0.786643 0.748605 0.677290 0.170731
H16   H     H_    0.803987 0.910808 0.745999 0.164621
H17   H     H_    0.218477 0.890804 0.389820 0.120214
H18   H     H_    0.238053 0.733085 0.304818 0.183939
H19   H     H_    0.217121 0.884912 0.221219 0.159475
H20   H     H_    0.647412 0.730032 0.885470 0.145426
H21   H     H_    0.530552 0.825641 0.124416 0.200247
H22   H     H_    0.886592 0.715977 0.469169 0.173124
H23   H     H_    0.110867 0.717382 0.493630 0.163029
H24   H     H_    0.315972 0.833267 0.937294 0.137527
H25   H     H_    0.364015 0.800282 0.777348 0.180995
H26   H     H_    0.343570 0.969558 0.833706 0.180212
N1    N     N_R   0.500000 0.857200 0.500000 -0.211910
N2    N     N_R   0.500000 0.142810 0.500000 -0.198684
O1    O     O_R   0.316770 0.614620 0.499990 -0.640728
O2    O     O_3   0.699743 0.717459 0.122388 -0.608230
O3    O     O_2   0.199158 0.283829 0.682316 -0.640967
O4    O     O_R   0.031230 0.153059 0.631453 -0.817228
O5    O     O_2   0.803770 0.261540 0.328222 -0.624349
O6    O     O_R   0.969699 0.135854 0.394879 -0.815920
O7    O     O_3   0.598961 0.140763 0.703320 -0.555383
O8    O     O_3   0.397858 0.137119 0.298848 -0.573646
O9    O     O_3   0.623720 0.859416 0.687217 -0.531705
O10   O     O_3   0.392989 0.856043 0.301965 -0.573937
O11   O     O_R   0.683230 0.614620 0.500010 -0.613483
O12   O     O_R   0.316800 0.385290 0.500000 -0.602697
O13   O     O_R   0.683200 0.385290 0.500000 -0.606432
O14   O     O_R   0.500000 0.614690 0.316780 -0.558266
O15   O     O_R   0.500000 0.614690 0.683220 -0.592036
O16   O     O_R   0.500020 0.385360 0.316780 -0.565604
O17   O     O_R   0.499980 0.385360 0.683220 -0.561067
O18   O     O_3   0.502983 0.875246 0.902410 -0.552176
Zn1   Zn    Zn3+2 0.500000 0.653120 0.500000 1.002744
Zn2   Zn    Zn3+2 0.500000 0.346880 0.500000 1.036596

loop_
_geom_bond_atom_site_label_1
_geom_bond_atom_site_label_2
_ccdc_geom_bond_type
C23   N2    A    
C12   O11   A    
C21   O8    S    
O12   Zn2   S    
O11   Zn1   S    
C2    C7    S    
C28   O16   A    
O1    Zn1   S    
C7    C8    S    
C26   O9    S    
C15   H23   S    
C3    C28   S    
C1    O1    A    
C5    C6    A    
C11   C14   A    
C29   O15   A    
C23   C26   A    
C9    C13   A    
C27   O10   S    
C21   H13   S    
C14   H22   S    
C19   O5    D    
C9    C10   A    
C10   C19   S    
C4    C29   S    
C28   O14   A    
C17   H3    S    
O17   Zn2   S    
C22   H14   S    
C24   H18   S    
N1    Zn1   S    
C20   O7    S    
C4    C6    A    
C27   N1    A    
C20   H9    S    
N2    Zn2   S    
C18   O4    S    
C3    C30   A    
C2    C4    A    
C16   H26   S    
O14   Zn1   S    
C20   H8    S    
C19   O6    S    
C8    H21   S    
C21   H11   S    
C22   H16   S    
C12   O13   A    
C13   C15   A    
C6    H12   S    
C1    C13   S    
C17   H4    S    
C25   N2    A    
C24   H19   S    
C16   O18   S    
C24   H17   S    
C25   O8    S    
C7    H20   S    
C3    C5    A    
C11   C12   S    
C18   O3    D    
C7    O18   S    
C29   O17   A    
C25   C27   A    
C1    O12   A    
C2    C30   A    
C8    C30   S    
C23   O7    S    
C16   H25   S    
C8    O2    S    
C20   H7    S    
C21   H10   S    
H5    O4    S    
C26   N1    A    
C16   H24   S    
C22   O9    S    
C10   C11   A    
C24   O10   S    
C17   O2    S    
C9    C18   S    
C22   H15   S    
O16   Zn2   S    
C17   H2    S    
O15   Zn1   S    
C14   C15   A    
H6    O6    S    
O13   Zn2   S    
C5    H1    S    
