data_mof_unit_25936.cif
_audit_creation_date              2012-12-11T16:35:13-0500
_audit_creation_method            fapswitch 2.2
_symmetry_space_group_name_H-M    P1
_symmetry_Int_Tables_number       1
_space_group_crystal_system       triclinic
_cell_length_a                    6.93044
_cell_length_b                    17.690271
_cell_length_c                    19.490698
_cell_angle_alpha                 109.11505
_cell_angle_beta                  90.413504
_cell_angle_gamma                 90.640296
_cell_volume                      2257.54074955

loop_
_atom_site_label
_atom_site_type_symbol
_atom_type_description
_atom_site_fract_x
_atom_site_fract_y
_atom_site_fract_z
_atom_type_partial_charge
O1    O     O_R   0.505700 0.440210 0.561730 -0.542078
O2    O     O_R   0.169350 0.406300 0.412660 -0.537911
O3    O     O_R   0.005650 0.559790 0.438270 -0.542687
C1    C     C_R   0.337859 0.383339 0.384720 0.697773
O4    O     O_R   0.175560 0.430650 0.559600 -0.545457
O5    O     O_R   0.011900 0.584320 0.586250 -0.535066
C2    C     C_R   0.344672 0.415786 0.581366 0.684136
O6    O     O_R   0.499450 0.415680 0.413750 -0.532941
O7    O     O_3   0.341370 0.550390 0.508570 -0.367721
V1    V     V_3+5 0.063940 0.490650 0.498410 1.412775
O8    O     O_R   0.682570 0.593700 0.587340 -0.538321
C3    C     C_R   0.852707 0.616450 0.615030 0.697825
O9    O     O_R   0.676370 0.569350 0.440400 -0.544664
C4    C     C_R   0.845293 0.584324 0.418771 0.685205
V2    V     V_3+5 0.564750 0.509350 0.501590 1.415873
O10   O     O_3   0.837190 0.449610 0.491430 -0.367382
C5    C     C_R   0.037534 0.679468 0.283561 -0.135793
H1    H     H_    0.168936 0.677164 0.253300 0.099082
C6    C     C_R   0.026287 0.634439 0.330614 -0.143466
H2    H     H_    0.149967 0.599611 0.335609 0.112611
C7    C     C_R   0.856895 0.633195 0.369611 -0.045809
C8    C     C_R   0.699321 0.678557 0.360621 -0.182517
H3    H     H_    0.566927 0.679245 0.389994 0.121775
C9    C     C_R   0.711216 0.724316 0.314102 -0.140969
H4    H     H_    0.588121 0.759726 0.309903 0.099493
C10   C     C_R   0.880431 0.725367 0.274682 0.097479
C11   C     C_R   0.729382 0.784679 0.185718 -0.140482
H5    H     H_    0.592298 0.756890 0.190284 0.102498
C12   C     C_R   0.740719 0.830508 0.139321 -0.169086
H6    H     H_    0.611621 0.837430 0.110413 0.120365
C13   C     C_R   0.916541 0.866021 0.129640 -0.043502
C14   C     C_R   0.080667 0.854792 0.167827 -0.164911
H7    H     H_    0.217985 0.881915 0.162243 0.112583
C15   C     C_R   0.068855 0.809794 0.214978 -0.149995
H8    H     H_    0.197422 0.804365 0.244780 0.097285
C16   C     C_R   0.893043 0.773851 0.224576 0.091794
H9    H     H_    0.661991 0.649242 0.932883 0.115818
C17   C     C_R   0.025665 0.902218 0.742019 0.194450
C18   C     C_R   0.084537 0.907015 0.674777 -0.147440
C19   C     C_R   0.072884 0.840996 0.612472 -0.161740
C20   C     C_R   0.000925 0.768832 0.615548 -0.136399
C21   C     C_R   0.943239 0.760063 0.682044 0.032692
C22   C     C_R   0.958580 0.827193 0.747394 0.052604
C23   C     C_R   0.867369 0.685685 0.683221 -0.170562
C24   C     C_R   0.809725 0.676771 0.749626 0.071804
C25   C     C_R   0.829709 0.742037 0.815390 0.053772
C26   C     C_R   0.904186 0.816988 0.814673 -0.188063
C27   C     C_R   0.735653 0.602739 0.752104 -0.141938
C28   C     C_R   0.682116 0.593375 0.817596 -0.121154
C29   C     C_R   0.702522 0.656892 0.881994 -0.115549
C30   C     C_R   0.775978 0.730262 0.881294 -0.133501
H10   H     H_    0.136470 0.963153 0.670255 0.114666
H11   H     H_    0.116720 0.846154 0.560959 0.125977
H12   H     H_    0.990268 0.720102 0.564682 0.110722
H13   H     H_    0.719144 0.551092 0.703677 0.101533
H14   H     H_    0.625661 0.536345 0.818378 0.119744
H15   H     H_    0.790779 0.777247 0.933163 0.093945
C31   C     C_R   0.238412 0.219537 0.373770 -0.141879
C32   C     C_R   0.199048 0.141322 0.371463 -0.116423
C33   C     C_R   0.232302 0.077721 0.308495 -0.123714
C34   C     C_R   0.305384 0.091805 0.247326 -0.137517
C35   C     C_R   0.345077 0.170612 0.247592 0.070663
C36   C     C_R   0.310566 0.235910 0.312290 0.067864
C37   C     C_R   0.420788 0.184565 0.185123 -0.170545
C38   C     C_R   0.461188 0.264220 0.187665 0.068236
C39   C     C_R   0.426295 0.329524 0.252261 0.039233
C40   C     C_R   0.351691 0.315516 0.314906 -0.172480
C41   C     C_R   0.532374 0.280546 0.126111 -0.195616
C42   C     C_R   0.569670 0.358725 0.127977 -0.117835
C43   C     C_R   0.535155 0.423010 0.190623 0.252119
C44   C     C_R   0.463700 0.408420 0.252304 -0.175041
H16   H     H_    0.211753 0.266760 0.424310 0.105830
H17   H     H_    0.143339 0.129995 0.418982 0.115055
H18   H     H_    0.202573 0.017026 0.307144 0.117619
H19   H     H_    0.332181 0.040098 0.200220 0.098408
H20   H     H_    0.559630 0.233241 0.075682 0.121877
H21   H     H_    0.624669 0.369392 0.080032 0.127042
H22   H     H_    0.435246 0.459498 0.299784 0.098601
C45   C     C_R   0.544828 0.314053 0.710563 -0.150510
H23   H     H_    0.683329 0.309857 0.735020 0.101170
C46   C     C_R   0.533271 0.358459 0.663032 -0.166090
H24   H     H_    0.663772 0.386442 0.651922 0.117852
C47   C     C_R   0.355854 0.367451 0.631096 -0.050485
C48   C     C_R   0.190207 0.330690 0.648031 -0.167839
H25   H     H_    0.051265 0.336112 0.624415 0.119859
C49   C     C_R   0.201980 0.285887 0.695372 -0.143955
H26   H     H_    0.072026 0.257325 0.706129 0.098720
C50   C     C_R   0.379506 0.276985 0.727386 0.104853
C51   C     C_R   0.243058 0.231083 0.827016 -0.204084
H27   H     H_    0.118813 0.268447 0.829466 0.111712
C52   C     C_R   0.253308 0.186072 0.874543 0.184753
C53   C     C_R   0.415256 0.137620 0.873413 -0.052667
C54   C     C_R   0.565615 0.137385 0.825388 -0.232035
H28   H     H_    0.690929 0.100933 0.823017 0.120183
C55   C     C_R   0.554335 0.182319 0.778303 -0.147006
H29   H     H_    0.671412 0.178774 0.740949 0.111082
C56   C     C_R   0.392358 0.229436 0.778094 0.062454
O11   O     O_R   0.273230 0.084330 0.086440 -0.534399
O12   O     O_R   0.596660 0.069390 0.940470 -0.553809
O13   O     O_R   0.760270 0.915710 0.913690 -0.544323
C57   C     C_R   0.427110 0.086098 0.920412 0.732990
O14   O     O_R   0.603330 0.093680 0.087390 -0.539662
O15   O     O_R   0.766990 0.940160 0.061660 -0.545392
C58   C     C_R   0.434837 0.116668 0.115384 0.691167
O16   O     O_R   0.266510 0.059870 0.938470 -0.499535
O17   O     O_3   0.431050 0.949630 0.991510 -0.375960
V3    V     V_3+5 0.708490 0.009340 0.001580 1.430715
O18   O     O_R   0.096270 0.930570 0.059390 -0.549016
C59   C     C_R   0.927446 0.915404 0.080910 0.669632
O19   O     O_R   0.089600 0.906290 0.912460 -0.522566
C60   C     C_R   0.919430 0.883963 0.884461 0.766508
V4    V     V_3+5 0.207670 0.990600 0.998190 1.469070
O20   O     O_3   0.935250 0.050360 0.008480 -0.352098
N1    N     N_3   0.027145 0.974598 0.803238 -0.648489
H30   H     H_    0.883991 0.992399 0.812899 0.204341
H31   H     H_    0.100197 0.020825 0.791457 0.219980
N2    N     N_3   0.573780 0.502955 0.190759 -0.663673
H32   H     H_    0.477941 0.514424 0.153800 0.220914
H33   H     H_    0.543589 0.544371 0.241569 0.226430
N3    N     N_3   0.100771 0.191463 0.925077 -0.647905
H34   H     H_    0.971951 0.174095 0.895629 0.225589
H35   H     H_    0.088553 0.251393 0.957385 0.220843

loop_
_geom_bond_atom_site_label_1
_geom_bond_atom_site_label_2
_ccdc_geom_bond_type
C27   H13   S    
C2    C47   S    
C54   H28   S    
C11   C12   A    
C20   C21   A    
C42   H21   S    
C55   H29   S    
C1    O6    A    
C46   H24   S    
O17   V4    S    
C24   C25   A    
C34   H19   S    
C12   H6    S    
C5    C10   A    
C4    C7    S    
C6    C7    A    
C48   C49   A    
N2    H33   S    
O5    C3    A    
C17   C18   A    
C17   N1    S    
C49   C50   A    
O17   V3    S    
C43   N2    S    
V2    O10   S    
O18   C59   A    
C15   H8    S    
C28   C29   A    
O19   C60   A    
C45   C50   A    
C35   C37   A    
O8    V2    S    
V3    O20   S    
C47   C48   A    
C41   C42   A    
C43   C44   A    
C30   H15   S    
C51   C52   A    
O7    V1    S    
C32   H17   S    
C50   C56   S    
C39   C40   A    
N3    H34   S    
C32   C33   A    
C54   C55   A    
O9    C4    A    
C42   C43   A    
C21   C23   A    
C52   N3    S    
V4    O20   S    
C46   C47   A    
N3    H35   S    
C29   C30   A    
C57   O16   A    
C36   C40   A    
O11   V4    S    
C9    H4    S    
C52   C53   A    
C45   C46   A    
C49   H26   S    
C31   C32   A    
C25   C30   A    
O18   V4    S    
C51   C56   A    
C33   C34   A    
C14   C15   A    
O2    C1    A    
C35   C36   A    
C39   C44   A    
C38   C41   A    
C5    H1    S    
C13   C59   S    
O14   V3    S    
C48   H25   S    
O14   C58   A    
O3    C4    A    
C53   C57   S    
O1    V2    S    
C10   C16   S    
C19   C20   A    
O12   C57   A    
O16   V4    S    
C19   H11   S    
O6    V2    S    
O9    V2    S    
C8    C9    A    
C21   C22   A    
O2    V1    S    
C18   C19   A    
C23   C24   A    
O4    C2    A    
C24   C27   A    
C31   C36   A    
C37   C58   S    
C25   C26   A    
C27   C28   A    
O13   V3    S    
O1    C2    A    
C13   C14   A    
C9    C10   A    
O5    V1    S    
C1    C40   S    
N1    H31   S    
O8    C3    A    
C55   C56   A    
N1    H30   S    
C11   C16   A    
C41   H20   S    
C28   H14   S    
O12   V3    S    
O15   C59   A    
C14   H7    S    
C6    H2    S    
O7    V2    S    
C17   C22   A    
C12   C13   A    
O3    V1    S    
V1    O10   S    
N2    H32   S    
C37   C38   A    
H9    C29   S    
C31   H16   S    
C26   C60   S    
C33   H18   S    
C53   C54   A    
C5    C6    A    
C18   H10   S    
C15   C16   A    
C34   C35   A    
O19   V4    S    
C20   H12   S    
C45   H23   S    
O4    V1    S    
O13   C60   A    
C3    C23   S    
C38   C39   A    
C11   H5    S    
C8    H3    S    
O15   V3    S    
C51   H27   S    
C7    C8    A    
C22   C26   A    
O11   C58   A    
C44   H22   S    
