data_mof_unit_56619.cif
_audit_creation_date              2012-12-11T15:13:41-0500
_audit_creation_method            fapswitch 2.2
_symmetry_space_group_name_H-M    P1
_symmetry_Int_Tables_number       1
_space_group_crystal_system       triclinic
_cell_length_a                    6.965618
_cell_length_b                    13.811029
_cell_length_c                    19.937568
_cell_angle_alpha                 103.873048
_cell_angle_beta                  90.007213
_cell_angle_gamma                 90.094798
_cell_volume                      1862.0876725

loop_
_atom_site_label
_atom_site_type_symbol
_atom_type_description
_atom_site_fract_x
_atom_site_fract_y
_atom_site_fract_z
_atom_type_partial_charge
O1    O     O_R   0.506780 0.600060 0.449950 -0.543486
O2    O     O_R   0.179840 0.597110 0.589410 -0.542418
O3    O     O_R   0.004570 0.399940 0.550050 -0.535600
C1    C     C_R   0.348401 0.620870 0.616067 0.698387
O4    O     O_R   0.177380 0.612160 0.452890 -0.550531
O5    O     O_R   0.002100 0.415100 0.412560 -0.530538
C2    C     C_R   0.346252 0.634500 0.433483 0.707723
O6    O     O_R   0.509250 0.584900 0.587440 -0.532573
O7    O     O_3   0.337570 0.435330 0.486930 -0.368542
V1    V     V_3+5 0.064650 0.512000 0.502430 1.435277
O8    O     O_R   0.672090 0.402890 0.410590 -0.548475
C3    C     C_R   0.840453 0.388486 0.381215 0.723861
O9    O     O_R   0.674540 0.387840 0.547110 -0.545014
C4    C     C_R   0.843843 0.361944 0.563896 0.704424
V2    V     V_3+5 0.564040 0.488000 0.497570 1.431651
O10   O     O_3   0.840990 0.564670 0.513070 -0.377139
C5    C     C_R   0.988495 0.125756 0.610446 -0.166765
H1    H     H_    0.982591 0.177934 0.517639 0.123028
H2    H     H_    0.083477 0.014570 0.696761 0.119446
H3    H     H_    0.058540 0.056489 0.585422 0.118676
C6    C     C_R   0.858007 0.284516 0.602348 -0.035779
C7    C     C_R   0.749908 0.301479 0.929623 -0.157759
C8    C     C_R   0.680845 0.365584 0.891410 -0.124667
C9    C     C_R   0.711558 0.345125 0.820460 -0.167169
C10   C     C_R   0.818633 0.260842 0.786073 0.075746
C11   C     C_R   0.884804 0.193685 0.825281 0.062226
C12   C     C_R   0.856328 0.239417 0.713703 0.072523
C13   C     C_R   0.949822 0.148683 0.681515 0.141853
C14   C     C_R   0.008908 0.082856 0.720700 -0.206742
C15   C     C_R   0.978280 0.105120 0.791479 -0.197160
C16   C     C_R   0.811455 0.306777 0.672529 -0.222320
C17   C     C_R   0.944465 0.193912 0.571515 -0.178978
C18   C     C_R   0.848690 0.214783 0.897238 -0.077052
H4    H     H_    0.752326 0.379673 0.694165 0.088982
H5    H     H_    0.716555 0.316535 0.984260 0.099697
H6    H     H_    0.644832 0.395159 0.793685 0.111744
H7    H     H_    0.597208 0.430026 0.916668 0.120089
H8    H     H_    0.028898 0.051950 0.819418 0.136596
C19   C     C_3   0.755001 0.183092 0.246807 0.331714
C20   C     C_3   0.934255 0.220981 0.290359 0.381863
C21   C     C_3   0.850628 0.326427 0.308282 -0.086971
C22   C     C_3   0.671101 0.290521 0.264126 -0.263959
C23   C     C_3   0.772398 0.309466 0.198995 -0.172713
C24   C     C_3   0.949907 0.349405 0.244538 -0.162974
C25   C     C_3   0.035322 0.242899 0.226825 -0.204544
C26   C     C_3   0.856975 0.202253 0.182805 -0.112946
H9    H     H_    0.523917 0.317497 0.279784 0.122295
H10   H     H_    0.705339 0.345986 0.160956 0.120169
H11   H     H_    0.031152 0.418448 0.244012 0.110784
H12   H     H_    0.183736 0.232891 0.208700 0.108014
C27   C     C_3   0.522063 0.763921 0.716058 0.405483
C28   C     C_3   0.380384 0.850489 0.743786 -0.306638
H13   H     H_    0.394821 0.929560 0.741199 0.122481
C29   C     C_3   0.361545 0.815284 0.811341 -0.098476
C30   C     C_3   0.503603 0.729729 0.783625 0.444261
C31   C     C_3   0.334498 0.659776 0.754113 -0.293736
C32   C     C_3   0.192604 0.747047 0.781120 -0.135183
C33   C     C_3   0.212268 0.779830 0.712461 -0.157290
C34   C     C_3   0.355516 0.693425 0.685695 -0.141237
H14   H     H_    0.311348 0.581986 0.758500 0.121829
H15   H     H_    0.054849 0.748897 0.808601 0.171458
H16   H     H_    0.088933 0.799300 0.683937 0.177638
C35   C     C_R   0.555339 0.847971 0.377719 0.460101
H17   H     H_    0.527205 0.804265 0.472973 0.124288
H18   H     H_    0.738832 0.914701 0.279701 0.170901
C36   C     C_R   0.365541 0.708491 0.392969 -0.102696
C37   C     C_R   0.211595 0.701571 0.069332 -0.145292
C38   C     C_R   0.144515 0.636691 0.107525 -0.130336
C39   C     C_R   0.203120 0.647396 0.175622 -0.157855
C40   C     C_R   0.340697 0.720248 0.206037 0.108921
C41   C     C_R   0.426603 0.778373 0.163599 0.047179
C42   C     C_R   0.389298 0.740553 0.277884 0.018889
C43   C     C_R   0.522925 0.818225 0.305500 -0.004222
C44   C     C_R   0.626395 0.861846 0.260399 -0.148233
C45   C     C_R   0.581939 0.840933 0.190316 -0.201620
C46   C     C_R   0.311897 0.685940 0.323392 -0.225095
C47   C     C_R   0.483255 0.789424 0.419500 -0.217777
C48   C     C_R   0.348227 0.774966 0.096885 -0.097865
H19   H     H_    0.223056 0.620895 0.305556 0.107169
H20   H     H_    0.150744 0.696989 0.018608 0.116045
H21   H     H_    0.135338 0.598532 0.203257 0.103066
H22   H     H_    0.037867 0.581035 0.085407 0.120891
H23   H     H_    0.662465 0.879733 0.158498 0.167942
O11   O     O_R   0.203580 0.914920 0.912610 -0.546608
O12   O     O_R   0.535710 0.887810 0.047120 -0.542871
O13   O     O_R   0.710730 0.084950 0.087430 -0.536630
C49   C     C_R   0.366454 0.858083 0.061543 0.673766
O14   O     O_R   0.533010 0.902850 0.910600 -0.520385
O15   O     O_R   0.708010 0.100090 0.949930 -0.541284
C50   C     C_R   0.365360 0.882636 0.882708 0.725422
O16   O     O_R   0.206300 0.899780 0.050100 -0.538527
O17   O     O_3   0.375170 0.064580 0.013100 -0.379816
V3    V     V_3+5 0.648200 0.988020 0.997570 1.471327
O18   O     O_R   0.038030 0.112330 0.952840 -0.548706
C51   C     C_R   0.868111 0.138007 0.936122 0.677747
O19   O     O_R   0.040730 0.097300 0.089360 -0.548061
C52   C     C_R   0.870480 0.124433 0.114743 0.705095
V4    V     V_3+5 0.148780 0.012220 0.002360 1.416457
O20   O     O_3   0.871930 0.935430 0.986900 -0.363945
O21   O     O_3   0.645508 0.096167 0.246728 -0.585037
C53   C     C_3   0.451100 0.117926 0.236647 0.070381
H24   H     H_    0.438169 0.147645 0.189603 0.135099
H25   H     H_    0.394897 0.170688 0.283644 0.168711
C54   C     C_3   0.323572 0.027526 0.224749 -0.656451
H26   H     H_    0.336438 0.989673 0.267420 0.221038
H27   H     H_    0.172654 0.049243 0.219659 0.177585
H28   H     H_    0.361786 0.978798 0.175192 0.204870
O22   O     O_3   0.696536 0.773106 0.681577 -0.561122
C55   C     C_3   0.660381 0.821597 0.627680 0.113386
H29   H     H_    0.614148 0.899976 0.648974 0.117482
H30   H     H_    0.547670 0.781917 0.591921 0.099918
C56   C     C_3   0.841530 0.824747 0.585431 -0.717857
H31   H     H_    0.911687 0.750636 0.572045 0.247683
H32   H     H_    0.806066 0.846999 0.537043 0.193218
H33   H     H_    0.942816 0.881137 0.614671 0.182646
O23   O     O_3   0.654378 0.708204 0.825077 -0.552735
C57   C     C_3   0.745207 0.618241 0.791782 0.091497
H34   H     H_    0.835862 0.629833 0.748492 0.153510
H35   H     H_    0.640773 0.557647 0.770851 0.093291
C58   C     C_3   0.870199 0.582997 0.844008 -0.726840
H36   H     H_    0.778014 0.564021 0.884355 0.221643
H37   H     H_    0.953428 0.516223 0.817592 0.184669
H38   H     H_    0.971592 0.641842 0.870219 0.216998
O24   O     O_3   0.679008 0.924937 0.407329 -0.576522
C59   C     C_3   0.573464 0.012561 0.437272 0.065009
H39   H     H_    0.484367 0.035966 0.397833 0.133706
H40   H     H_    0.677534 0.073409 0.456449 0.147585
C60   C     C_3   0.456634 0.006904 0.501420 -0.807820
H41   H     H_    0.546723 0.977684 0.538031 0.228266
H42   H     H_    0.407503 0.082880 0.528036 0.204649
H43   H     H_    0.326893 0.959818 0.487168 0.216477
O25   O     O_3   0.042600 0.183130 0.338191 -0.574685
C61   C     C_3   0.958234 0.095301 0.347890 0.121495
H44   H     H_    0.945283 0.038985 0.298131 0.143973
H45   H     H_    0.814211 0.113161 0.370604 0.132467
C62   C     C_3   0.083409 0.050799 0.395595 -0.745062
H46   H     H_    0.994944 0.019636 0.431470 0.222990
H47   H     H_    0.170628 0.988649 0.365112 0.197447
H48   H     H_    0.180203 0.108412 0.426523 0.234517

loop_
_geom_bond_atom_site_label_1
_geom_bond_atom_site_label_2
_ccdc_geom_bond_type
C24   H11   S    
C48   C49   S    
C30   C31   S    
C33   H16   S    
C53   H24   S    
C49   O16   A    
C21   C22   S    
C46   H19   S    
C42   C46   A    
C60   H41   S    
C56   H32   S    
C35   O24   S    
C32   C33   S    
O17   V4    S    
C25   C26   S    
C31   C32   S    
C7    H5    S    
C6    C16   A    
C9    H6    S    
C4    C6    S    
C13   C14   A    
C29   C50   S    
C57   H35   S    
O5    C3    A    
C30   O23   S    
O18   V4    S    
V2    O10   S    
C5    H3    S    
O22   C55   S    
C15   H8    S    
C43   C44   A    
C36   C47   A    
O13   C52   A    
O17   V3    S    
O14   V3    S    
O12   V3    S    
C28   C29   S    
C27   O22   S    
O19   V4    S    
C61   C62   S    
C8    C9    A    
C40   C41   A    
O1    V2    S    
C41   C48   A    
C23   H10   S    
V3    O20   S    
C58   H38   S    
C1    O6    A    
C42   C43   A    
C35   C47   A    
C20   O25   S    
C53   H25   S    
O9    C4    A    
C56   H31   S    
O18   C51   A    
C37   C48   A    
O11   C50   A    
C62   H48   S    
C18   C51   S    
C54   H27   S    
C54   H26   S    
C58   H37   S    
C19   C22   S    
O12   C49   A    
C20   C25   S    
C6    C17   A    
C24   C25   S    
C44   C45   A    
C12   C16   A    
C27   C28   S    
C9    C10   A    
C62   H47   S    
C55   C56   S    
C19   C20   S    
O4    C2    A    
C38   C39   A    
C35   C43   A    
C10   C11   A    
C8    H7    S    
H18   C44   S    
C31   H14   S    
O15   C51   A    
O2    C1    A    
C23   C24   S    
C14   C15   A    
O13   V3    S    
C59   C60   S    
C11   C18   A    
C36   C46   A    
O19   C52   A    
C16   H4    S    
O3    C4    A    
C28   C33   S    
C19   C26   S    
C37   C38   A    
C26   C52   S    
O14   C50   A    
C11   C15   A    
O6    V2    S    
O8    V2    S    
O9    V2    S    
C59   H39   S    
C21   C24   S    
C57   C58   S    
H1    C17   S    
C22   C23   S    
O2    V1    S    
C60   H43   S    
C28   H13   S    
C3    C21   S    
C59   H40   S    
O7    V1    S    
C5    C17   A    
C7    C18   A    
C29   C30   S    
C20   C21   S    
O1    C2    A    
C5    C13   A    
C7    C8    A    
C37   H20   S    
C62   H46   S    
C60   H42   S    
O5    V1    S    
O8    C3    A    
C32   H15   S    
C53   C54   S    
C31   C34   S    
C38   H22   S    
C55   H30   S    
O7    V2    S    
O11   V4    S    
O4    V1    S    
O3    V1    S    
V1    O10   S    
C57   H34   S    
C2    C36   S    
C41   C45   A    
C45   H23   S    
C19   O21   S    
C61   H44   S    
C25   H12   S    
C1    C34   S    
O21   C53   S    
O23   C57   S    
O25   C61   S    
C27   C30   S    
C22   H9    S    
C54   H28   S    
O16   V4    S    
O15   V3    S    
C39   C40   A    
C23   C26   S    
C33   C34   S    
C39   H21   S    
C27   C34   S    
V4    O20   S    
C12   C13   A    
C61   H45   S    
H17   C47   S    
C58   H36   S    
C40   C42   A    
C55   H29   S    
C29   C32   S    
C56   H33   S    
O24   C59   S    
C10   C12   A    
H2    C14   S    
