data_mof_unit_23908.cif
_audit_creation_date              2012-12-11T16:05:03-0500
_audit_creation_method            fapswitch 2.2
_symmetry_space_group_name_H-M    P1
_symmetry_Int_Tables_number       1
_space_group_crystal_system       triclinic
_cell_length_a                    10.727234
_cell_length_b                    10.728022
_cell_length_c                    16.931501
_cell_angle_alpha                 99.2095
_cell_angle_beta                  98.723102
_cell_angle_gamma                 61.612393
_cell_volume                      1685.69000525

loop_
_atom_site_label
_atom_site_type_symbol
_atom_type_description
_atom_site_fract_x
_atom_site_fract_y
_atom_site_fract_z
_atom_type_partial_charge
C1    C     C_R   0.356156 0.772669 0.398759 0.544924
C2    C     C_3   0.716983 0.455990 0.265902 -0.102163
C3    C     C_3   0.820991 0.343922 0.322002 0.042700
C4    C     C_3   0.824557 0.223436 0.258460 -0.121628
C5    C     C_3   0.953120 0.223039 0.227363 -0.142127
C6    C     C_3   0.948186 0.343789 0.292259 -0.140221
C7    C     C_3   0.845135 0.454100 0.235156 0.042649
C8    C     C_3   0.849682 0.333878 0.170881 0.058287
C9    C     C_3   0.437683 0.731410 0.205785 -0.166845
C10   C     C_3   0.330480 0.714216 0.248623 -0.098816
C11   C     C_3   0.348290 0.812756 0.320843 0.053452
C12   C     C_R   0.371295 0.346752 0.358871 0.547332
C13   C     C_3   0.458298 0.827752 0.280144 -0.124630
C14   C     C_3   0.334807 0.960500 0.244603 -0.134859
C15   C     C_3   0.226623 0.943579 0.287559 -0.131455
C16   C     C_3   0.208019 0.845990 0.214705 0.042979
C17   C     C_3   0.315738 0.862213 0.172031 0.053556
C18   C     C_3   0.450581 0.242867 0.782406 -0.114843
C19   C     C_3   0.405204 0.396004 0.766639 -0.024062
C20   C     C_3   0.368305 0.358037 0.677527 0.029594
C21   C     C_3   0.412565 0.204600 0.693934 -0.115621
C22   C     C_3   0.259354 0.250951 0.710868 -0.022741
C23   C     C_R   0.779175 0.374794 0.402852 0.536633
C24   C     C_3   0.214462 0.404463 0.694142 -0.115466
C25   C     C_3   0.251452 0.441928 0.783871 -0.114611
C26   C     C_3   0.296989 0.288405 0.799976 0.029805
C27   C     C_1   0.815992 0.343786 0.709898 -0.040324
C28   C     C_1   0.843714 0.314719 0.778085 -0.042653
C29   C     C_1   0.337114 0.814041 0.709285 -0.044509
C30   C     C_1   0.310671 0.842213 0.777932 -0.042479
C31   C     C_R   0.891164 0.312407 0.090420 0.539502
C32   C     C_R   0.318901 0.299631 0.120112 0.543971
C33   C     C_R   0.290144 0.897770 0.090475 0.542824
C34   C     C_R   0.356500 0.771842 0.626915 0.549430
C35   C     C_R   0.885841 0.298706 0.860855 0.549372
C36   C     C_R   0.279330 0.254037 0.876679 0.539711
C37   C     C_R   0.278748 0.886426 0.858702 0.549772
C38   C     C_R   0.405852 0.376351 0.602043 0.541823
C39   C     C_R   0.772585 0.380928 0.629819 0.545939
C40   C     C_1   0.344557 0.336069 0.275104 -0.072133
C41   C     C_1   0.331732 0.326813 0.203854 -0.071288
C42   C     C_3   0.721824 0.334770 0.200937 -0.152400
Cr1   Cr    Cr6+3 0.608340 0.611040 0.520430 1.004947
Cr2   Cr    Cr6+3 0.287650 0.601120 0.489350 0.994788
Cr3   Cr    Cr6+3 0.604040 0.287870 0.490280 0.994770
Cr4   Cr    Cr6+3 0.054020 0.052700 0.970850 0.999340
Cr5   Cr    Cr6+3 0.059230 0.375120 0.993390 0.990630
Cr6   Cr    Cr6+3 0.374950 0.061200 0.992340 0.993739
H1    H     H_    0.623042 0.547197 0.290663 0.137041
H2    H     H_    0.336534 0.061881 0.240778 0.123920
H3    H     H_    0.144689 0.027304 0.325597 0.095913
H4    H     H_    0.552025 0.174482 0.816136 0.141665
H5    H     H_    0.480490 0.103084 0.659112 0.141573
H6    H     H_    0.116438 0.472996 0.658034 0.137835
H7    H     H_    0.182986 0.540658 0.820492 0.137697
H8    H     H_    0.628796 0.333864 0.162345 0.113657
H9    H     H_    0.815732 0.129713 0.270677 0.126060
H10   H     H_    0.049384 0.134543 0.203213 0.133192
H11   H     H_    0.041302 0.344601 0.330846 0.105879
H12   H     H_    0.329890 0.612006 0.251946 0.116038
H13   H     H_    0.515581 0.644436 0.167410 0.097499
H14   H     H_    0.560150 0.820699 0.310885 0.125421
O1    O     O_R   0.751220 0.499230 0.435170 -0.519866
O2    O     O_R   0.297880 0.469080 0.560050 -0.506178
O3    O     O_R   0.489720 0.254590 0.564810 -0.525884
O4    O     O_R   0.725220 0.304230 0.585080 -0.516659
O5    O     O_3   0.500010 0.500010 0.500020 -0.274508
O6    O     O_R   0.171830 0.913880 0.057510 -0.532969
O7    O     O_R   0.940690 0.186050 0.054730 -0.507416
O8    O     O_R   0.920470 0.405720 0.075010 -0.524790
O9    O     O_R   0.196690 0.370460 0.084120 -0.500024
O10   O     O_R   0.412990 0.180750 0.091610 -0.510745
O11   O     O_R   0.366620 0.943130 0.065760 -0.505390
O12   O     O_R   0.477220 0.727600 0.436870 -0.506508
O13   O     O_R   0.160510 0.906330 0.879210 -0.514171
O14   O     O_R   0.930190 0.179050 0.889450 -0.504986
O15   O     O_R   0.909140 0.398170 0.896710 -0.520909
O16   O     O_R   0.186190 0.363460 0.918830 -0.506822
O17   O     O_R   0.401670 0.173200 0.913310 -0.527131
O18   O     O_R   0.356120 0.936130 0.900470 -0.514830
O19   O     O_3   0.162740 0.163010 0.985530 -0.272865
O20   O     O_R   0.258650 0.745120 0.411470 -0.527947
O21   O     O_R   0.297070 0.467240 0.395960 -0.502901
O22   O     O_R   0.488830 0.252610 0.387790 -0.507034
O23   O     O_R   0.724400 0.302390 0.420980 -0.506323
O24   O     O_R   0.752100 0.501210 0.612190 -0.516227
O25   O     O_R   0.478040 0.729440 0.600970 -0.506384
O26   O     O_R   0.259530 0.747110 0.588490 -0.519224
C43   C     C_3   0.065694 0.847871 0.182997 -0.261235
C44   C     C_3   0.997559 0.828934 0.250095 -0.449593
H15   H     H_    0.994925 0.903488 0.304167 0.158416
H16   H     H_    0.886479 0.851688 0.229577 0.131757
H17   H     H_    0.058583 0.718456 0.267197 0.163522
H18   H     H_    0.992068 0.950046 0.158039 0.168130
H19   H     H_    0.083379 0.760227 0.134081 0.154519
C45   C     C_R   0.479590 0.474809 0.815736 0.010718
C46   C     C_R   0.486790 0.486063 0.900162 -0.098230
C47   C     C_R   0.551469 0.562322 0.947329 -0.093882
C48   C     C_R   0.610395 0.627391 0.910766 -0.043262
C49   C     C_R   0.605083 0.615302 0.827018 -0.096026
C50   C     C_R   0.538763 0.539792 0.779717 -0.109565
H20   H     H_    0.441134 0.436717 0.929549 0.137428
H21   H     H_    0.555428 0.571105 0.012103 0.088376
H22   H     H_    0.660552 0.686556 0.947191 0.110519
H23   H     H_    0.650998 0.665440 0.798539 0.124443
H24   H     H_    0.532834 0.532652 0.715036 0.108536
C51   C     C_R   0.180015 0.175932 0.663334 0.013169
C52   C     C_R   0.166687 0.167491 0.578849 -0.100076
C53   C     C_R   0.090040 0.101758 0.533303 -0.091200
C54   C     C_R   0.026712 0.043168 0.571589 -0.038339
C55   C     C_R   0.040877 0.049770 0.655378 -0.096415
C56   C     C_R   0.116925 0.116833 0.701071 -0.109907
H25   H     H_    0.214759 0.212910 0.548232 0.132597
H26   H     H_    0.079406 0.096650 0.468441 0.093562
H27   H     H_    0.967217 0.992290 0.536454 0.109787
H28   H     H_    0.992104 0.004056 0.685152 0.121765
H29   H     H_    0.125778 0.123457 0.765858 0.104756
C57   C     C_3   0.864953 0.583811 0.226838 -0.252763
C58   C     C_3   0.760492 0.678800 0.163240 -0.404369
H30   H     H_    0.817736 0.710627 0.127695 0.138311
H31   H     H_    0.709198 0.623978 0.120497 0.160200
H32   H     H_    0.677033 0.777424 0.192063 0.138359
H33   H     H_    0.854852 0.648096 0.286098 0.129330
H34   H     H_    0.975321 0.543816 0.210964 0.165364

loop_
_geom_bond_atom_site_label_1
_geom_bond_atom_site_label_2
_ccdc_geom_bond_type
C43   H19   S    
C18   C21   S    
C51   C56   A    
C3    C23   S    
C2    C7    S    
C1    C11   S    
C3    C6    S    
Cr4   O14   S    
C46   C47   A    
Cr1   O1    S    
C7    C8    S    
C32   O10   A    
C14   H2    S    
Cr2   O2    S    
C49   H23   S    
C5    H10   S    
C9    H13   S    
C1    O12   A    
Cr6   O17   S    
C8    C42   S    
Cr2   O20   S    
C5    C6    S    
C24   H6    S    
C15   C16   S    
C26   C36   S    
C52   C53   A    
C12   O22   A    
C18   C19   S    
C43   H18   S    
C9    C13   S    
C57   C58   S    
Cr4   O7    S    
C42   H8    S    
C54   C55   A    
C11   C15   S    
C31   O8    A    
C13   H14   S    
C20   C24   S    
C28   C35   S    
C27   C39   S    
C16   C17   S    
C18   C26   S    
C4    H9    S    
Cr3   O5    S    
C51   C52   A    
C55   H28   S    
C15   H3    S    
C9    C10   S    
C46   H20   S    
C57   H33   S    
Cr2   O21   S    
Cr1   O12   S    
C23   O1    A    
C48   H22   S    
C37   O13   A    
C16   C43   S    
C21   C22   S    
C8    C31   S    
C14   C17   S    
C17   C33   S    
Cr6   O10   S    
Cr6   O11   S    
Cr4   O13   S    
C32   O9    A    
C38   O2    A    
C58   H31   S    
C37   O18   A    
C35   O14   A    
C18   H4    S    
C45   C50   A    
C24   C25   S    
C57   H34   S    
C1    O20   A    
C29   C34   S    
C35   O15   A    
C12   O21   A    
Cr3   O4    S    
C52   H25   S    
C12   C40   S    
Cr3   O23   S    
Cr5   O8    S    
Cr4   O6    S    
C29   C30   T    
C2    H1    S    
Cr4   O19   S    
C20   C38   S    
C44   H16   S    
C48   C49   A    
C38   O3    A    
C32   C41   S    
C45   C46   A    
C34   O26   A    
Cr5   O9    S    
C53   H26   S    
C33   O11   A    
C40   C41   T    
Cr3   O3    S    
C39   O4    A    
C22   C24   S    
Cr3   O22   S    
Cr5   O15   S    
C3    C4    S    
C7    C57   S    
C44   H17   S    
C58   H32   S    
C9    C17   S    
C50   H24   S    
C10   H12   S    
C55   C56   A    
Cr1   O24   S    
C6    H11   S    
C25   H7    S    
C4    C5    S    
C36   O17   A    
C5    C8    S    
C58   H30   S    
C6    C7    S    
C39   O24   A    
Cr1   O25   S    
Cr6   O18   S    
C19   C20   S    
C2    C3    S    
C25   C26   S    
C23   O23   A    
C47   H21   S    
C36   O16   A    
C53   C54   A    
C21   H5    S    
C11   C13   S    
C44   H15   S    
C56   H29   S    
C4    C42   S    
Cr6   O19   S    
C2    C42   S    
C49   C50   A    
Cr2   O26   S    
C34   O25   A    
Cr5   O19   S    
C19   C25   S    
C10   C11   S    
C31   O7    A    
C20   C21   S    
C30   C37   S    
Cr1   O5    S    
C47   C48   A    
C22   C26   S    
C27   C28   T    
C14   C15   S    
Cr2   O5    S    
C10   C16   S    
Cr5   O16   S    
C43   C44   S    
C13   C14   S    
C54   H27   S    
C19   C45   S    
C22   C51   S    
C33   O6    A    
