data_mof_unit_42853.cif
_audit_creation_date              2012-12-11T14:01:31-0500
_audit_creation_method            fapswitch 2.2
_symmetry_space_group_name_H-M    P1
_symmetry_Int_Tables_number       1
_space_group_crystal_system       triclinic
_cell_length_a                    19.035342
_cell_length_b                    10.975925
_cell_length_c                    18.78488
_cell_angle_alpha                 90.004256
_cell_angle_beta                  89.562301
_cell_angle_gamma                 90.226229
_cell_volume                      3924.58899326

loop_
_atom_site_label
_atom_site_type_symbol
_atom_type_description
_atom_site_fract_x
_atom_site_fract_y
_atom_site_fract_z
_atom_type_partial_charge
C1    C     C_R   0.272408 0.042062 0.853674 0.569689
C2    C     C_R   0.727545 0.041729 0.146374 0.546605
C3    C     C_R   0.772408 0.542062 0.853674 0.569689
C4    C     C_R   0.227545 0.541729 0.146374 0.546605
C5    C     C_R   0.485486 0.063113 0.065829 -0.024388
C6    C     C_R   0.498081 0.064266 0.921679 0.010628
C7    C     C_R   0.985486 0.563113 0.065829 -0.024388
C8    C     C_R   0.998081 0.564266 0.921679 0.010628
C9    C     C_R   0.945741 0.649002 0.028017 -0.038162
C10   C     C_R   0.959017 0.657343 0.954563 -0.005282
C11   C     C_R   0.445741 0.149002 0.028017 -0.038162
C12   C     C_R   0.459017 0.157343 0.954563 -0.005282
C13   C     C_2   0.244331 0.574400 0.917427 -0.121304
C14   C     C_2   0.751655 0.578644 0.079841 -0.111765
C15   C     C_2   0.744331 0.074400 0.917427 -0.121304
C16   C     C_2   0.251655 0.078644 0.079841 -0.111765
C17   C     C_2   0.250567 0.583025 0.076521 -0.115431
C18   C     C_2   0.749935 0.585158 0.923450 -0.106999
C19   C     C_2   0.750567 0.083025 0.076521 -0.115431
C20   C     C_2   0.249935 0.085158 0.923450 -0.106999
C21   C     C_2   0.280772 0.502597 0.032267 -0.146513
C22   C     C_2   0.706353 0.517151 0.963792 -0.169695
C23   C     C_2   0.780771 0.002597 0.032267 -0.146513
C24   C     C_2   0.206353 0.017151 0.963792 -0.169695
C25   C     C_2   0.295884 0.533935 0.958668 -0.154954
C26   C     C_2   0.697535 0.540978 0.039981 -0.168866
C27   C     C_2   0.795884 0.033935 0.958668 -0.154954
C28   C     C_2   0.197535 0.040978 0.039981 -0.168867
C29   C     C_2   0.487986 0.827270 0.571897 -0.084903
C30   C     C_2   0.487909 0.838797 0.415858 -0.110379
C31   C     C_2   0.987986 0.327270 0.571897 -0.084904
C32   C     C_2   0.987909 0.338797 0.415858 -0.110379
C33   C     C_2   0.469131 0.740673 0.452936 -0.162071
C34   C     C_2   0.455030 0.747952 0.528553 -0.157327
C35   C     C_2   0.969131 0.240673 0.452936 -0.162071
C36   C     C_2   0.955030 0.247952 0.528553 -0.157327
C37   C     C_2   0.271465 0.658799 0.563680 -0.122142
C38   C     C_2   0.757113 0.560743 0.413827 -0.115958
C39   C     C_2   0.771466 0.158799 0.563680 -0.122142
C40   C     C_2   0.257113 0.060743 0.413827 -0.115959
C41   C     C_2   0.256922 0.614517 0.411226 -0.112471
C42   C     C_2   0.780857 0.520886 0.565218 -0.115471
C43   C     C_2   0.756922 0.114517 0.411226 -0.112470
C44   C     C_2   0.280857 0.020887 0.565218 -0.115471
C45   C     C_R   0.472999 0.823122 0.851409 0.546593
C46   C     C_R   0.531365 0.823093 0.144691 0.546882
C47   C     C_R   0.972999 0.323122 0.851409 0.546593
C48   C     C_R   0.031365 0.323093 0.144691 0.546882
C49   C     C_2   0.221398 0.703482 0.445658 -0.033967
C50   C     C_2   0.833357 0.551144 0.519797 -0.050166
C51   C     C_2   0.721399 0.203483 0.445657 -0.033967
C52   C     C_2   0.333357 0.051145 0.519797 -0.050166
C53   C     C_2   0.234778 0.731251 0.520581 -0.168788
C54   C     C_2   0.819916 0.575710 0.444636 -0.160729
C55   C     C_2   0.734777 0.231251 0.520581 -0.168788
C56   C     C_2   0.319916 0.075711 0.444636 -0.160728
C57   C     C_R   0.260149 0.635472 0.850716 0.565092
C58   C     C_R   0.739235 0.635857 0.148679 0.546446
C59   C     C_R   0.760150 0.135471 0.850716 0.565092
C60   C     C_R   0.239235 0.135856 0.148679 0.546446
C61   C     C_R   0.291869 0.998137 0.640184 0.543859
C62   C     C_R   0.728929 0.050217 0.349710 0.554921
C63   C     C_R   0.791869 0.498137 0.640184 0.543860
C64   C     C_R   0.228929 0.550217 0.349710 0.554921
C65   C     C_R   0.468690 0.823150 0.646435 0.539692
C66   C     C_R   0.527595 0.824423 0.350628 0.558945
C67   C     C_R   0.968690 0.323150 0.646435 0.539692
C68   C     C_R   0.027595 0.324423 0.350628 0.558945
C69   C     C_R   0.275129 0.688462 0.638405 0.541829
C70   C     C_R   0.740455 0.633074 0.351893 0.560848
C71   C     C_R   0.775129 0.188462 0.638405 0.541829
C72   C     C_R   0.240455 0.133074 0.351893 0.560848
C73   C     C_R   0.513183 0.834962 0.068790 0.012483
C74   C     C_R   0.507863 0.837308 0.919764 0.000072
C75   C     C_R   0.013183 0.334962 0.068790 0.012483
C76   C     C_R   0.007863 0.337309 0.919764 0.000072
C77   C     C_R   0.499302 0.948278 0.032357 -0.003799
C78   C     C_R   0.503093 0.949614 0.957060 0.009367
C79   C     C_R   0.999302 0.448278 0.032357 -0.003799
C80   C     C_R   0.003093 0.449614 0.957060 0.009367
C81   C     C_R   0.523295 0.730326 0.955855 -0.154624
C82   C     C_R   0.524646 0.728828 0.028678 -0.146636
C83   C     C_R   0.023295 0.230326 0.955855 -0.154624
C84   C     C_R   0.024646 0.228828 0.028678 -0.146636
Cr1   Cr    Cr6+3 0.230530 0.836340 0.748870 1.024743
Cr2   Cr    Cr6+3 0.769470 0.836340 0.251130 1.057481
Cr3   Cr    Cr6+3 0.730530 0.336340 0.748870 1.024743
Cr4   Cr    Cr6+3 0.269470 0.336340 0.251130 1.057481
Cr5   Cr    Cr6+3 0.387420 0.989430 0.750820 1.038126
Cr6   Cr    Cr6+3 0.612580 0.989430 0.249180 1.018220
Cr7   Cr    Cr6+3 0.887420 0.489430 0.750820 1.038126
Cr8   Cr    Cr6+3 0.112580 0.489430 0.249180 1.018220
Cr9   Cr    Cr6+3 0.385640 0.677860 0.749230 1.050884
Cr10  Cr    Cr6+3 0.614360 0.677860 0.250770 1.047970
Cr11  Cr    Cr6+3 0.885640 0.177860 0.749230 1.050884
Cr12  Cr    Cr6+3 0.114360 0.177860 0.250770 1.047969
H1    H     H_    0.528890 0.644385 0.927956 0.152559
H2    H     H_    0.535483 0.641918 0.053423 0.148365
H3    H     H_    0.028890 0.144385 0.927956 0.152559
H4    H     H_    0.035483 0.141918 0.053423 0.148365
H5    H     H_    0.206699 0.807809 0.543444 0.139546
H6    H     H_    0.861811 0.622829 0.415918 0.162377
H7    H     H_    0.706697 0.307806 0.543444 0.139548
H8    H     H_    0.361811 0.122830 0.415918 0.162377
H9    H     H_    0.304867 0.577295 0.432849 0.089142
H10   H     H_    0.727311 0.510468 0.547599 0.093205
H11   H     H_    0.804866 0.077294 0.432850 0.089142
H12   H     H_    0.227311 0.010470 0.547600 0.093206
H13   H     H_    0.298820 0.578242 0.545347 0.109268
H14   H     H_    0.714907 0.508239 0.437541 0.112613
H15   H     H_    0.798822 0.078245 0.545347 0.109266
H16   H     H_    0.214908 0.008238 0.437541 0.112612
H17   H     H_    0.290629 0.409815 0.048687 0.184668
H18   H     H_    0.677575 0.440769 0.941364 0.155530
H19   H     H_    0.790629 0.909815 0.048687 0.184668
H20   H     H_    0.177575 0.940769 0.941364 0.155530
H21   H     H_    0.349922 0.530033 0.940099 0.192608
H22   H     H_    0.645283 0.530398 0.062708 0.150097
H23   H     H_    0.849922 0.030033 0.940099 0.192608
H24   H     H_    0.145283 0.030398 0.062708 0.150097
H25   H     H_    0.235908 0.673281 0.058127 0.105768
H26   H     H_    0.777091 0.663396 0.945886 0.115756
H27   H     H_    0.735908 0.173281 0.058127 0.105768
H28   H     H_    0.277091 0.163396 0.945886 0.115756
H29   H     H_    0.190706 0.577956 0.937860 0.104294
H30   H     H_    0.804209 0.583634 0.057282 0.117293
H31   H     H_    0.690706 0.077956 0.937860 0.104294
H32   H     H_    0.304209 0.083634 0.057282 0.117293
H33   H     H_    0.469479 0.650387 0.429180 0.165473
H34   H     H_    0.419859 0.678645 0.549824 0.151695
H35   H     H_    0.969480 0.150387 0.429180 0.165473
H36   H     H_    0.919860 0.178644 0.549824 0.151695
H37   H     H_    0.483543 0.929530 0.438582 0.119866
H38   H     H_    0.524399 0.896031 0.552363 0.125763
H39   H     H_    0.983543 0.429530 0.438582 0.119866
H40   H     H_    0.024399 0.396032 0.552363 0.125763
O1    O     O_R   0.215090 0.709860 0.828130 -0.527243
O2    O     O_R   0.784910 0.709860 0.171870 -0.496940
O3    O     O_R   0.715090 0.209860 0.828130 -0.527243
O4    O     O_R   0.284910 0.209860 0.171870 -0.496940
O5    O     O_R   0.445660 0.919250 0.676780 -0.502031
O6    O     O_R   0.554340 0.919250 0.323220 -0.494989
O7    O     O_R   0.945660 0.419250 0.676780 -0.502032
O8    O     O_R   0.054340 0.419250 0.323220 -0.494989
O9    O     O_R   0.456260 0.718170 0.670000 -0.515159
O10   O     O_R   0.543740 0.718170 0.330000 -0.502223
O11   O     O_R   0.956260 0.218170 0.670000 -0.515159
O12   O     O_R   0.043740 0.218170 0.330000 -0.502223
O13   O     O_R   0.320940 0.626760 0.674370 -0.492601
O14   O     O_R   0.679060 0.626760 0.325630 -0.483530
O15   O     O_R   0.820940 0.126760 0.674370 -0.492600
O16   O     O_R   0.179060 0.126760 0.325630 -0.483531
O17   O     O_3   0.334530 0.834540 0.749640 -0.300214
O18   O     O_3   0.665470 0.834540 0.250360 -0.257212
O19   O     O_3   0.834530 0.334540 0.749640 -0.300215
O20   O     O_3   0.165470 0.334540 0.250360 -0.257212
O21   O     O_R   0.236990 0.958390 0.823710 -0.493232
O22   O     O_R   0.763010 0.958390 0.176290 -0.475044
O23   O     O_R   0.736990 0.458390 0.823710 -0.493232
O24   O     O_R   0.263010 0.458390 0.176290 -0.475044
O25   O     O_R   0.332380 0.074750 0.830850 -0.497991
O26   O     O_R   0.667620 0.074750 0.169150 -0.551018
O27   O     O_R   0.832380 0.574750 0.830850 -0.497991
O28   O     O_R   0.167620 0.574750 0.169150 -0.551018
O29   O     O_R   0.445800 0.917770 0.825070 -0.504750
O30   O     O_R   0.554200 0.917770 0.174930 -0.519680
O31   O     O_R   0.945800 0.417770 0.825070 -0.504750
O32   O     O_R   0.054200 0.417770 0.174930 -0.519680
O33   O     O_R   0.456410 0.716580 0.829970 -0.508010
O34   O     O_R   0.543590 0.716580 0.170030 -0.519020
O35   O     O_R   0.956410 0.216580 0.829970 -0.508010
O36   O     O_R   0.043590 0.216580 0.170030 -0.519020
O37   O     O_R   0.321080 0.625290 0.822650 -0.471918
O38   O     O_R   0.678920 0.625290 0.177350 -0.502547
O39   O     O_R   0.821080 0.125290 0.822650 -0.471918
O40   O     O_R   0.178920 0.125290 0.177350 -0.502548
O41   O     O_R   0.214930 0.711450 0.668160 -0.495453
O42   O     O_R   0.785070 0.711450 0.331840 -0.514007
O43   O     O_R   0.714930 0.211450 0.668160 -0.495454
O44   O     O_R   0.285070 0.211450 0.331840 -0.514007
O45   O     O_R   0.236850 0.959870 0.675420 -0.509450
O46   O     O_R   0.763150 0.959870 0.324580 -0.496477
O47   O     O_R   0.736850 0.459870 0.675420 -0.509450
O48   O     O_R   0.263150 0.459870 0.324580 -0.496477
O49   O     O_R   0.332230 0.076350 0.670880 -0.476210
O50   O     O_R   0.667770 0.076350 0.329120 -0.490027
O51   O     O_R   0.832230 0.576350 0.670880 -0.476210
O52   O     O_R   0.167770 0.576350 0.329120 -0.490027
C85   C     C_1   0.164049 0.769849 0.413489 0.237934
N1    N     N_1   0.118264 0.823011 0.387983 -0.290593
C86   C     C_1   0.903250 0.582511 0.543972 0.232653
N2    N     N_1   0.958824 0.610304 0.562742 -0.290083
C87   C     C_1   0.664051 0.269853 0.413487 0.237931
N3    N     N_1   0.618268 0.323018 0.387980 -0.290594
C88   C     C_1   0.403250 0.082510 0.543972 0.232653
N4    N     N_1   0.458824 0.110303 0.562742 -0.290084
C89   C     C_3   0.546624 0.125940 0.100226 -0.313414
H41   H     H_    0.540508 0.126854 0.158936 0.187717
H42   H     H_    0.594375 0.082338 0.078530 0.165725
H43   H     H_    0.553666 0.223012 0.084313 0.102949
C90   C     C_3   0.541094 0.092869 0.855457 -0.342891
H44   H     H_    0.574119 0.014548 0.838845 0.127451
H45   H     H_    0.506536 0.119625 0.810786 0.166462
H46   H     H_    0.577014 0.170197 0.866933 0.131161
C91   C     C_3   0.046624 0.625940 0.100226 -0.313414
H47   H     H_    0.040508 0.626854 0.158936 0.187717
H48   H     H_    0.094375 0.582338 0.078530 0.165725
H49   H     H_    0.053666 0.723012 0.084313 0.102949
C92   C     C_3   0.041094 0.592869 0.855457 -0.342891
H50   H     H_    0.074119 0.514548 0.838845 0.127451
H51   H     H_    0.006536 0.619625 0.810786 0.166462
H52   H     H_    0.077014 0.670196 0.866933 0.131161
C93   C     C_1   0.919734 0.753936 0.066768 0.173477
N5    N     N_1   0.901561 0.837926 0.099039 -0.292384
C94   C     C_1   0.940211 0.765353 0.914866 0.190287
N6    N     N_1   0.925474 0.851243 0.882659 -0.313937
C95   C     C_1   0.419734 0.253936 0.066768 0.173477
N7    N     N_1   0.401561 0.337926 0.099039 -0.292384
C96   C     C_1   0.440211 0.265353 0.914866 0.190287
N8    N     N_1   0.425475 0.351243 0.882659 -0.313937

loop_
_geom_bond_atom_site_label_1
_geom_bond_atom_site_label_2
_ccdc_geom_bond_type
Cr10  O10   S    
C38   C70   S    
C16   C28   D    
C37   C69   S    
C82   H2    S    
C90   H44   S    
Cr9   O13   S    
C35   C36   S    
C70   O14   A    
C7    C91   S    
C67   O7    A    
C2    O26   A    
C81   C82   A    
C40   H16   S    
Cr12  O20   S    
C77   C78   A    
C31   C67   S    
Cr9   O33   S    
C50   C54   S    
C75   C79   A    
C41   H9    S    
Cr6   O26   S    
Cr2   O46   S    
Cr4   O20   S    
Cr7   O31   S    
C47   C76   S    
C5    C11   A    
C59   O39   A    
C36   H36   S    
C6    C12   A    
Cr5   O5    S    
C10   C94   S    
Cr4   O48   S    
C49   C85   S    
Cr12  O16   S    
C55   H7    S    
Cr2   O42   S    
C92   H52   S    
C65   O5    A    
C3    C18   S    
C16   C60   S    
C71   O43   A    
C89   H42   S    
Cr11  O39   S    
Cr4   O4    S    
C21   C25   S    
Cr12  O36   S    
C69   O41   A    
C48   O36   A    
Cr5   O17   S    
C41   C49   D    
C71   O15   A    
C20   C24   D    
C53   H5    S    
C72   O16   A    
C48   O32   A    
C76   C80   A    
C4    O28   A    
Cr9   O9    S    
C91   H47   S    
C23   C27   S    
C38   H14   S    
C40   C72   S    
C9    C10   A    
C11   C95   S    
C12   C96   S    
C37   H13   S    
C68   O12   A    
C3    O27   A    
C62   O50   A    
C37   C53   D    
Cr8   O28   S    
C39   H15   S    
C29   H38   S    
C1    O25   A    
C15   H31   S    
Cr6   O30   S    
C3    O23   A    
C90   H45   S    
C48   C75   S    
Cr7   O27   S    
C58   O38   A    
C52   C88   S    
Cr1   O21   S    
Cr12  O12   S    
C76   C83   A    
Cr5   O25   S    
Cr9   O37   S    
C54   H6    S    
Cr4   O44   S    
Cr7   O7    S    
C44   H12   S    
C14   C58   S    
C92   H50   S    
C39   C55   D    
C63   O47   A    
C86   N2    T    
C84   H4    S    
C32   C35   D    
C24   C28   S    
Cr11  O11   S    
C56   H8    S    
C6    C90   S    
C21   H17   S    
C28   H24   S    
C96   N8    T    
C70   O42   A    
Cr1   O17   S    
C88   N4    T    
Cr6   O50   S    
C51   C55   S    
C9    C93   S    
C95   N7    T    
C93   N5    T    
Cr3   O43   S    
C29   C34   D    
C17   C21   D    
C46   O34   A    
C45   O33   A    
C45   C74   S    
C64   O48   A    
C75   C84   A    
C89   H43   S    
C19   C23   D    
C94   N6    T    
C18   H26   S    
Cr7   O19   S    
C62   O46   A    
C47   O31   A    
Cr8   O32   S    
C15   C27   D    
C83   C84   A    
C38   C54   D    
Cr1   O41   S    
C59   O3    A    
Cr10  O18   S    
C30   H37   S    
C19   H27   S    
C64   O52   A    
C61   O49   A    
C33   C34   S    
C57   O1    A    
C57   O37   A    
Cr8   O20   S    
C40   C56   D    
C43   H11   S    
C14   C26   D    
Cr4   O24   S    
C50   C86   S    
Cr2   O22   S    
Cr5   O29   S    
C30   C66   S    
C42   C50   D    
C29   C65   S    
C4    C17   S    
C17   H25   S    
C60   O4    A    
C24   H20   S    
C63   O51   A    
C51   C87   S    
C60   O40   A    
C90   H46   S    
Cr3   O19   S    
Cr11  O15   S    
C72   O44   A    
C74   C81   A    
C5    C77   A    
C8    C92   S    
Cr1   O1    S    
C73   C82   A    
C66   O10   A    
C7    C79   A    
C91   H49   S    
C33   H33   S    
C85   N1    T    
C7    C9    A    
Cr7   O51   S    
C1    C20   S    
Cr1   O45   S    
C46   O30   A    
C30   C33   D    
C2    C19   S    
C18   C22   D    
Cr5   O49   S    
Cr10  O38   S    
C26   H22   S    
Cr3   O3    S    
C31   H40   S    
C13   C25   D    
C25   H21   S    
C44   C52   D    
Cr12  O40   S    
C32   H39   S    
C47   O35   A    
C11   C12   A    
Cr8   O52   S    
C66   O6    A    
C27   H23   S    
C44   C61   S    
Cr6   O6    S    
C74   C78   A    
C61   O45   A    
C14   H30   S    
C32   C68   S    
C69   O13   A    
C1    O21   A    
Cr2   O18   S    
C35   H35   S    
C13   H29   S    
Cr10  O34   S    
Cr3   O47   S    
C5    C89   S    
C58   O2    A    
Cr6   O18   S    
C4    O24   A    
C81   H1    S    
C43   C51   D    
C49   C53   S    
C65   O9    A    
Cr9   O17   S    
C92   H51   S    
Cr3   O23   S    
C68   O8    A    
Cr11  O19   S    
C16   H32   S    
C89   H41   S    
Cr8   O8    S    
C15   C59   S    
C20   H28   S    
C6    C78   A    
Cr2   O2    S    
C23   H19   S    
C79   C80   A    
C42   H10   S    
Cr10  O14   S    
C22   H18   S    
C13   C57   S    
C2    O22   A    
C34   H34   S    
C73   C77   A    
C8    C10   A    
C87   N3    T    
C22   C26   S    
C67   O11   A    
C8    C80   A    
C39   C71   S    
C31   C36   D    
C83   H3    S    
C41   C64   S    
Cr11  O35   S    
C91   H48   S    
C45   O29   A    
C42   C63   S    
C46   C73   S    
C52   C56   S    
C43   C62   S    
