data_mof_unit_25705.cif
_audit_creation_date              2012-12-10T20:45:30-0500
_audit_creation_method            fapswitch 2.2
_symmetry_space_group_name_H-M    P1
_symmetry_Int_Tables_number       1
_space_group_crystal_system       triclinic
_cell_length_a                    10.783807
_cell_length_b                    10.654863
_cell_length_c                    9.863906
_cell_angle_alpha                 89.405905
_cell_angle_beta                  90.823449
_cell_angle_gamma                 89.330174
_cell_volume                      1133.10524897

loop_
_atom_site_label
_atom_site_type_symbol
_atom_type_description
_atom_site_fract_x
_atom_site_fract_y
_atom_site_fract_z
_atom_type_partial_charge
C1    C     C_R   0.502327 0.260345 0.500338 0.901654
C2    C     C_R   0.199152 0.706202 0.013351 -0.099960
C3    C     C_R   0.930756 0.542782 0.386515 -0.250624
C4    C     C_R   0.872641 0.502841 0.504731 -0.081471
C5    C     C_R   0.942375 0.468182 0.621653 -0.017641
C6    C     C_R   0.069270 0.468222 0.614337 -0.228966
C7    C     C_R   0.127548 0.508185 0.496465 -0.088250
C8    C     C_R   0.058135 0.548313 0.381151 -0.006101
C9    C     C_R   0.854660 0.525026 0.845981 -0.110538
C10   C     C_R   0.814552 0.491147 0.975235 -0.143349
C11   C     C_R   0.807378 0.364623 0.012578 -0.133514
C12   C     C_R   0.260060 0.504025 0.498577 0.885208
C13   C     C_R   0.843140 0.271748 0.921587 -0.158127
C14   C     C_R   0.885469 0.305350 0.792948 -0.150985
C15   C     C_R   0.889313 0.432039 0.753646 0.145914
C16   C     C_R   0.599732 0.061952 0.566906 0.090099
C17   C     C_R   0.506659 0.128543 0.497273 -0.043227
C18   C     C_R   0.427254 0.067136 0.407057 -0.198854
C19   C     C_R   0.428190 0.937687 0.405273 -0.239065
C20   C     C_R   0.506151 0.871509 0.495489 -0.071794
C21   C     C_R   0.597263 0.933704 0.568523 0.123195
C22   C     C_3   0.636922 0.924889 0.713815 -0.497631
C23   C     C_R   0.501035 0.739706 0.499308 0.868771
C24   C     C_3   0.644444 0.067152 0.710478 -0.475529
C25   C     C_R   0.472210 0.393331 0.072362 0.207496
C26   C     C_R   0.534598 0.602968 0.071320 -0.133695
C27   C     C_R   0.535119 0.602744 0.927614 -0.121398
C28   C     C_R   0.470519 0.393498 0.929329 0.146543
C29   C     C_3   0.347620 0.329051 0.926965 -0.226757
C30   C     C_3   0.353561 0.324295 0.081005 -0.593430
C31   C     C_R   0.740090 0.499528 0.501545 0.862930
C32   C     C_R   0.219209 0.766964 0.136313 -0.139182
C33   C     C_R   0.175616 0.714525 0.257206 -0.105226
C34   C     C_R   0.112163 0.600313 0.255349 0.143963
C35   C     C_R   0.090631 0.541035 0.130914 -0.187805
C36   C     C_R   0.134212 0.593793 0.010639 -0.145024
H1    H     H_    0.232796 0.746880 0.920032 0.134803
H2    H     H_    0.775941 0.338757 0.112668 0.141978
H3    H     H_    0.839574 0.173821 0.951353 0.136276
H4    H     H_    0.916616 0.233178 0.724422 0.132786
H5    H     H_    0.360639 0.118637 0.344101 0.149183
H6    H     H_    0.363509 0.889796 0.340516 0.146460
H7    H     H_    0.562143 0.890361 0.780420 0.206411
H8    H     H_    0.728662 0.877421 0.727495 0.194053
H9    H     H_    0.578937 0.114893 0.778574 0.210661
H10   H     H_    0.741154 0.100511 0.717324 0.195268
H11   H     H_    0.561870 0.686535 0.124778 0.145964
H12   H     H_    0.266973 0.855590 0.136846 0.116293
H13   H     H_    0.563720 0.685642 0.873373 0.139122
H14   H     H_    0.272149 0.390520 0.885431 0.179995
H15   H     H_    0.279752 0.379787 0.130136 0.235762
H16   H     H_    0.368099 0.229007 0.125753 0.182582
H17   H     H_    0.188987 0.763308 0.351881 0.102021
H18   H     H_    0.041043 0.453380 0.127496 0.149971
H19   H     H_    0.117022 0.547943 0.915216 0.133460
H20   H     H_    0.876670 0.573604 0.298455 0.161774
H21   H     H_    0.122708 0.436243 0.702215 0.169915
H22   H     H_    0.860885 0.623443 0.818597 0.116802
H23   H     H_    0.790619 0.563136 0.047101 0.132100
N1    N     N_R   0.499160 0.499140 0.142800 -0.094674
N2    N     N_R   0.499160 0.499180 0.857150 -0.104416
O1    O     O_R   0.500020 0.316790 0.614690 -0.597099
O2    O     O_R   0.500000 0.316760 0.385350 -0.631800
O3    O     O_R   0.316770 0.500030 0.614670 -0.619949
O4    O     O_R   0.316750 0.499990 0.385330 -0.612125
O5    O     O_R   0.500000 0.683240 0.614650 -0.628995
O6    O     O_R   0.499980 0.683210 0.385310 -0.628220
O7    O     O_R   0.683250 0.500010 0.614670 -0.612672
O8    O     O_R   0.683230 0.499970 0.385330 -0.632709
Zn1   Zn    Zn3+2 0.500010 0.500020 0.653130 0.962357
Zn2   Zn    Zn3+2 0.499990 0.499980 0.346870 0.944557
C37   C     C_2   0.351532 0.201393 0.864294 0.459452
H24   H     H_    0.408073 0.126799 0.909641 0.033964
O9    O     O_2   0.288843 0.179876 0.763386 -0.578942

loop_
_geom_bond_atom_site_label_1
_geom_bond_atom_site_label_2
_ccdc_geom_bond_type
N2    Zn1   S    
C30   H15   S    
C16   C21   A    
C35   C36   A    
C1    O1    A    
C7    C8    A    
C25   C28   A    
C26   C27   A    
C24   H9    S    
C23   O5    A    
C28   C29   S    
C18   C19   A    
C5    C6    A    
C12   O3    A    
O1    Zn1   S    
C2    C32   A    
C9    H22   S    
C23   O6    A    
O8    Zn2   S    
C27   N2    A    
C22   H8    S    
C19   C20   A    
C16   C17   A    
C25   N1    A    
O3    Zn1   S    
C9    C10   A    
C19   H6    S    
C29   C37   S    
C28   N2    A    
C16   C24   S    
C21   C22   S    
C35   H18   S    
C32   H12   S    
C6    H21   S    
C31   O7    A    
C34   C35   A    
C1    O2    A    
C17   C18   A    
C29   H14   S    
C33   H17   S    
C7    C12   S    
C5    C15   S    
C37   O9    D    
C3    C8    A    
C18   H5    S    
C37   H24   S    
N1    Zn2   S    
O4    Zn2   S    
C11   H2    S    
C29   C30   S    
C3    H20   S    
C22   H7    S    
C20   C23   S    
C33   C34   A    
C8    C34   S    
C26   H11   S    
O2    Zn2   S    
C22   C24   S    
C3    C4    A    
C2    C36   A    
C25   C30   S    
C30   H16   S    
C4    C5    A    
C6    C7    A    
C12   O4    A    
C1    C17   S    
C24   H10   S    
C32   C33   A    
C10   H23   S    
C9    C15   A    
C36   H19   S    
C11   C13   A    
C2    H1    S    
O5    Zn1   S    
O6    Zn2   S    
C13   H3    S    
C4    C31   S    
C10   C11   A    
C14   H4    S    
C31   O8    A    
C20   C21   A    
O7    Zn1   S    
C14   C15   A    
C13   C14   A    
C26   N1    A    
C27   H13   S    
