data_mof_unit_5510.cif
_audit_creation_date              2013-03-05T16:34:04-0500
_audit_creation_method            fapswitch 2.2
_symmetry_space_group_name_H-M    P1
_symmetry_Int_Tables_number       1
_space_group_crystal_system       triclinic
_cell_length_a                    9.607501
_cell_length_b                    10.840409
_cell_length_c                    16.992462
_cell_angle_alpha                 88.399401
_cell_angle_beta                  94.692973
_cell_angle_gamma                 89.814911
_cell_volume                      1763.10356503

loop_
_atom_site_label
_atom_site_type_symbol
_atom_site_description
_atom_site_fract_x
_atom_site_fract_y
_atom_site_fract_z
_atom_type_partial_charge
O1    O     O_R   0.618810 0.319640 0.500000 -0.558101
O2    O     O_R   0.381230 0.319680 0.499990 -0.555582
C1    C     C_R   0.499088 0.262547 0.498583 0.856327
O3    O     O_R   0.631790 0.498830 0.613930 -0.544477
O4    O     O_R   0.394210 0.498870 0.613920 -0.593336
C2    C     C_R   0.517760 0.501468 0.650804 0.872567
Cu1   Cu    Cu3+1 0.640670 0.499980 0.500000 1.025219
Cu2   Cu    Cu3+1 0.359330 0.500020 0.500000 0.960114
O5    O     O_R   0.618770 0.680320 0.500010 -0.538966
O6    O     O_R   0.381190 0.680360 0.500000 -0.603376
O7    O     O_R   0.605790 0.501130 0.386080 -0.510246
O8    O     O_R   0.368210 0.501170 0.386070 -0.599706
C3    C     C_R   0.499622 0.737327 0.498388 0.809274
C4    C     C_R   0.482773 0.498134 0.349411 0.860146
C5    C     C_R   0.523263 0.521025 0.736208 -0.217359
C6    C     C_R   0.457655 0.627572 0.763352 0.255669
C7    C     C_R   0.429968 0.633542 0.842941 0.168879
C8    C     C_R   0.464447 0.533742 0.895057 0.193512
C9    C     C_R   0.526552 0.425944 0.867909 0.157603
C10   C     C_R   0.565291 0.423762 0.789597 0.083262
C11   C     C_R   0.582871 0.413289 0.148713 0.117323
C12   C     C_R   0.561285 0.402584 0.229586 0.199609
C13   C     C_R   0.516699 0.508391 0.101707 0.271080
N1    N     N_2   0.436390 0.542852 0.975293 -0.133238
N2    N     N_2   0.539858 0.511726 0.020502 -0.173563
C14   C     C_R   0.478980 0.491772 0.263534 -0.101301
C15   C     C_R   0.419638 0.589657 0.217283 -0.403684
C16   C     C_R   0.435674 0.598321 0.135912 0.357857
H1    H     H_    0.367738 0.662955 0.245674 0.169420
C17   C     C_R   0.620536 0.063853 0.494193 -0.065511
C18   C     C_R   0.494868 0.129505 0.490926 -0.099816
C19   C     C_R   0.367078 0.063685 0.478595 0.235050
C20   C     C_R   0.370893 0.934679 0.479353 -0.287103
H2    H     H_    0.273178 0.885086 0.474533 0.188047
C21   C     C_R   0.498059 0.870491 0.491297 -0.073724
C22   C     C_R   0.622370 0.936705 0.494406 -0.043649
C23   C     C_3   0.749904 0.926756 0.551548 -0.008914
C24   C     C_3   0.747561 0.068317 0.551784 0.705687
H3    H     H_    0.840812 0.886798 0.524700 0.127921
C25   C     C_R   0.061869 0.509965 0.430555 -0.002682
N3    N     N_R   0.147870 0.500930 0.499500 -0.205760
C26   C     C_R   0.084834 0.470795 0.566401 -0.022490
H4    H     H_    0.147528 0.445320 0.620105 0.165804
C27   C     C_R   0.937251 0.464788 0.565667 0.463158
N4    N     N_R   0.851960 0.500890 0.499500 -0.241354
C28   C     C_R   0.916171 0.510039 0.431175 0.084887
C29   C     C_3   0.894553 0.603130 0.365210 0.668160
C30   C     C_3   0.055375 0.600251 0.359988 0.347085
N5    N     N_2   0.630821 0.308456 0.278455 -0.391479
H5    H     H_    0.731501 0.289354 0.265582 0.272722
C31   C     C_3   0.549005 0.198608 0.289156 -0.732476
H6    H     H_    0.522108 0.154664 0.231668 0.218879
H7    H     H_    0.451839 0.222026 0.316223 0.222129
H8    H     H_    0.609835 0.131643 0.328958 0.235744
N6    N     N_2   0.719928 0.866157 0.625750 -0.413419
H9    H     H_    0.640209 0.903867 0.654625 0.289548
C32   C     C_3   0.840324 0.826331 0.676746 -0.640740
H10   H     H_    0.805338 0.773867 0.728564 0.227223
H11   H     H_    0.901732 0.907287 0.697807 0.214880
H12   H     H_    0.907375 0.764574 0.644676 0.237005
O9    O     O_3   0.718416 0.118835 0.623786 -0.734997
H13   H     H_    0.805958 0.111033 0.658745 0.331925
O10   O     O_3   0.863127 0.124877 0.519884 -0.748750
H14   H     H_    0.873362 0.090419 0.467088 0.288675
O11   O     O_3   0.884156 0.411281 0.630266 -0.742029
H15   H     H_    0.811516 0.353448 0.609611 0.398053
O12   O     O_3   0.818006 0.553471 0.299820 -0.742528
H16   H     H_    0.775577 0.623754 0.267594 0.335481
O13   O     O_3   0.836542 0.714409 0.389191 -0.738260
H17   H     H_    0.887656 0.737542 0.439667 0.307663
N7    N     N_2   0.100497 0.539671 0.290258 -0.399468
H18   H     H_    0.075975 0.447141 0.287297 0.245340
C33   C     C_3   0.079894 0.603092 0.213829 -0.659453
H19   H     H_    0.125342 0.546585 0.168713 0.231300
H20   H     H_    0.133056 0.693349 0.214259 0.230342
H21   H     H_    0.967792 0.616816 0.195239 0.229339
N8    N     N_2   0.669277 0.327311 0.113014 -0.399783
H22   H     H_    0.666137 0.237961 0.135048 0.254485
C34   C     C_3   0.809983 0.369708 0.104168 -0.668756
H23   H     H_    0.866826 0.382105 0.163007 0.227917
H24   H     H_    0.808595 0.458506 0.069886 0.244775
H25   H     H_    0.866728 0.300469 0.071795 0.217993
N9    N     N_2   0.129654 0.714846 0.377090 -0.421214
H26   H     H_    0.236273 0.705055 0.378823 0.293356
C35   C     C_3   0.081003 0.828600 0.336463 -0.735094
H27   H     H_    0.167072 0.872039 0.305841 0.206021
H28   H     H_    0.047117 0.893820 0.380401 0.238563
H29   H     H_    0.992208 0.813337 0.291832 0.261516
N10   N     N_2   0.544054 0.319369 0.919224 -0.378842
H30   H     H_    0.627760 0.263028 0.911382 0.258882
C36   C     C_3   0.417516 0.250011 0.927683 -0.668650
H31   H     H_    0.438991 0.173601 0.971971 0.222021
H32   H     H_    0.379891 0.210134 0.870288 0.211251
H33   H     H_    0.334721 0.309841 0.948492 0.243244
N11   N     N_2   0.644477 0.323801 0.763683 -0.400529
H34   H     H_    0.604136 0.237937 0.775749 0.263173
C37   C     C_3   0.792589 0.332352 0.787053 -0.587317
H35   H     H_    0.850340 0.261030 0.757190 0.236287
H36   H     H_    0.814405 0.317616 0.851705 0.183200
H37   H     H_    0.832479 0.424966 0.770947 0.271450
N12   N     N_2   0.365923 0.740531 0.871207 -0.376504
H38   H     H_    0.292037 0.781697 0.831354 0.285633
C38   C     C_3   0.463626 0.828726 0.906068 -0.586096
H39   H     H_    0.529557 0.867326 0.860628 0.215039
H40   H     H_    0.531606 0.784467 0.954979 0.253008
H41   H     H_    0.405302 0.905452 0.930557 0.214125
O14   O     O_3   0.380235 0.696562 0.090020 -0.707838
H42   H     H_    0.328176 0.751160 0.123300 0.315560
O15   O     O_3   0.419529 0.727912 0.714093 -0.730502
H43   H     H_    0.468559 0.724029 0.665278 0.324351
N13   N     N_2   0.234060 0.123568 0.474083 -0.383000
H44   H     H_    0.159230 0.073934 0.501409 0.266444
C39   C     C_3   0.182634 0.167763 0.395883 -0.667122
H45   H     H_    0.177733 0.091193 0.353740 0.203773
H46   H     H_    0.250229 0.241952 0.374583 0.237660
H47   H     H_    0.076224 0.207313 0.397880 0.229146

loop_
_geom_bond_atom_site_label_1
_geom_bond_atom_site_label_2
_geom_bond_distance
_ccdc_geom_bond_type
N6    H9    1.032064 S    
N12   H38   1.031536 S    
C19   N13   1.426997 S    
C15   H1    1.082108 S    
C33   H19   1.110353 S    
N11   H34   1.031171 S    
C34   H25   1.110267 S    
C37   H35   1.108312 S    
Cu1   Cu2   2.702973 S    
N13   C39   1.447364 S    
N4    C28   1.359973 A    
Cu1   O7    1.937054 S    
C14   C15   1.394580 A    
C8    N1    1.417322 S    
Cu1   N4    2.030736 S    
C22   C23   1.501464 S    
C24   O10   1.409557 S    
C17   C18   1.395914 A    
O7    C4    1.291137 A    
C32   H11   1.110255 S    
C16   O14   1.381281 S    
C5    C6    1.420118 A    
C17   C24   1.502326 S    
Cu1   O5    1.965579 S    
C8    C9    1.415996 A    
N3    C26   1.363464 A    
O5    C3    1.297051 A    
C29   O13   1.411434 S    
C7    N12   1.424546 S    
C2    C5    1.469181 S    
C29   C30   1.555136 S    
C6    C7    1.402719 A    
N5    C31   1.444396 S    
O14   H42   0.991632 S    
N10   C36   1.446513 S    
N8    H22   1.030070 S    
C39   H47   1.110765 S    
C35   H28   1.109535 S    
N12   C38   1.446567 S    
C11   C12   1.408140 A    
C33   H20   1.105109 S    
C27   O11   1.363653 S    
O13   H17   0.991769 S    
C26   C27   1.418660 A    
O3    Cu1   1.944484 S    
C29   O12   1.402688 S    
C37   H36   1.108450 S    
C6    O15   1.383588 S    
C20   H2    1.081764 S    
N8    C34   1.447307 S    
C5    C10   1.407711 A    
O12   H16   0.992308 S    
Cu2   N3    2.030915 S    
O3    C2    1.306432 A    
C36   H31   1.110725 S    
N7    C33   1.451103 S    
C32   H12   1.111390 S    
C35   H27   1.111536 S    
C4    C14   1.460299 S    
C31   H6    1.110612 S    
O1    C1    1.306736 A    
C21   C22   1.393463 A    
C25   C28   1.400691 A    
C23   C24   1.534798 S    
C9    N10   1.428918 S    
C36   H32   1.111556 S    
N9    H26   1.027427 S    
Cu2   O8    1.944486 S    
C7    C8    1.400212 A    
C38   H40   1.111031 S    
C13   C16   1.412436 A    
N1    N2    1.245211 D    
C1    C18   1.452107 S    
C12   N5    1.426375 S    
C25   N3    1.378210 A    
N9    C35   1.453140 S    
C10   N11   1.422342 S    
O8    C4    1.309077 A    
N5    H5    1.030645 S    
C11   C13   1.404168 A    
C33   H21   1.105696 S    
C26   H4    1.080148 S    
C30   N7    1.465889 S    
C38   H39   1.111846 S    
C37   H37   1.110868 S    
C27   N4    1.382529 A    
C34   H24   1.110612 S    
C39   H45   1.109934 S    
C35   H29   1.110112 S    
C25   C30   1.523653 S    
C28   C29   1.488384 S    
N13   H44   1.032051 S    
O1    Cu1   1.966882 S    
C18   C19   1.425577 A    
O2    Cu2   1.965580 S    
O10   H14   0.993463 S    
O6    C3    1.298265 A    
O4    Cu2   1.937054 S    
N11   C37   1.449701 S    
C3    C21   1.445136 S    
C30   N9    1.459066 S    
C17   C22   1.378295 A    
C31   H8    1.109551 S    
C19   C20   1.398515 A    
C24   O9    1.402760 S    
C9    C10   1.411604 A    
N6    C32   1.444693 S    
O2    C1    1.291132 A    
N7    H18   1.032754 S    
C23   H3    1.110129 S    
O15   H43   0.988675 S    
C36   H33   1.110827 S    
C32   H10   1.110592 S    
O4    C2    1.296946 A    
C20   C21   1.401458 A    
C38   H41   1.110601 S    
C13   N2    1.415060 S    
O9    H13   0.991161 S    
C34   H23   1.111115 S    
C23   N6    1.455550 S    
Cu2   O6    1.966883 S    
O11   H15   0.989105 S    
C12   C14   1.411969 A    
C11   N8    1.426461 S    
C15   C16   1.404323 A    
C31   H7    1.105753 S    
N10   H30   1.027842 S    
C39   H46   1.106848 S    
