data_mof_unit_43714.cif
_audit_creation_date              2012-12-10T17:29:23-0500
_audit_creation_method            fapswitch 2.2
_symmetry_space_group_name_H-M    P1
_symmetry_Int_Tables_number       1
_space_group_crystal_system       triclinic
_cell_length_a                    12.025994
_cell_length_b                    12.848936
_cell_length_c                    13.117411
_cell_angle_alpha                 87.22402
_cell_angle_beta                  113.39079
_cell_angle_gamma                 93.517486
_cell_volume                      1856.19723239

loop_
_atom_site_label
_atom_site_type_symbol
_atom_type_description
_atom_site_fract_x
_atom_site_fract_y
_atom_site_fract_z
_atom_type_partial_charge
C1    C     C_R   0.476674 0.299799 0.496569 0.979995
C2    C     C_R   0.610690 0.490993 0.829072 -0.108122
C3    C     C_R   0.530239 0.811095 0.485152 -0.196835
C4    C     C_R   0.566464 0.493161 0.708531 0.852827
C5    C     C_R   0.462727 0.188552 0.495087 -0.127865
C6    C     C_R   0.408269 0.029883 0.573559 0.485558
C7    C     C_R   0.403885 0.137623 0.557228 -0.387377
C8    C     C_R   0.521982 0.134278 0.443007 0.415142
C9    C     C_R   0.524769 0.026035 0.456142 -0.109288
C10   C     C_R   0.470319 0.974527 0.524114 0.067444
C11   C     C_R   0.477023 0.867727 0.540040 -0.222372
C12   C     C_R   0.557200 0.485310 0.988763 0.104776
C13   C     C_R   0.579157 0.860540 0.412671 0.448803
C14   C     C_R   0.578083 0.968082 0.400836 -0.142379
C15   C     C_R   0.015113 0.610118 0.411171 -0.249067
C16   C     C_R   0.521224 0.700168 0.497432 0.860976
C17   C     C_R   0.133707 0.598930 0.418408 0.059180
C18   C     C_R   0.154261 0.448829 0.535147 0.066863
C19   C     C_R   0.034522 0.456650 0.530637 -0.032836
C20   C     C_R   0.964772 0.539317 0.468044 0.024386
C21   C     C_R   0.845714 0.548671 0.462714 -0.146168
C22   C     C_R   0.864835 0.400823 0.583411 0.554103
C23   C     C_R   0.534287 0.452181 0.881239 0.083903
C24   C     C_R   0.982619 0.384890 0.586473 0.159984
C25   C     C_R   0.432927 0.501251 0.291536 0.901316
C26   C     C_R   0.273567 0.377978 0.014781 -0.213302
C27   C     C_R   0.390260 0.483037 0.173494 -0.135753
C28   C     C_R   0.722152 0.542122 0.890765 -0.161779
C29   C     C_R   0.753605 0.561254 0.002289 -0.110866
C30   C     C_R   0.670981 0.535835 0.050674 -0.169940
C31   C     C_R   0.465202 0.466407 0.029620 0.098350
C32   C     C_R   0.362619 0.400040 0.972156 0.089458
C33   C     C_R   0.351408 0.355190 0.873930 -0.184885
C34   C     C_R   0.435039 0.382117 0.827759 -0.191659
C35   C     C_R   0.471845 0.512832 0.125518 -0.295391
C36   C     C_R   0.287934 0.417336 0.116671 0.389431
Cl1   Cl    Cl    0.181339 0.375437 0.172919 -0.576520
Cl2   Cl    Cl    0.059542 0.271610 0.652102 -0.690222
H1    H     H_    0.614084 0.004494 0.343546 0.187735
H2    H     H_    0.782815 0.570636 0.851753 0.166199
H3    H     H_    0.699703 0.554029 0.137104 0.140966
H4    H     H_    0.840073 0.600045 0.050163 0.158975
H5    H     H_    0.422489 0.346338 0.750672 0.153210
H6    H     H_    0.438277 0.827191 0.593661 0.221533
H7    H     H_    0.585662 0.736591 0.335749 0.325942
H8    H     H_    0.314352 0.028528 0.665401 0.356461
H9    H     H_    0.656856 0.162974 0.399465 0.345334
H10   H     H_    0.875386 0.293737 0.697500 0.365107
H11   H     H_    0.359898 0.182353 0.597421 0.177232
H12   H     H_    0.790751 0.610835 0.412980 0.173780
H13   H     H_    0.963324 0.674009 0.361657 0.157750
H14   H     H_    0.171589 0.654228 0.374664 0.137963
H15   H     H_    0.277044 0.300428 0.832059 0.211602
H16   H     H_    0.210853 0.387125 0.583389 0.165243
H17   H     H_    0.195522 0.326734 0.971224 0.192492
H18   H     H_    0.543901 0.569193 0.168258 0.157871
N1    N     N_R   0.798200 0.480260 0.519790 -0.126139
N2    N     N_R   0.201820 0.519740 0.480210 -0.109189
O1    O     O_R   0.579910 0.341070 0.505280 -0.520428
O2    O     O_3   0.353789 0.977646 0.637591 -0.759614
O3    O     O_3   0.574776 0.189130 0.379151 -0.737082
O4    O     O_3   0.813457 0.337462 0.642554 -0.720543
O5    O     O_R   0.388440 0.353740 0.492580 -0.627118
O6    O     O_R   0.643280 0.490550 0.663120 -0.578257
O7    O     O_R   0.451810 0.503220 0.650420 -0.623627
O8    O     O_R   0.611560 0.646260 0.507420 -0.614835
O9    O     O_R   0.420090 0.658930 0.494720 -0.622852
O10   O     O_R   0.548190 0.496780 0.349580 -0.619342
O11   O     O_R   0.356720 0.509450 0.336880 -0.572260
O12   O     O_3   0.623823 0.807764 0.348759 -0.765984
Zn1   Zn    Zn3+2 0.627850 0.491540 0.508480 1.021765
Zn2   Zn    Zn3+2 0.372150 0.508460 0.491520 0.990238

loop_
_geom_bond_atom_site_label_1
_geom_bond_atom_site_label_2
_ccdc_geom_bond_type
C6    C10   A    
O11   Zn2   S    
C2    C4    S    
C9    C14   A    
C30   H3    S    
H9    O3    S    
C6    C7    A    
C26   C32   A    
C15   H13   S    
C27   C36   A    
C22   O4    S    
O7    Zn2   S    
C27   C35   A    
C9    C10   A    
C4    O6    A    
H10   O4    S    
C19   C20   A    
C3    C13   A    
C8    O3    S    
C23   C34   A    
H8    O2    S    
C32   C33   A    
C22   N1    A    
C19   C24   A    
C35   H18   S    
C11   H6    S    
C16   O9    A    
C13   C14   A    
N1    Zn1   S    
C17   N2    A    
C21   N1    A    
C12   C23   A    
N2    Zn2   S    
C29   C30   A    
C25   O10   A    
O10   Zn1   S    
C1    C5    S    
C1    O5    A    
C17   H14   S    
C26   C36   A    
C28   C29   A    
C26   H17   S    
C33   C34   A    
C22   C24   A    
C1    O1    A    
C12   C31   A    
C33   H15   S    
C15   C20   A    
C29   H4    S    
C31   C35   A    
O5    Zn2   S    
C5    C8    A    
C3    C11   A    
C10   C11   A    
C28   H2    S    
C24   Cl2   S    
C6    O2    S    
C25   O11   A    
C20   C21   A    
C7    H11   S    
C5    C7    A    
O9    Zn2   S    
C13   O12   S    
O6    Zn1   S    
H7    O12   S    
C2    C23   A    
C15   C17   A    
C18   C19   A    
C18   H16   S    
C4    O7    A    
C36   Cl1   S    
C16   O8    A    
C2    C28   A    
C21   H12   S    
C12   C30   A    
C14   H1    S    
C34   H5    S    
C18   N2    A    
C31   C32   A    
C3    C16   S    
O8    Zn1   S    
O1    Zn1   S    
C8    C9    A    
C25   C27   S    
