data_mof_unit_59464.cif
_audit_creation_date              2012-12-11T16:58:16-0500
_audit_creation_method            fapswitch 2.2
_symmetry_space_group_name_H-M    P1
_symmetry_Int_Tables_number       1
_space_group_crystal_system       triclinic
_cell_length_a                    16.914365
_cell_length_b                    7.256609
_cell_length_c                    16.815031
_cell_angle_alpha                 90.012783
_cell_angle_beta                  100.299699
_cell_angle_gamma                 90.003969
_cell_volume                      2030.63492289

loop_
_atom_site_label
_atom_site_type_symbol
_atom_type_description
_atom_site_fract_x
_atom_site_fract_y
_atom_site_fract_z
_atom_type_partial_charge
O1    O     O_R   0.413450 0.494370 0.415710 -0.545881
O2    O     O_R   0.586550 0.994370 0.584290 -0.541349
O3    O     O_R   0.578420 0.819350 0.429360 -0.546674
O4    O     O_R   0.421580 0.319350 0.570640 -0.544788
C1    C     C_R   0.604859 0.656937 0.413774 0.692616
C2    C     C_R   0.395389 0.157077 0.586507 0.706912
O5    O     O_R   0.413570 0.823780 0.406240 -0.508628
O6    O     O_R   0.586430 0.323780 0.593760 -0.510607
O7    O     O_R   0.420530 0.998740 0.561000 -0.531603
O8    O     O_R   0.579470 0.498740 0.439000 -0.536667
C3    C     C_R   0.385392 0.655626 0.384305 0.727205
C4    C     C_R   0.614797 0.155766 0.615553 0.703843
O9    O     O_3   0.502480 0.662320 0.550800 -0.376566
O10   O     O_3   0.497520 0.162320 0.449200 -0.379550
V1    V     V_3+5 0.499540 0.935370 0.490580 1.429701
V2    V     V_3+5 0.500460 0.435370 0.509420 1.425102
C5    C     C_R   0.709498 0.979447 0.720254 0.074659
C6    C     C_R   0.309392 0.502919 0.259294 0.003096
C7    C     C_R   0.687315 0.146384 0.680509 -0.210495
C8    C     C_R   0.316818 0.648390 0.315092 -0.183694
C9    C     C_R   0.740132 0.298250 0.701211 0.394474
C10   C     C_R   0.257382 0.788578 0.302279 0.425818
C11   C     C_R   0.804994 0.284976 0.767111 -0.276969
C12   C     C_R   0.193888 0.778624 0.234257 -0.295088
H1    H     H_    0.841570 0.406091 0.784099 0.155816
H2    H     H_    0.150017 0.888418 0.223593 0.132990
C13   C     C_R   0.821240 0.120057 0.811445 -0.168416
C14   C     C_R   0.183565 0.622780 0.183498 -0.145389
C15   C     C_R   0.774916 0.965782 0.783161 0.112785
C16   C     C_R   0.244177 0.489349 0.196010 0.094321
C17   C     C_3   0.732312 0.832055 0.828181 -0.394568
C18   C     C_3   0.238812 0.285521 0.204802 -0.381710
C19   C     C_3   0.660510 0.848652 0.759780 -0.368819
C20   C     C_3   0.310114 0.300074 0.273779 -0.322467
H3    H     H_    0.720873 0.888182 0.886622 0.159469
H4    H     H_    0.253030 0.210783 0.151396 0.164635
H5    H     H_    0.760630 0.693356 0.831909 0.184272
H6    H     H_    0.182452 0.241714 0.224676 0.169877
H7    H     H_    0.607652 0.916172 0.778358 0.151920
H8    H     H_    0.365373 0.233443 0.260228 0.169809
H9    H     H_    0.646822 0.719470 0.724663 0.224935
H10   H     H_    0.295230 0.266068 0.333758 0.210722
C21   C     C_R   0.332727 0.162872 0.638368 -0.070005
C22   C     C_R   0.668185 0.661816 0.362685 -0.059317
C23   C     C_R   0.168010 0.107635 0.863352 -0.061569
C24   C     C_R   0.832209 0.607879 0.136955 -0.061494
C25   C     C_R   0.272971 0.928756 0.815461 -0.195925
C26   C     C_R   0.726858 0.429718 0.184503 -0.195675
C27   C     C_R   0.219900 0.953956 0.869370 -0.159053
C28   C     C_R   0.779826 0.455064 0.130498 -0.158603
C29   C     C_R   0.172065 0.239323 0.803055 -0.243171
C30   C     C_R   0.828819 0.738540 0.197889 -0.245022
C31   C     C_R   0.225166 0.213861 0.747972 0.156825
C32   C     C_R   0.775818 0.712889 0.253092 0.157900
C33   C     C_R   0.275655 0.056533 0.753764 0.159988
C34   C     C_R   0.724792 0.556438 0.246774 0.157073
C35   C     C_R   0.328556 0.030783 0.698469 -0.247778
C36   C     C_R   0.671894 0.530611 0.302069 -0.244933
C37   C     C_R   0.281343 0.317408 0.632878 -0.159407
C38   C     C_R   0.720106 0.815403 0.368747 -0.169031
C39   C     C_R   0.228082 0.342143 0.686555 -0.193127
C40   C     C_R   0.773443 0.840144 0.315092 -0.197040
H11   H     H_    0.368365 0.912590 0.704145 0.120515
H12   H     H_    0.631561 0.413309 0.295860 0.120147
H13   H     H_    0.282990 0.421566 0.587044 0.123162
H14   H     H_    0.718619 0.919130 0.414814 0.122448
H15   H     H_    0.311242 0.807949 0.821530 0.121064
H16   H     H_    0.688159 0.309604 0.178041 0.120808
H17   H     H_    0.189909 0.463112 0.680586 0.118194
H18   H     H_    0.811998 0.960497 0.321445 0.117205
H19   H     H_    0.218427 0.850219 0.915413 0.127672
H20   H     H_    0.780828 0.352114 0.084012 0.126805
H21   H     H_    0.131986 0.357059 0.797036 0.122206
H22   H     H_    0.869313 0.855557 0.204272 0.119867
O11   O     O_R   0.920630 0.775410 0.061150 -0.534625
O12   O     O_R   0.079370 0.275410 0.938850 -0.533789
O13   O     O_R   0.086500 0.441450 0.093690 -0.538383
O14   O     O_R   0.913500 0.941450 0.906310 -0.535805
C41   C     C_R   0.114026 0.610080 0.116023 0.708154
C42   C     C_R   0.886477 0.109998 0.883354 0.712282
O15   O     O_R   0.921670 0.445960 0.070740 -0.540713
O16   O     O_R   0.078330 0.945960 0.929260 -0.540318
O17   O     O_R   0.913380 0.271130 0.915780 -0.538703
O18   O     O_R   0.086620 0.771130 0.084220 -0.537962
C43   C     C_R   0.895543 0.612758 0.085818 0.685812
C44   C     C_R   0.104537 0.112701 0.914294 0.688142
O19   O     O_3   0.997500 0.603030 0.949220 -0.376674
O20   O     O_3   0.002500 0.103030 0.050780 -0.378768
V3    V     V_3+5 0.000470 0.329940 0.009420 1.387895
V4    V     V_3+5 0.999530 0.829940 0.990580 1.392483
O21   O     O_3   0.725736 0.465538 0.662258 -0.550614
C45   C     C_3   0.774340 0.479183 0.602424 0.109772
H23   H     H_    0.747011 0.398019 0.548288 0.115066
H24   H     H_    0.837022 0.429776 0.623934 0.099340
C46   C     C_3   0.779332 0.680128 0.578213 -0.718877
H25   H     H_    0.811323 0.761135 0.630184 0.213841
H26   H     H_    0.812892 0.691566 0.527408 0.172752
H27   H     H_    0.718112 0.737856 0.559225 0.224715
O22   O     O_3   0.261772 0.931401 0.357865 -0.552734
C47   C     C_3   0.187271 0.957606 0.383453 0.056773
H28   H     H_    0.155484 0.824865 0.389452 0.112686
H29   H     H_    0.148126 0.049452 0.340440 0.117961
C48   C     C_3   0.201944 0.050344 0.465678 -0.699642
H30   H     H_    0.233781 0.183209 0.462379 0.206135
H31   H     H_    0.143787 0.077401 0.485408 0.176430
H32   H     H_    0.238853 0.958829 0.510568 0.221589

loop_
_geom_bond_atom_site_label_1
_geom_bond_atom_site_label_2
_ccdc_geom_bond_type
C13   C15   A    
C5    C15   A    
C46   H25   S    
O1    C3    A    
O2    C4    A    
C2    O7    A    
C46   H27   S    
C25   C27   A    
O14   V4    S    
O5    C3    A    
O13   V3    S    
C19   H7    S    
O18   V4    S    
C20   H8    S    
C18   H4    S    
C10   C12   A    
C7    C9    A    
C12   H2    S    
C30   H22   S    
C41   O18   A    
O14   C42   A    
C23   C29   A    
C24   C30   A    
C40   H18   S    
C38   C40   A    
C14   C41   S    
C28   H20   S    
C47   H28   S    
O11   V4    S    
C31   C39   A    
O11   C43   A    
C22   C36   A    
C20   H10   S    
C17   C19   S    
C6    C16   A    
C11   C13   A    
C21   C37   A    
O12   V3    S    
C24   C43   S    
O15   V3    S    
C26   C28   A    
C38   H14   S    
O6    V2    S    
C5    C19   S    
C42   O17   A    
C25   H15   S    
C30   C32   A    
C35   H11   S    
C31   C33   A    
C36   H12   S    
O17   V3    S    
C32   C34   A    
C3    C8    S    
C37   C39   A    
C29   H21   S    
O4    C2    A    
C13   C42   S    
O21   C45   S    
O5    V1    S    
C32   C40   A    
O16   C44   A    
C45   C46   S    
C17   H5    S    
C29   C31   A    
C18   C20   S    
O4    V2    S    
O22   C47   S    
C23   C27   A    
O6    C4    A    
C45   H24   S    
O13   C41   A    
C48   H31   S    
O1    V2    S    
C26   H16   S    
O2    V1    S    
C6    C20   S    
C1    C22   S    
C8    C10   A    
C18   H6    S    
C2    C21   S    
C33   C35   A    
C17   H3    S    
O19   V4    S    
O12   C44   A    
O3    V1    S    
C25   C33   A    
C47   H29   S    
C9    O21   S    
C39   H17   S    
C26   C34   A    
C10   O22   S    
C12   C14   A    
O3    C1    A    
C46   H26   S    
C24   C28   A    
O16   V4    S    
C19   H9    S    
C9    C11   A    
C23   C44   S    
O7    V1    S    
C1    O8    A    
C15   C17   S    
O8    V2    S    
C37   H13   S    
C16   C18   S    
C22   C38   A    
C4    C7    S    
C14   C16   A    
C45   H23   S    
C5    C7    A    
C34   C36   A    
C48   H32   S    
C6    C8    A    
C47   C48   S    
C21   C35   A    
C11   H1    S    
O20   V3    S    
C27   H19   S    
O9    V2    S    
C48   H30   S    
O10   V1    S    
O15   C43   A    
