data_mof_unit_27914.cif
_audit_creation_date              2012-10-26T21:00:40-0400
_audit_creation_method            fapswitch 2.2
_symmetry_space_group_name_H-M    P1
_symmetry_Int_Tables_number       1
_space_group_crystal_system       triclinic
_cell_length_a                    10.858692
_cell_length_b                    9.600914
_cell_length_c                    10.891071
_cell_angle_alpha                 90.376258
_cell_angle_beta                  92.548407
_cell_angle_gamma                 91.485566
_cell_volume                      1133.89277499

loop_
_atom_site_label
_atom_site_type_symbol
_atom_type_description
_atom_site_fract_x
_atom_site_fract_y
_atom_site_fract_z
_atom_type_partial_charge
C1    C     C_R   0.262614 0.498466 0.505654 0.592652
C2    C     C_R   0.491218 0.501566 0.737436 0.594874
C3    C     C_R   0.608085 0.738757 0.119532 -0.080776
C4    C     C_R   0.489039 0.767337 0.891732 -0.096092
C5    C     C_R   0.606528 0.870472 0.064403 0.092062
C6    C     C_R   0.536505 0.886586 0.953237 0.075422
C7    C     C_R   0.505615 0.633310 0.940117 -0.011019
C8    C     C_R   0.543578 0.623686 0.064261 0.003024
C9    C     C_R   0.512368 0.500836 0.128575 0.009066
C10   C     C_R   0.480030 0.508631 0.871974 0.012910
C11   C     C_R   0.465424 0.383822 0.062824 -0.088412
C12   C     C_R   0.737614 0.502659 0.492691 0.577288
C13   C     C_R   0.453288 0.386977 0.935688 -0.091011
C14   C     C_R   0.059546 0.380623 0.466996 -0.168048
C15   C     C_R   0.931901 0.384062 0.461759 -0.161723
C16   C     C_R   0.872180 0.509111 0.484753 -0.037910
C17   C     C_R   0.128530 0.496649 0.511309 -0.016594
C18   C     C_2   0.670089 0.988513 0.130267 0.617316
C19   C     C_2   0.514876 0.022162 0.892940 0.575577
C20   C     C_2   0.352025 0.856499 0.316181 0.611399
C21   C     C_2   0.671458 0.878906 0.676984 0.613757
C22   C     C_R   0.944323 0.632156 0.513202 0.238390
C23   C     C_R   0.067755 0.615615 0.550652 0.261043
C24   C     C_R   0.427017 0.072701 0.418160 0.055600
C25   C     C_R   0.575379 0.080362 0.578945 0.008009
C26   C     C_R   0.426986 0.925024 0.416432 0.181248
C27   C     C_R   0.577583 0.932258 0.582194 0.130267
C28   C     C_R   0.507216 0.500076 0.262798 0.529652
Cu1   Cu    Cu3+1 0.500000 0.640660 0.500000 1.116283
Cu2   Cu    Cu3+1 0.500000 0.359340 0.500000 0.997241
H1    H     H_    0.436857 0.289908 0.109508 0.186440
H2    H     H_    0.413519 0.121759 0.760923 0.340917
H3    H     H_    0.748393 0.914963 0.392156 0.353016
H4    H     H_    0.223525 0.661820 0.840208 0.364063
H5    H     H_    0.199016 0.745649 0.262462 0.348767
H6    H     H_    0.762887 0.723464 0.761464 0.351656
H7    H     H_    0.418074 0.295927 0.887275 0.172308
H8    H     H_    0.657143 0.726985 0.206622 0.195925
H9    H     H_    0.434948 0.781938 0.807789 0.221150
H10   H     H_    0.103939 0.286475 0.439090 0.178310
H11   H     H_    0.880041 0.289695 0.435750 0.177416
H12   H     H_    0.368998 0.127844 0.352320 0.138916
H13   H     H_    0.634019 0.144551 0.640392 0.197932
H14   H     H_    0.829302 0.067636 0.207297 0.350114
N1    N     N_R   0.500000 0.852070 0.500000 -0.266530
N2    N     N_R   0.500000 0.147940 0.500000 -0.281198
O1    O     O_R   0.319640 0.618740 0.499990 -0.414610
O2    O     O_R   0.795879 0.981260 0.161775 -0.632850
O3    O     O_2   0.589369 0.119151 0.906958 -0.470009
O4    O     O_R   0.411582 0.034557 0.812370 -0.689407
O5    O     O_2   0.909457 0.902729 0.570522 -0.202551
O6    O     O_2   0.002829 0.852909 0.378082 -0.224396
O7    O     O_3   0.769787 0.815606 0.386052 -0.526519
O8    O     O_2   0.200473 0.849090 0.612557 -0.178690
O9    O     O_2   0.037660 0.777009 0.749439 -0.234829
O10   O     O_3   0.236886 0.634991 0.753941 -0.574089
O11   O     O_2   0.380931 0.873072 0.210134 -0.539107
O12   O     O_R   0.680360 0.618740 0.500010 -0.403403
O13   O     O_R   0.241750 0.786612 0.339663 -0.615057
O14   O     O_2   0.731575 0.962913 0.741914 -0.469959
O15   O     O_R   0.697292 0.739673 0.694176 -0.631554
O16   O     O_R   0.319620 0.381170 0.499990 -0.523786
O17   O     O_R   0.680380 0.381170 0.500010 -0.515305
O18   O     O_R   0.500000 0.618810 0.319650 -0.511232
O19   O     O_R   0.500000 0.618810 0.680350 -0.466024
O20   O     O_R   0.499970 0.381240 0.319640 -0.501377
O21   O     O_R   0.500030 0.381240 0.680360 -0.515240
O22   O     O_2   0.612683 0.090856 0.158630 -0.501738
S1    S     S_3+6 0.905984 0.803933 0.463107 0.076072
S2    S     S_3+6 0.135565 0.726151 0.667931 0.094964

loop_
_geom_bond_atom_site_label_1
_geom_bond_atom_site_label_2
_ccdc_geom_bond_type
C8    C9    A    
C7    C10   A    
C28   O20   A    
O8    S2    D    
H4    O10   S    
Cu1   Cu2   S    
O6    S1    D    
C25   C27   A    
C24   H12   S    
C19   O3    D    
C22   S1    S    
C13   H7    S    
Cu2   O21   S    
C14   C17   A    
C4    H9    S    
C12   O12   A    
C2    O19   A    
O7    S1    S    
C1    O16   A    
C27   N1    A    
C21   C27   S    
Cu1   O18   S    
C11   H1    S    
C7    C8    A    
H14   O2    S    
C17   C23   A    
Cu2   O17   S    
Cu1   O12   S    
C20   O13   S    
C6    C19   S    
C9    C11   A    
C19   O4    S    
H2    O4    S    
Cu2   O20   S    
C20   C26   S    
C23   S2    S    
Cu1   O1    S    
C4    C7    A    
Cu1   O19   S    
C28   O18   A    
C4    C6    A    
C25   H13   S    
C14   H10   S    
C24   C26   A    
C3    C8    A    
O10   S2    S    
Cu2   O16   S    
H3    O7    S    
C5    C6    A    
O9    S2    D    
C18   O22   D    
H6    O15   S    
C2    C10   S    
C12   C16   S    
C11   C13   A    
C1    C17   S    
C15   H11   S    
C21   O14   D    
H5    O13   S    
C2    O21   A    
C9    C28   S    
C12   O17   A    
C14   C15   A    
C1    O1    A    
C16   C22   A    
C5    C18   S    
O5    S1    D    
C26   N1    A    
C20   O11   D    
C22   C23   A    
C21   O15   S    
C25   N2    A    
Cu2   N2    S    
C15   C16   A    
C3    H8    S    
Cu1   N1    S    
C24   N2    A    
C3    C5    A    
C10   C13   A    
C18   O2    S    
