data_mof_unit_65518.cif
_audit_creation_date              2012-12-10T18:13:28-0500
_audit_creation_method            fapswitch 2.2
_symmetry_space_group_name_H-M    P1
_symmetry_Int_Tables_number       1
_space_group_crystal_system       triclinic
_cell_length_a                    32.230679
_cell_length_b                    32.230677
_cell_length_c                    21.814383
_cell_angle_alpha                 90.000212
_cell_angle_beta                  89.999902
_cell_angle_gamma                 89.999989
_cell_volume                      22661.1432736

loop_
_atom_site_label
_atom_site_type_symbol
_atom_type_description
_atom_site_fract_x
_atom_site_fract_y
_atom_site_fract_z
_atom_type_partial_charge
C1    C     C_R   0.420429 1.000000 0.500000 0.797680
C2    C     C_R   0.000000 0.420428 0.500000 0.797620
C3    C     C_R   0.579571 0.000000 0.500000 0.797669
C4    C     C_R   0.000000 0.579571 0.500000 0.797616
C5    C     C_R   0.920428 0.500000 0.000000 0.797678
C6    C     C_R   0.500000 0.920428 1.000000 0.797610
C7    C     C_R   0.079571 0.500000 0.000000 0.797728
C8    C     C_R   0.500000 0.079571 0.000000 0.797669
C9    C     C_R   0.293492 0.000000 0.500000 -0.045360
C10   C     C_R   0.000000 0.293492 0.500000 -0.045355
C11   C     C_R   0.706508 1.000000 0.500000 -0.045364
C12   C     C_R   0.000000 0.706508 0.500000 -0.045356
C13   C     C_R   0.793492 0.500000 1.000000 -0.045361
C14   C     C_R   0.500000 0.793492 0.000000 -0.045360
C15   C     C_R   0.206508 0.500000 0.000000 -0.045359
C16   C     C_R   0.500000 0.206508 1.000000 -0.045359
C17   C     C_1   0.161395 1.000000 0.500000 0.015455
C18   C     C_1   1.000000 0.161395 0.500000 0.015455
C19   C     C_1   0.838605 1.000000 0.500000 0.015455
C20   C     C_1   1.000000 0.838605 0.500000 0.015458
C21   C     C_1   0.661395 0.500000 1.000000 0.015459
C22   C     C_1   0.500000 0.661395 0.000000 0.015459
C23   C     C_1   0.338605 0.500000 0.000000 0.015457
C24   C     C_1   0.500000 0.338605 1.000000 0.015456
C25   C     C_1   0.338383 0.000000 0.500000 0.130361
C26   C     C_1   0.000000 0.338384 0.500000 0.130377
C27   C     C_1   0.661616 1.000000 0.500000 0.130365
C28   C     C_1   0.000000 0.661616 0.500000 0.130379
C29   C     C_1   0.838383 0.500000 1.000000 0.130359
C30   C     C_1   0.500000 0.838384 0.000000 0.130376
C31   C     C_1   0.161616 0.500000 0.000000 0.130349
C32   C     C_1   0.500000 0.161616 1.000000 0.130365
C33   C     C_1   0.375844 0.000000 0.500000 -0.106098
C34   C     C_1   0.000000 0.375844 0.500000 -0.106079
C35   C     C_1   0.624156 0.000000 0.500000 -0.106095
C36   C     C_1   0.000000 0.624156 0.500000 -0.106078
C37   C     C_1   0.875844 0.500000 1.000000 -0.106104
C38   C     C_1   0.500000 0.875844 0.000000 -0.106085
C39   C     C_1   0.124156 0.500000 0.000000 -0.106109
C40   C     C_1   0.500000 0.124156 1.000000 -0.106090
C41   C     C_1   0.123916 1.000000 0.500000 -0.143387
C42   C     C_1   1.000000 0.123916 0.500000 -0.143388
C43   C     C_1   0.876084 1.000000 0.500000 -0.143385
C44   C     C_1   1.000000 0.876084 0.500000 -0.143386
C45   C     C_1   0.623916 0.500000 1.000000 -0.143381
C46   C     C_1   0.500000 0.623916 0.000000 -0.143382
C47   C     C_1   0.376084 0.500000 0.000000 -0.143381
C48   C     C_1   0.500000 0.376084 1.000000 -0.143382
C49   C     C_R   1.000000 0.920714 0.500000 0.808889
C50   C     C_R   0.079285 0.000000 0.500000 0.808890
C51   C     C_R   1.000000 0.079286 0.500000 0.808888
C52   C     C_R   0.920714 0.000000 0.500000 0.808889
C53   C     C_R   0.500000 0.420714 1.000000 0.808891
C54   C     C_R   0.579286 0.500000 1.000000 0.808887
C55   C     C_R   0.500000 0.579286 0.000000 0.808885
C56   C     C_R   0.420714 0.500000 0.000000 0.808891
C57   C     C_R   0.500000 1.000000 0.381122 0.786103
C58   C     C_R   0.000000 0.500000 0.381122 0.786047
C59   C     C_R   0.500000 1.000000 0.618878 0.786103
C60   C     C_R   1.000000 0.500000 0.618878 0.786048
C61   C     C_R   1.000000 0.500000 0.881122 0.786130
C62   C     C_R   0.500000 0.000000 0.881122 0.786068
C63   C     C_R   1.000000 0.500000 0.118878 0.786130
C64   C     C_R   0.500000 1.000000 0.118878 0.786068
C65   C     C_R   0.559261 0.950798 0.312832 -0.123734
C66   C     C_R   0.049206 0.559258 0.312832 -0.123794
C67   C     C_R   0.440739 0.049202 0.312832 -0.123706
C68   C     C_R   0.950794 0.440742 0.312831 -0.123787
C69   C     C_R   0.440738 0.950798 0.687168 -0.123710
C70   C     C_R   0.950794 0.559258 0.687169 -0.123798
C71   C     C_R   0.559261 0.049202 0.687168 -0.123730
C72   C     C_R   0.049206 0.440742 0.687168 -0.123783
C73   C     C_R   0.059262 0.450800 0.812832 -0.123631
C74   C     C_R   0.549204 0.059259 0.812832 -0.123708
C75   C     C_R   0.940738 0.549201 0.812833 -0.123732
C76   C     C_R   0.450795 0.940741 0.812832 -0.123831
C77   C     C_R   0.940738 0.450799 0.187168 -0.123731
C78   C     C_R   0.450796 0.059259 0.187168 -0.123708
C79   C     C_R   0.059262 0.549200 0.187168 -0.123631
C80   C     C_R   0.549205 0.940741 0.187168 -0.123832
C81   C     C_R   0.583616 0.922238 0.281214 -0.093600
C82   C     C_R   0.077769 0.583610 0.281213 -0.093538
C83   C     C_R   0.416385 0.077763 0.281214 -0.093536
C84   C     C_R   0.922232 0.416390 0.281213 -0.093579
C85   C     C_R   0.416384 0.922238 0.718786 -0.093591
C86   C     C_R   0.922231 0.583610 0.718787 -0.093584
C87   C     C_R   0.583615 0.077763 0.718786 -0.093545
C88   C     C_R   0.077769 0.416390 0.718786 -0.093535
C89   C     C_R   0.083617 0.422240 0.781214 -0.093549
C90   C     C_R   0.577766 0.083612 0.781214 -0.093553
C91   C     C_R   0.916383 0.577761 0.781215 -0.093582
C92   C     C_R   0.422233 0.916389 0.781213 -0.093586
C93   C     C_R   0.916383 0.422239 0.218786 -0.093579
C94   C     C_R   0.422234 0.083612 0.218787 -0.093544
C95   C     C_R   0.083618 0.577760 0.218786 -0.093552
C96   C     C_R   0.577767 0.916388 0.218786 -0.093595
C97   C     C_R   0.525733 0.971701 0.217787 0.066559
C98   C     C_R   0.028301 0.525731 0.217787 0.066575
C99   C     C_R   0.474267 0.028299 0.217787 0.066572
C100  C     C_R   0.971699 0.474269 0.217787 0.066564
C101  C     C_R   0.474267 0.971701 0.782213 0.066559
C102  C     C_R   0.971699 0.525731 0.782213 0.066563
C103  C     C_R   0.525733 0.028299 0.782213 0.066572
C104  C     C_R   0.028301 0.474269 0.782213 0.066575
C105  C     C_R   0.025734 0.471702 0.717787 0.066563
C106  C     C_R   0.528300 0.025732 0.717787 0.066561
C107  C     C_R   0.974266 0.528298 0.717787 0.066569
C108  C     C_R   0.471700 0.974268 0.717787 0.066572
C109  C     C_R   0.974266 0.471701 0.282212 0.066570
C110  C     C_R   0.471700 0.025732 0.282213 0.066564
C111  C     C_R   0.025734 0.528298 0.282213 0.066562
C112  C     C_R   0.528300 0.974268 0.282213 0.066570
C113  C     C_R   0.500000 1.000000 0.185722 -0.171503
C114  C     C_R   1.000000 0.500000 0.185722 -0.171514
C115  C     C_R   0.500000 0.000000 0.814277 -0.171503
C116  C     C_R   1.000000 0.500000 0.814278 -0.171514
C117  C     C_R   1.000000 0.500000 0.685723 -0.171494
C118  C     C_R   0.500000 0.000000 0.685722 -0.171510
C119  C     C_R   0.000000 0.500000 0.314277 -0.171494
C120  C     C_R   0.500000 1.000000 0.314278 -0.171510
C121  C     C_R   0.227989 0.983652 0.549965 -0.188842
C122  C     C_R   0.016533 0.227989 0.549832 -0.188852
C123  C     C_R   0.772011 0.016396 0.549931 -0.188841
C124  C     C_R   0.983446 0.772011 0.549817 -0.188847
C125  C     C_R   0.772011 0.983604 0.450069 -0.188837
C126  C     C_R   0.983467 0.227989 0.450168 -0.188849
C127  C     C_R   0.227989 0.016348 0.450035 -0.188845
C128  C     C_R   0.016554 0.772011 0.450183 -0.188850
C129  C     C_R   0.727989 0.483621 0.049942 -0.188841
C130  C     C_R   0.516605 0.727989 0.049780 -0.188848
C131  C     C_R   0.272011 0.516188 0.050078 -0.188843
C132  C     C_R   0.483631 0.272011 0.049950 -0.188846
C133  C     C_R   0.272011 0.483812 0.949922 -0.188842
C134  C     C_R   0.483395 0.727989 0.950220 -0.188847
C135  C     C_R   0.727989 0.516380 0.950057 -0.188842
C136  C     C_R   0.516369 0.272011 0.950050 -0.188846
C137  C     C_R   0.206178 0.000000 0.500000 0.005859
C138  C     C_R   1.000000 0.206178 0.500000 0.005870
C139  C     C_R   0.793822 1.000000 0.500000 0.005856
C140  C     C_R   1.000000 0.793822 0.500000 0.005871
C141  C     C_R   0.706178 0.500000 1.000000 0.005859
C142  C     C_R   0.500000 0.706178 0.000000 0.005866
C143  C     C_R   0.293822 0.500000 0.000000 0.005855
C144  C     C_R   0.500000 0.293822 1.000000 0.005859
C145  C     C_R   0.271459 0.016432 0.449775 0.352500
C146  C     C_R   0.983383 0.271459 0.449908 0.352517
C147  C     C_R   0.728541 0.983520 0.449809 0.352507
C148  C     C_R   0.016638 0.728541 0.449923 0.352520
C149  C     C_R   0.728540 0.016480 0.550191 0.352508
C150  C     C_R   0.016617 0.271459 0.550092 0.352517
C151  C     C_R   0.271459 0.983568 0.550225 0.352500
C152  C     C_R   0.983361 0.728541 0.550077 0.352520
C153  C     C_R   0.771459 0.516463 0.949797 0.352502
C154  C     C_R   0.483311 0.771459 0.949960 0.352523
C155  C     C_R   0.228541 0.483728 0.949661 0.352481
C156  C     C_R   0.516453 0.228541 0.949790 0.352501
C157  C     C_R   0.228541 0.516272 0.050339 0.352482
C158  C     C_R   0.516689 0.771459 0.050040 0.352523
C159  C     C_R   0.771459 0.483537 0.050203 0.352501
C160  C     C_R   0.483547 0.228541 0.050210 0.352501
Cu1   Cu    Cu3+1 0.500000 0.041050 0.500000 1.004145
Cu2   Cu    Cu3+1 0.958950 0.500000 0.500000 1.004181
Cu3   Cu    Cu3+1 0.500000 0.958950 0.500000 1.004058
Cu4   Cu    Cu3+1 0.041050 0.500000 0.500000 1.004250
Cu5   Cu    Cu3+1 0.000000 0.541050 0.000000 1.004054
Cu6   Cu    Cu3+1 0.458950 0.000000 0.000000 1.004170
Cu7   Cu    Cu3+1 1.000000 0.458950 0.000000 1.004052
Cu8   Cu    Cu3+1 0.541050 0.000000 0.000000 1.004160
Cu9   Cu    Cu3+1 0.000000 1.000000 0.438210 1.010416
Cu10  Cu    Cu3+1 0.000000 1.000000 0.561790 1.010416
Cu11  Cu    Cu3+1 0.500000 0.500000 0.938210 1.010430
Cu12  Cu    Cu3+1 0.500000 0.500000 0.061790 1.010430
H1    H     H_    0.393305 0.095830 0.305454 0.174268
H2    H     H_    0.904163 0.393311 0.305452 0.174400
H3    H     H_    0.606696 0.904170 0.305453 0.174322
H4    H     H_    0.095838 0.606689 0.305453 0.174400
H5    H     H_    0.606695 0.095831 0.694547 0.174303
H6    H     H_    0.095838 0.393311 0.694547 0.174385
H7    H     H_    0.393304 0.904170 0.694546 0.174287
H8    H     H_    0.904162 0.606689 0.694548 0.174415
H9    H     H_    0.893302 0.595828 0.805454 0.174307
H10   H     H_    0.404164 0.893309 0.805453 0.174450
H11   H     H_    0.106698 0.404173 0.805453 0.174163
H12   H     H_    0.595834 0.106692 0.805453 0.174282
H13   H     H_    0.106698 0.595827 0.194546 0.174166
H14   H     H_    0.595836 0.893309 0.194547 0.174455
H15   H     H_    0.893303 0.404172 0.194546 0.174304
H16   H     H_    0.404165 0.106691 0.194548 0.174277
H17   H     H_    0.565418 0.954334 0.361222 0.156541
H18   H     H_    0.045670 0.565416 0.361221 0.156561
H19   H     H_    0.434582 0.045666 0.361222 0.156528
H20   H     H_    0.954330 0.434584 0.361221 0.156562
H21   H     H_    0.434581 0.954335 0.638778 0.156532
H22   H     H_    0.954330 0.565416 0.638779 0.156566
H23   H     H_    0.565418 0.045666 0.638778 0.156535
H24   H     H_    0.045670 0.434584 0.638779 0.156558
H25   H     H_    0.065419 0.454336 0.861222 0.156504
H26   H     H_    0.545668 0.065417 0.861221 0.156535
H27   H     H_    0.934581 0.545665 0.861222 0.156534
H28   H     H_    0.454331 0.934583 0.861221 0.156570
H29   H     H_    0.934581 0.454335 0.138778 0.156533
H30   H     H_    0.454332 0.065417 0.138779 0.156534
H31   H     H_    0.065419 0.545664 0.138778 0.156504
H32   H     H_    0.545669 0.934583 0.138778 0.156572
H33   H     H_    0.211240 0.970962 0.588749 0.189505
H34   H     H_    0.029367 0.211241 0.588513 0.189495
H35   H     H_    0.788761 0.029123 0.588688 0.189499
H36   H     H_    0.970595 0.788759 0.588486 0.189497
H37   H     H_    0.788761 0.970877 0.411312 0.189502
H38   H     H_    0.970633 0.211241 0.411487 0.189497
H39   H     H_    0.211240 0.029038 0.411251 0.189502
H40   H     H_    0.029405 0.788759 0.411514 0.189495
H41   H     H_    0.711240 0.470906 0.088709 0.189506
H42   H     H_    0.529494 0.711241 0.088420 0.189496
H43   H     H_    0.288759 0.528755 0.088951 0.189512
H44   H     H_    0.470924 0.288760 0.088722 0.189504
H45   H     H_    0.288759 0.471245 0.911049 0.189513
H46   H     H_    0.470506 0.711240 0.911580 0.189496
H47   H     H_    0.711240 0.529094 0.911291 0.189505
H48   H     H_    0.529076 0.288760 0.911278 0.189504
O1    O     O_R   0.440150 0.034670 0.500000 -0.575064
O2    O     O_R   0.965330 0.440150 0.500000 -0.575044
O3    O     O_R   0.559850 0.965330 0.500000 -0.575073
O4    O     O_R   0.034670 0.559850 0.500000 -0.575026
O5    O     O_R   0.559850 0.034670 0.500000 -0.575056
O6    O     O_R   0.034670 0.440150 0.500000 -0.575030
O7    O     O_R   0.440150 0.965330 0.500000 -0.575081
O8    O     O_R   0.965330 0.559850 0.500000 -0.575040
O9    O     O_R   0.940150 0.534670 0.000000 -0.575070
O10   O     O_R   0.465330 0.940150 0.000000 -0.575028
O11   O     O_R   0.059850 0.465330 0.000000 -0.575100
O12   O     O_R   0.534670 0.059850 0.000000 -0.575067
O13   O     O_R   0.059850 0.534670 0.000000 -0.575099
O14   O     O_R   0.534670 0.940150 0.000000 -0.575030
O15   O     O_R   0.940150 0.465330 0.000000 -0.575071
O16   O     O_R   0.465330 0.059850 0.000000 -0.575065
O17   O     O_R   0.500000 0.034670 0.409850 -0.581500
O18   O     O_R   0.965330 0.500000 0.409850 -0.581511
O19   O     O_R   0.500000 0.965330 0.409850 -0.581525
O20   O     O_R   0.034670 0.500000 0.409850 -0.581482
O21   O     O_R   0.500000 0.034670 0.590150 -0.581492
O22   O     O_R   0.034670 0.500000 0.590150 -0.581484
O23   O     O_R   0.500000 0.965330 0.590150 -0.581532
O24   O     O_R   0.965330 0.500000 0.590150 -0.581508
O25   O     O_R   1.000000 0.534670 0.909850 -0.581500
O26   O     O_R   0.465330 1.000000 0.909850 -0.581478
O27   O     O_R   0.000000 0.465330 0.909850 -0.581537
O28   O     O_R   0.534670 1.000000 0.909850 -0.581529
O29   O     O_R   1.000000 0.534670 0.090150 -0.581537
O30   O     O_R   0.534670 1.000000 0.090150 -0.581483
O31   O     O_R   1.000000 0.465330 0.090150 -0.581499
O32   O     O_R   0.465330 1.000000 0.090150 -0.581523
O33   O     O_R   0.999970 0.940220 0.447740 -0.572102
O34   O     O_R   0.059780 0.999970 0.447740 -0.572106
O35   O     O_R   0.000030 0.059780 0.447740 -0.572102
O36   O     O_R   0.940220 0.000030 0.447740 -0.572103
O37   O     O_R   0.000030 0.940220 0.552260 -0.572101
O38   O     O_R   0.940220 0.999970 0.552260 -0.572105
O39   O     O_R   0.999970 0.059780 0.552260 -0.572103
O40   O     O_R   0.059780 0.000030 0.552260 -0.572104
O41   O     O_R   0.499970 0.440220 0.947740 -0.572102
O42   O     O_R   0.559780 0.499970 0.947740 -0.572103
O43   O     O_R   0.500030 0.559780 0.947740 -0.572100
O44   O     O_R   0.440220 0.500030 0.947740 -0.572105
O45   O     O_R   0.500030 0.440220 0.052260 -0.572102
O46   O     O_R   0.440220 0.499970 0.052260 -0.572105
O47   O     O_R   0.499970 0.559780 0.052260 -0.572100
O48   O     O_R   0.559780 0.500030 0.052260 -0.572103
Cl1   Cl    Cl    0.297446 0.962641 0.614197 -0.598245
Cl2   Cl    Cl    0.037780 0.297446 0.613895 -0.598337
Cl3   Cl    Cl    0.702553 0.037467 0.614120 -0.598290
Cl4   Cl    Cl    0.962172 0.702555 0.613860 -0.598311
Cl5   Cl    Cl    0.702554 0.962533 0.385880 -0.598256
Cl6   Cl    Cl    0.962220 0.297445 0.386105 -0.598309
Cl7   Cl    Cl    0.297446 0.037359 0.385803 -0.598279
Cl8   Cl    Cl    0.037828 0.702554 0.386140 -0.598338
Cl9   Cl    Cl    0.797446 0.462569 0.114146 -0.598267
Cl10  Cl    Cl    0.537943 0.797446 0.113776 -0.598332
Cl11  Cl    Cl    0.202554 0.536996 0.114455 -0.598211
Cl12  Cl    Cl    0.462593 0.202554 0.114163 -0.598273
Cl13  Cl    Cl    0.202554 0.463004 0.885545 -0.598212
Cl14  Cl    Cl    0.462057 0.797445 0.886224 -0.598337
Cl15  Cl    Cl    0.797446 0.537431 0.885854 -0.598265
Cl16  Cl    Cl    0.537407 0.202554 0.885837 -0.598268

loop_
_geom_bond_atom_site_label_1
_geom_bond_atom_site_label_2
_ccdc_geom_bond_type
C44   C49   S    
C132  C144  A    
C67   H19   S    
C63   O31   A    
Cu11  Cu12  S    
C4    C36   S    
C67   C83   A    
C16   C156  A    
C5    C37   S    
C80   C97   A    
C16   C160  A    
C8    O12   A    
Cu9   Cu10  S    
C122  H34   S    
C79   C98   A    
C160  Cl12  S    
C121  H33   S    
C125  C147  A    
Cu4   O22   S    
C150  Cl2   S    
C7    O13   A    
C126  C146  A    
C9    C25   S    
Cu8   O28   S    
C7    O11   A    
C125  C139  A    
Cu7   O15   S    
C85   H7    S    
C109  C119  A    
C132  C160  A    
C9    C145  A    
C12   C28   S    
Cu5   O29   S    
C89   H11   S    
C13   C29   S    
C87   C90   A    
C145  Cl7   S    
C94   H16   S    
Cu12  O48   S    
C15   C157  A    
Cu12  O47   S    
C86   C91   A    
C18   C42   T    
C136  C156  A    
C58   O20   A    
C43   C52   S    
C62   O26   A    
C87   H5    S    
C68   H20   S    
C61   O25   A    
Cu5   O9    S    
C95   H13   S    
C123  C139  A    
C2    O2    A    
Cu7   O31   S    
C30   C38   T    
C77   C100  A    
C111  C119  A    
C6    O10   A    
C121  C137  A    
C131  C157  A    
Cu9   O35   S    
C1    O1    A    
Cu12  O46   S    
C158  Cl10  S    
Cu1   Cu3   S    
C104  C116  A    
C63   C114  S    
C49   O37   A    
C134  C142  A    
C26   C34   T    
C73   C104  A    
C126  C138  A    
Cu2   O2    S    
C55   O47   A    
C73   H25   S    
C46   C55   S    
Cu4   O20   S    
C75   C102  A    
C6    C38   S    
Cu3   O23   S    
Cu10  O39   S    
C132  H44   S    
C3    C35   S    
C66   C111  A    
C80   C96   A    
C56   O46   A    
C3    O5    A    
C15   C155  A    
C58   O18   A    
C134  H46   S    
C75   C91   A    
C42   C51   S    
C84   C93   A    
C55   O43   A    
C123  C149  A    
C10   C26   S    
C101  C108  A    
C4    O8    A    
C6    O14   A    
C52   O38   A    
C100  C109  A    
Cu6   O10   S    
C64   O32   A    
C98   C111  A    
C124  H36   S    
Cu6   Cu8   S    
C105  C117  A    
Cu9   O36   S    
C23   C143  S    
C148  Cl8   S    
C14   C30   S    
Cu2   O18   S    
Cu3   O7    S    
C69   H21   S    
C104  C105  A    
C72   C88   A    
C69   C108  A    
C19   C43   T    
C64   O30   A    
C53   O41   A    
C21   C45   T    
Cu10  O37   S    
C8    O16   A    
C48   C53   S    
C82   C95   A    
Cu3   O3    S    
C133  C143  A    
C17   C41   T    
C60   O24   A    
C99   C113  A    
Cu4   O6    S    
C131  H43   S    
Cu8   O12   S    
C54   O42   A    
C74   H26   S    
Cu5   O13   S    
C60   C117  S    
C100  C114  A    
C122  C138  A    
C96   H14   S    
C126  H38   S    
C110  C120  A    
C156  Cl16  S    
C81   C96   A    
C125  H37   S    
C127  C137  A    
C151  Cl1   S    
C129  C141  A    
Cu2   O8    S    
C27   C35   T    
C59   O21   A    
C4    O4    A    
C83   C94   A    
C15   C31   S    
C11   C147  A    
C133  H45   S    
C85   C92   A    
C121  C151  A    
Cu1   O1    S    
C129  H41   S    
C68   C84   A    
C155  Cl13  S    
Cu11  O42   S    
C103  C115  A    
C65   C112  A    
C79   C95   A    
Cu12  O45   S    
C50   O34   A    
C69   C85   A    
C108  C118  A    
C66   C82   A    
Cu9   O33   S    
C49   O33   A    
Cu4   O4    S    
C67   C110  A    
C62   O28   A    
C11   C27   S    
C78   C99   A    
C70   H22   S    
C135  H47   S    
C84   H2    S    
C61   C116  S    
C86   H8    S    
C123  H35   S    
C102  C107  A    
Cu10  O38   S    
C147  Cl5   S    
C72   C105  A    
Cu11  O43   S    
C24   C48   T    
C149  Cl3   S    
C57   O19   A    
Cu11  O41   S    
C57   C120  S    
C71   C87   A    
C57   O17   A    
C93   H15   S    
C127  H39   S    
Cu6   O16   S    
C22   C46   T    
C18   C138  S    
C45   C54   S    
C20   C44   T    
C59   C118  S    
C79   H31   S    
C136  H48   S    
C83   H1    S    
C76   H28   S    
C101  C115  A    
C5    O9    A    
C154  Cl14  S    
C16   C32   S    
C51   O35   A    
C13   C153  A    
Cu2   O24   S    
C10   C146  A    
C122  C150  A    
C41   C50   S    
C11   C149  A    
C131  C143  A    
C2    O6    A    
C112  C120  A    
C82   H4    S    
C13   C159  A    
C76   C101  A    
C97   C112  A    
C51   O39   A    
C9    C151  A    
C3    O3    A    
C64   C113  S    
Cu5   O25   S    
C63   O29   A    
C133  C155  A    
Cu1   O21   S    
Cu9   O34   S    
C124  C140  A    
C128  C148  A    
C78   H30   S    
Cu3   O19   S    
C90   H12   S    
C146  Cl6   S    
C14   C154  A    
C77   H29   S    
C72   H24   S    
Cu10  O40   S    
C22   C142  S    
Cu7   O11   S    
C53   O45   A    
C78   C94   A    
C75   H27   S    
C153  Cl15  S    
C61   O27   A    
Cu6   O32   S    
Cu8   O30   S    
Cu8   O14   S    
C60   O22   A    
C135  C153  A    
C130  C158  A    
C70   C107  A    
C127  C145  A    
C56   O44   A    
C23   C47   T    
C91   H9    S    
C1    O7    A    
C128  C140  A    
C21   C141  S    
C62   C115  S    
C136  C144  A    
Cu2   Cu4   S    
C92   H10   S    
C12   C148  A    
C52   O36   A    
C76   C92   A    
C99   C110  A    
C2    C34   S    
C20   C140  S    
C80   H32   S    
C50   O40   A    
C24   C144  S    
Cu7   O27   S    
C74   C90   A    
C66   H18   S    
C77   C93   A    
C58   C119  S    
C31   C39   T    
C130  H42   S    
C103  C106  A    
C10   C150  A    
C68   C109  A    
C32   C40   T    
C102  C116  A    
C124  C152  A    
Cu11  O44   S    
C130  C142  A    
C54   O48   A    
C14   C158  A    
C65   H17   S    
C98   C114  A    
C1    C33   S    
Cu6   O26   S    
C73   C89   A    
C12   C152  A    
Cu1   O5    S    
C128  H40   S    
C129  C159  A    
C135  C141  A    
C59   O23   A    
Cu1   O17   S    
C88   C89   A    
C28   C36   T    
Cu5   Cu7   S    
C25   C33   T    
C5    O15   A    
C71   C106  A    
C29   C37   T    
C157  Cl11  S    
C7    C39   S    
C65   C81   A    
C74   C103  A    
C71   H23   S    
C17   C137  S    
C8    C40   S    
C159  Cl9   S    
C134  C154  A    
C97   C113  A    
C88   H6    S    
C107  C117  A    
C19   C139  S    
C106  C118  A    
C152  Cl4   S    
C81   H3    S    
C47   C56   S    
C70   C86   A    
