data_mof_unit_9776.cif
_audit_creation_date              2012-12-10T17:32:22-0500
_audit_creation_method            fapswitch 2.2
_symmetry_space_group_name_H-M    P1
_symmetry_Int_Tables_number       1
_space_group_crystal_system       triclinic
_cell_length_a                    15.509363
_cell_length_b                    15.463457
_cell_length_c                    15.678053
_cell_angle_alpha                 92.707503
_cell_angle_beta                  70.91031
_cell_angle_gamma                 111.177374
_cell_volume                      3302.5587985

loop_
_atom_site_label
_atom_site_type_symbol
_atom_type_description
_atom_site_fract_x
_atom_site_fract_y
_atom_site_fract_z
_atom_type_partial_charge
C1    C     C_R   0.463314 0.258559 0.462491 0.500290
C2    C     C_R   0.539522 0.490269 0.106763 0.271703
C3    C     C_R   0.620904 0.654821 0.126399 -0.177085
C4    C     C_R   0.536672 0.741843 0.534558 0.485243
C5    C     C_R   0.433371 0.424073 0.836196 0.003002
C6    C     C_R   0.470298 0.054894 0.330288 -0.131859
C7    C     C_R   0.453496 0.163399 0.444358 0.036497
C8    C     C_R   0.553070 0.866628 0.639237 -0.123270
C9    C     C_R   0.543688 0.949917 0.668477 0.069237
C10   C     C_R   0.523408 0.004700 0.615526 -0.113836
C11   C     C_R   0.516259 0.979015 0.529405 0.007593
C12   C     C_R   0.403833 0.294443 0.934579 -0.133834
C13   C     C_R   0.534459 0.897765 0.496614 0.021131
C14   C     C_R   0.492260 0.031336 0.474385 0.032895
C15   C     C_R   0.492718 0.004352 0.386166 0.051576
C16   C     C_R   0.756566 0.550630 0.462600 0.502606
C17   C     C_R   0.519691 0.929662 0.352662 -0.136410
C18   C     C_R   0.542216 0.878387 0.406206 -0.109037
C19   C     C_R   0.469848 0.110846 0.502885 -0.123674
C20   C     C_R   0.452140 0.134752 0.358853 -0.129985
C21   C     C_R   0.545542 0.838182 0.554825 -0.003142
C22   C     C_R   0.019718 0.606057 0.329983 -0.129443
C23   C     C_R   0.473003 0.352747 0.971530 0.326933
C24   C     C_R   0.859719 0.567013 0.443253 0.027137
C25   C     C_R   0.068596 0.364919 0.624283 -0.146809
C26   C     C_R   0.968542 0.344760 0.643973 0.275671
C27   C     C_R   0.937032 0.393143 0.595032 0.110079
C28   C     C_R   0.243220 0.447713 0.533928 0.501017
C29   C     C_R   0.005165 0.456928 0.519796 -0.017285
C30   C     C_R   0.104535 0.463053 0.490799 -0.008952
C31   C     C_R   0.978160 0.511201 0.469130 0.037128
C32   C     C_R   0.045868 0.556861 0.383779 0.049160
C33   C     C_R   0.138158 0.550813 0.351226 -0.133104
C34   C     C_R   0.500095 0.451075 0.961598 0.052078
C35   C     C_R   0.167114 0.504771 0.403636 -0.098811
C36   C     C_R   0.886795 0.522522 0.499844 -0.116664
C37   C     C_R   0.926200 0.608836 0.358555 -0.125342
C38   C     C_R   0.137639 0.424029 0.548327 -0.034101
C39   C     C_R   0.548027 0.545797 0.258872 0.516568
C40   C     C_R   0.447773 0.450987 0.742272 0.506219
C41   C     C_R   0.629340 0.679522 0.039991 -0.151991
C42   C     C_R   0.571071 0.562698 0.162030 0.024042
C43   C     C_R   0.384304 0.329911 0.866793 -0.186912
C44   C     C_3   0.891738 0.190243 0.694848 -0.003178
C45   C     C_R   0.482822 0.486516 0.888959 -0.023565
C46   C     C_3   0.825624 0.153057 0.636439 -0.259631
C47   C     C_3   0.806578 0.050355 0.622499 -0.472507
C48   C     C_3   0.530033 0.352709 0.178635 0.073983
C49   C     C_3   0.643269 0.383621 0.134983 -0.264574
C50   C     C_3   0.682295 0.324928 0.176732 -0.470822
C51   C     C_3   0.589259 0.285728 0.932849 -0.012077
C52   C     C_3   0.596036 0.197403 0.965131 -0.272424
C53   C     C_3   0.669576 0.166824 0.891902 -0.466720
C54   C     C_R   0.544575 0.515771 0.018099 0.050617
C55   C     C_R   0.585164 0.612690 0.989007 -0.001628
C56   C     C_R   0.572533 0.644368 0.914125 -0.134275
C57   C     C_R   0.516298 0.583105 0.869278 -0.110481
F1    F     F_    0.550675 0.976210 0.750484 -0.194538
F2    F     F_    0.838729 0.368149 0.616617 -0.183850
H1    H     H_    0.648277 0.708931 0.167883 0.115995
H2    H     H_    0.070457 0.639416 0.264201 0.108074
H3    H     H_    0.599175 0.718227 0.894786 0.110793
H4    H     H_    0.834185 0.496160 0.566177 0.139942
H5    H     H_    0.091871 0.333146 0.668405 0.145505
H6    H     H_    0.237805 0.499003 0.372536 0.156175
H7    H     H_    0.662830 0.752646 0.016220 0.117336
H8    H     H_    0.341527 0.281353 0.830538 0.147905
H9    H     H_    0.377258 0.219704 0.948365 0.126969
H10   H     H_    0.497916 0.613147 0.820003 0.145365
H11   H     H_    0.441399 0.176669 0.312711 0.089301
H12   H     H_    0.524523 0.911303 0.284090 0.104537
H13   H     H_    0.857584 0.145939 0.759655 0.149148
H14   H     H_    0.964182 0.183417 0.661501 0.120655
H15   H     H_    0.754453 0.161909 0.669590 0.184816
H16   H     H_    0.861261 0.193007 0.569119 0.165370
H17   H     H_    0.876896 0.039735 0.590043 0.147437
H18   H     H_    0.761298 0.026494 0.577728 0.163116
H19   H     H_    0.766579 0.007933 0.688423 0.158297
H20   H     H_    0.498338 0.278107 0.167199 0.167529
H21   H     H_    0.506623 0.351461 0.253323 0.156062
H22   H     H_    0.664215 0.376758 0.061346 0.180699
H23   H     H_    0.471070 0.034937 0.262898 0.102618
H24   H     H_    0.681805 0.457472 0.143610 0.169271
H25   H     H_    0.644790 0.249713 0.171237 0.132239
H26   H     H_    0.762163 0.344337 0.140770 0.145453
H27   H     H_    0.670683 0.337583 0.249164 0.199190
H28   H     H_    0.662655 0.342519 0.913231 0.145727
H29   H     H_    0.568007 0.271178 0.870624 0.130344
H30   H     H_    0.618828 0.209831 0.026125 0.162539
H31   H     H_    0.522676 0.140643 0.983720 0.169585
H32   H     H_    0.647369 0.152259 0.830600 0.166288
H33   H     H_    0.672473 0.102449 0.917280 0.140756
H34   H     H_    0.470701 0.137378 0.567505 0.098747
H35   H     H_    0.743727 0.222030 0.873920 0.194297
H36   H     H_    0.562763 0.822679 0.684360 0.136847
H37   H     H_    0.514917 0.067143 0.643700 0.109082
H38   H     H_    0.567821 0.824511 0.374742 0.138731
H39   H     H_    0.904646 0.641611 0.313646 0.110007
H40   H     H_    0.188701 0.582286 0.284733 0.111080
O1    O     O_3   0.500000 0.500000 0.500000 -0.432560
O2    O     O_R   0.588830 0.499590 0.285390 -0.576538
O3    O     O_R   0.395900 0.395880 0.699370 -0.546502
O4    O     O_R   0.493280 0.582590 0.315890 -0.541163
O5    O     O_R   0.521980 0.521940 0.699340 -0.544601
O6    O     O_3   0.900110 0.282382 0.716167 -0.572359
O7    O     O_3   0.482091 0.399845 0.145020 -0.552824
O8    O     O_3   0.523087 0.312989 0.004914 -0.564615
O9    O     O_R   0.708210 0.582550 0.530770 -0.534498
O10   O     O_R   0.270260 0.395900 0.573760 -0.550096
O11   O     O_R   0.537060 0.322180 0.411040 -0.564353
O12   O     O_R   0.484470 0.699370 0.484430 -0.541426
O13   O     O_R   0.404710 0.279110 0.530840 -0.538154
O14   O     O_R   0.573760 0.699350 0.573690 -0.553120
O15   O     O_R   0.714470 0.499570 0.411000 -0.541934
O16   O     O_R   0.307050 0.521980 0.484470 -0.538542
Zn1   Zn    Zn3+2 0.574690 0.574670 0.574650 0.931486
Zn2   Zn    Zn3+2 0.583640 0.456100 0.403530 0.905856
Zn3   Zn    Zn3+2 0.447120 0.574690 0.447120 0.929103
Zn4   Zn    Zn3+2 0.394550 0.394550 0.574700 0.932425

loop_
_geom_bond_atom_site_label_1
_geom_bond_atom_site_label_2
_ccdc_geom_bond_type
C55   C56   A    
C3    C42   A    
C6    H23   S    
C27   C29   A    
C52   H31   S    
O1    Zn1   S    
C50   H25   S    
C44   O6    S    
C12   H9    S    
C12   C23   A    
C45   C57   A    
C26   C27   A    
C24   C36   A    
C22   C32   A    
C13   C18   A    
O12   Zn3   S    
C48   H20   S    
C47   H17   S    
C12   C43   A    
C31   C36   A    
C1    O13   A    
C1    O11   A    
C11   C14   A    
C35   H6    S    
C56   C57   A    
C30   C38   A    
C9    F1    S    
C46   C47   S    
C49   H22   S    
C46   H16   S    
C50   H26   S    
C6    C15   A    
O5    Zn1   S    
C41   C55   A    
C8    C9    A    
C53   H32   S    
C18   H38   S    
C10   H37   S    
C36   H4    S    
C9    C10   A    
C19   H34   S    
O14   Zn1   S    
C3    H1    S    
O16   Zn3   S    
C5    C43   A    
C16   C24   S    
C20   H11   S    
C52   H30   S    
C8    H36   S    
O11   Zn2   S    
C37   H39   S    
C44   C46   S    
C39   O2    A    
C39   C42   S    
C48   O7    S    
C51   C52   S    
C4    O14   A    
C24   C37   A    
C2    C54   A    
C51   H28   S    
O1    Zn4   S    
C16   O9    A    
C25   C26   A    
C22   C37   A    
C5    C45   A    
C2    O7    S    
C16   O15   A    
C33   H40   S    
C25   H5    S    
C29   C30   A    
C28   O16   A    
C25   C38   A    
C40   O5    A    
C31   C32   A    
C28   C38   S    
C23   C34   A    
C23   O8    S    
C53   H33   S    
C17   C18   A    
C13   C21   A    
C34   C45   A    
C7    C20   A    
C30   C35   A    
C43   H8    S    
C48   C49   S    
C4    O12   A    
C17   H12   S    
C7    C19   A    
C56   H3    S    
O4    Zn3   S    
O1    Zn3   S    
C47   H18   S    
C46   H15   S    
C52   C53   S    
O10   Zn4   S    
C15   C17   A    
C54   C55   A    
C3    C41   A    
C53   H35   S    
C1    C7    S    
C14   C19   A    
C8    C21   A    
C51   H29   S    
O13   Zn4   S    
C39   O4    A    
C41   H7    S    
C28   O10   A    
C6    C20   A    
C26   O6    S    
O2    Zn2   S    
C32   C33   A    
C49   H24   S    
C29   C31   A    
C27   F2    S    
C48   H21   S    
C22   H2    S    
C4    C21   S    
C11   C13   A    
C34   C54   A    
O9    Zn1   S    
C2    C42   A    
C33   C35   A    
C44   H13   S    
C44   H14   S    
O15   Zn2   S    
C10   C11   A    
C50   H27   S    
C40   O3    A    
C51   O8    S    
C49   C50   S    
C5    C40   S    
C14   C15   A    
O1    Zn2   S    
C47   H19   S    
C57   H10   S    
O3    Zn4   S    
