data_mof_unit_12553.cif
_audit_creation_date              2013-03-05T16:00:48-0500
_audit_creation_method            fapswitch 2.2
_symmetry_space_group_name_H-M    P1
_symmetry_Int_Tables_number       1
_space_group_crystal_system       triclinic
_cell_length_a                    20.995571
_cell_length_b                    21.21313
_cell_length_c                    14.000413
_cell_angle_alpha                 89.974633
_cell_angle_beta                  89.958225
_cell_angle_gamma                 89.828005
_cell_volume                      6235.4984638

loop_
_atom_site_label
_atom_site_type_symbol
_atom_site_description
_atom_site_fract_x
_atom_site_fract_y
_atom_site_fract_z
_atom_type_partial_charge
O1    O     O_R   0.066090 0.433930 0.580280 -0.633904
O2    O     O_R   0.933910 0.566070 0.419720 -0.610472
O3    O     O_R   0.933910 0.566070 0.580280 -0.632941
O4    O     O_R   0.066090 0.433930 0.419720 -0.605262
O5    O     O_R   0.933910 0.433930 0.419720 -0.622648
O6    O     O_R   0.066090 0.566070 0.580280 -0.621515
O7    O     O_R   0.066090 0.566070 0.419720 -0.623943
O8    O     O_R   0.933910 0.433930 0.580280 -0.620908
O9    O     O_R   0.566090 0.933930 0.580280 -0.594105
O10   O     O_R   0.433910 0.066070 0.419720 -0.637335
O11   O     O_R   0.433910 0.066070 0.580280 -0.595469
O12   O     O_R   0.566090 0.933930 0.419720 -0.637373
O13   O     O_R   0.433910 0.933930 0.419720 -0.617799
O14   O     O_R   0.566090 0.066070 0.580280 -0.624215
O15   O     O_R   0.566090 0.066070 0.419720 -0.620274
O16   O     O_R   0.433910 0.933930 0.580280 -0.625039
C1    C     C_R   0.087585 0.413811 0.499572 0.902832
C2    C     C_R   0.912808 0.586737 0.499601 0.898486
C3    C     C_R   0.912405 0.414636 0.499909 0.881936
C4    C     C_R   0.087570 0.585405 0.499833 0.881019
C5    C     C_R   0.588650 0.914492 0.499996 0.891023
C6    C     C_R   0.411617 0.085591 0.499990 0.893077
C7    C     C_R   0.412349 0.914550 0.499996 0.881371
C8    C     C_R   0.587808 0.085258 0.499933 0.880847
Zn1   Zn    Zn3+2 0.000000 0.500000 0.607200 0.938509
Zn2   Zn    Zn3+2 1.000000 0.500000 0.392800 0.947825
Zn3   Zn    Zn3+2 0.500000 0.000000 0.607200 0.954986
Zn4   Zn    Zn3+2 0.500000 0.000000 0.392800 0.937913
C9    C     C_R   0.120812 0.690025 0.539202 -0.269074
C10   C     C_R   0.879231 0.310068 0.539612 -0.269180
C11   C     C_R   0.873504 0.685347 0.567528 -0.303779
C12   C     C_R   0.128808 0.316377 0.566343 -0.304876
C13   C     C_R   0.626771 0.185171 0.448104 -0.270749
C14   C     C_R   0.373852 0.814256 0.448482 -0.264750
C15   C     C_R   0.346435 0.160175 0.412990 -0.298271
C16   C     C_R   0.656134 0.841331 0.412780 -0.300953
C17   C     C_R   0.135564 0.632717 0.498437 -0.118114
C18   C     C_R   0.864418 0.367348 0.498790 -0.114593
C19   C     C_R   0.869907 0.640003 0.496068 -0.083472
C20   C     C_R   0.132350 0.362274 0.496135 -0.095034
C21   C     C_R   0.637971 0.130596 0.498607 -0.094397
C22   C     C_R   0.362422 0.868949 0.498758 -0.119394
C23   C     C_R   0.356681 0.127029 0.497316 -0.091450
C24   C     C_R   0.644316 0.873546 0.497604 -0.090480
C25   C     C_R   0.193239 0.621637 0.451882 0.065121
C26   C     C_R   0.806588 0.378463 0.452782 0.064211
C27   C     C_R   0.831891 0.649135 0.415056 0.067494
C28   C     C_R   0.172347 0.355583 0.416700 0.085992
C29   C     C_R   0.696750 0.117595 0.541099 0.047675
C30   C     C_R   0.303454 0.881863 0.540757 0.069797
C31   C     C_R   0.312181 0.129114 0.572107 0.052762
C32   C     C_R   0.687957 0.870990 0.573672 0.054790
C33   C     C_R   0.236963 0.671410 0.442594 0.095244
C34   C     C_R   0.762933 0.328599 0.443635 0.095305
C35   C     C_R   0.800543 0.707111 0.402965 0.024233
C36   C     C_R   0.206795 0.299111 0.404565 0.059039
C37   C     C_R   0.745632 0.163111 0.535853 0.063306
C38   C     C_R   0.254614 0.836487 0.534623 0.094557
C39   C     C_R   0.256157 0.165060 0.559903 0.029472
C40   C     C_R   0.744871 0.836152 0.562085 0.025949
C41   C     C_R   0.222736 0.730120 0.487811 -0.061909
C42   C     C_R   0.777174 0.269939 0.489118 -0.060611
C43   C     C_R   0.796683 0.748527 0.481919 -0.030746
C44   C     C_R   0.207662 0.255279 0.481345 -0.043974
C45   C     C_R   0.732122 0.221447 0.488439 -0.043933
C46   C     C_R   0.268024 0.778317 0.487289 -0.061600
C47   C     C_R   0.252082 0.206304 0.480503 -0.026203
C48   C     C_R   0.750813 0.796243 0.481552 -0.026637
C49   C     C_R   0.163562 0.739881 0.535250 0.087226
C50   C     C_R   0.836183 0.260494 0.536859 0.065798
C51   C     C_R   0.835011 0.739045 0.564118 0.080440
C52   C     C_R   0.167721 0.263281 0.562499 0.081429
C53   C     C_R   0.672978 0.231479 0.441172 0.080133
C54   C     C_R   0.327478 0.768062 0.440913 0.081729
C55   C     C_R   0.295027 0.200764 0.403096 0.086096
C56   C     C_R   0.707766 0.800757 0.403928 0.072891
C57   C     C_R   0.293695 0.664100 0.388722 0.068479
C58   C     C_R   0.706392 0.335701 0.389401 0.067409
C59   C     C_R   0.769680 0.723048 0.316511 0.044722
C60   C     C_R   0.241147 0.285773 0.319619 0.031872
C61   C     C_R   0.807062 0.152771 0.576475 0.053702
C62   C     C_R   0.193489 0.847516 0.574910 0.061858
C63   C     C_R   0.205948 0.163845 0.627270 0.041557
C64   C     C_R   0.794262 0.837022 0.631004 0.042553
C65   C     C_R   0.851613 0.201858 0.579467 0.163758
C66   C     C_R   0.147838 0.798934 0.576773 0.122932
C67   C     C_R   0.166347 0.217248 0.636235 0.146147
C68   C     C_R   0.834770 0.784034 0.639238 0.143379
C69   C     C_R   0.339674 0.712217 0.388216 0.118356
C70   C     C_R   0.660823 0.287237 0.388162 0.117127
C71   C     C_R   0.717681 0.765015 0.319355 0.143850
C72   C     C_R   0.286461 0.236616 0.318574 0.134437
H1    H     H_    0.074670 0.694407 0.572723 0.161600
H2    H     H_    0.925686 0.305379 0.572001 0.159942
H3    H     H_    0.906391 0.677473 0.625617 0.180185
H4    H     H_    0.094685 0.322897 0.623257 0.180941
H5    H     H_    0.580188 0.190766 0.416480 0.164094
H6    H     H_    0.420620 0.808534 0.417446 0.163837
H7    H     H_    0.381451 0.156151 0.356939 0.183746
H8    H     H_    0.622694 0.846693 0.354903 0.186422
C73   C     C_R   0.943395 0.500601 0.798157 -0.059005
C74   C     C_R   0.056587 0.500082 0.201821 -0.058523
C75   C     C_R   0.056606 0.499400 0.798033 -0.059001
C76   C     C_R   0.943414 0.499899 0.201942 -0.062290
C77   C     C_R   0.443572 0.004404 0.798197 -0.050015
C78   C     C_R   0.556392 0.995008 0.201850 -0.063624
C79   C     C_R   0.556417 0.995784 0.798103 -0.049189
C80   C     C_R   0.443605 0.005224 0.201991 -0.058829
N1    N     N_R   1.000000 0.500000 0.750030 -0.104161
N2    N     N_R   1.000000 0.500000 0.249970 -0.101911
N3    N     N_R   0.500000 1.000000 0.750030 -0.102343
N4    N     N_R   0.500000 0.000000 0.249970 -0.103209
C81   C     C_R   0.057982 0.499458 0.898720 0.014722
C82   C     C_R   0.942029 0.500227 0.101279 0.015484
C83   C     C_R   0.942021 0.500547 0.898846 0.013870
C84   C     C_R   0.057974 0.499771 0.101154 0.016946
C85   C     C_R   0.557770 0.995397 0.898762 0.014488
C86   C     C_R   0.442226 0.005391 0.101314 0.016707
C87   C     C_R   0.442208 0.004981 0.898877 0.014637
C88   C     C_R   0.557760 0.995040 0.101175 0.014972
C89   C     C_R   0.000002 0.500006 0.949376 0.083949
C90   C     C_R   0.000002 0.500005 0.050615 0.084959
C91   C     C_R   0.499987 0.000195 0.949422 0.083661
C92   C     C_R   0.499989 0.000210 0.050656 0.086307
C93   C     C_R   0.115637 0.499010 0.949713 -0.206692
C94   C     C_R   0.884369 0.500737 0.050330 -0.207018
C95   C     C_R   0.884366 0.500986 0.949964 -0.205404
C96   C     C_R   0.115635 0.499251 0.050080 -0.207835
C97   C     C_R   0.615228 0.990371 0.949703 -0.206056
C98   C     C_R   0.384784 0.010529 0.050331 -0.214132
C99   C     C_R   0.384763 0.010204 0.949958 -0.205867
C100  C     C_R   0.615212 0.990084 0.050065 -0.209770
H9    H     H_    0.899391 0.501070 0.757882 0.135234
H10   H     H_    0.100559 0.500416 0.242019 0.126449
H11   H     H_    0.100610 0.498925 0.757663 0.134958
H12   H     H_    0.899443 0.499509 0.242236 0.126119
H13   H     H_    0.399709 0.007466 0.758019 0.131047
H14   H     H_    0.600237 0.991074 0.242114 0.134018
H15   H     H_    0.600279 0.992775 0.757865 0.129506
H16   H     H_    0.399766 0.009195 0.242358 0.134450
H17   H     H_    0.160710 0.498545 0.912003 0.141169
H18   H     H_    0.839305 0.501012 0.088082 0.143039
H19   H     H_    0.839294 0.501442 0.912351 0.142356
H20   H     H_    0.160700 0.498959 0.087736 0.140343
H21   H     H_    0.660137 0.986555 0.911945 0.140361
H22   H     H_    0.339896 0.014698 0.088052 0.145067
H23   H     H_    0.339859 0.014105 0.912301 0.142388
H24   H     H_    0.660114 0.986047 0.087680 0.139486
N5    N     N_3   0.208458 0.559044 0.419355 -0.436562
H25   H     H_    0.203256 0.527349 0.476057 0.175270
H26   H     H_    0.177350 0.546587 0.364393 0.208209
N6    N     N_3   0.791256 0.441088 0.420398 -0.432886
H27   H     H_    0.796444 0.472704 0.477146 0.176721
H28   H     H_    0.822336 0.453721 0.365401 0.207824
N7    N     N_3   0.817731 0.595687 0.355295 -0.468306
H29   H     H_    0.769104 0.594693 0.339290 0.205795
H30   H     H_    0.844417 0.597379 0.292538 0.198164
N8    N     N_3   0.181307 0.409214 0.355249 -0.470678
H31   H     H_    0.229910 0.417654 0.345451 0.193206
H32   H     H_    0.158111 0.401951 0.290249 0.220630
N9    N     N_3   0.705928 0.058408 0.588970 -0.504077
H33   H     H_    0.675394 0.056072 0.647790 0.198681
H34   H     H_    0.695776 0.021600 0.541748 0.173260
N10   N     N_3   0.293663 0.940887 0.589005 -0.445377
H35   H     H_    0.324033 0.943200 0.647955 0.193680
H36   H     H_    0.303867 0.977846 0.542014 0.172290
N11   N     N_3   0.328805 0.102362 0.663239 -0.443032
H37   H     H_    0.317655 0.133981 0.718071 0.207904
H38   H     H_    0.305312 0.059743 0.673700 0.180538
N12   N     N_3   0.669819 0.896419 0.665001 -0.440787
H39   H     H_    0.681087 0.864503 0.719399 0.208863
H40   H     H_    0.692257 0.939442 0.676773 0.176630
N13   N     N_3   0.303561 0.608158 0.332603 -0.442151
H41   H     H_    0.346206 0.586328 0.352571 0.199359
H42   H     H_    0.304404 0.620033 0.260157 0.172710
N14   N     N_3   0.696363 0.391745 0.333536 -0.439461
H43   H     H_    0.653297 0.412997 0.352942 0.200066
H44   H     H_    0.696274 0.380148 0.260992 0.173389
N15   N     N_3   0.793273 0.699847 0.226255 -0.464849
H45   H     H_    0.794267 0.737604 0.178303 0.167961
H46   H     H_    0.842024 0.690985 0.232940 0.178978
N16   N     N_3   0.227320 0.320163 0.233733 -0.490362
H47   H     H_    0.267618 0.345444 0.212664 0.171286
H48   H     H_    0.213676 0.288728 0.180061 0.202506
N17   N     N_3   0.826951 0.092386 0.612504 -0.475291
H49   H     H_    0.802081 0.081539 0.675023 0.203888
H50   H     H_    0.821802 0.057891 0.559791 0.208698
N18   N     N_3   0.177532 0.908767 0.611907 -0.443305
H51   H     H_    0.170555 0.905840 0.685696 0.178199
H52   H     H_    0.136586 0.925842 0.578095 0.192285
N19   N     N_3   0.192584 0.107325 0.680972 -0.469791
H53   H     H_    0.143233 0.101269 0.683488 0.166466
H54   H     H_    0.205274 0.068591 0.638897 0.187612
N20   N     N_3   0.805872 0.892799 0.687231 -0.470088
H55   H     H_    0.855045 0.899823 0.690959 0.167362
H56   H     H_    0.792844 0.932020 0.646440 0.175985
C101  C     C_3   0.915548 0.190430 0.629269 -0.393004
C102  C     C_3   0.968146 0.175597 0.557122 -0.866044
H57   H     H_    0.955925 0.132418 0.516284 0.268641
H58   H     H_    0.974935 0.215157 0.506292 0.259672
H59   H     H_    0.013721 0.167232 0.595316 0.239071
H60   H     H_    0.928945 0.230922 0.675068 0.183808
H61   H     H_    0.913118 0.150721 0.680744 0.222782
C103  C     C_3   0.082499 0.810794 0.622502 -0.427098
C104  C     C_3   0.031101 0.821834 0.546915 -0.872843
H62   H     H_    0.984443 0.829775 0.582408 0.243390
H63   H     H_    0.042830 0.864173 0.503743 0.258872
H64   H     H_    0.026549 0.780797 0.498366 0.264024
H65   H     H_    0.069080 0.771539 0.670779 0.196294
H66   H     H_    0.082105 0.852076 0.670718 0.198219
C105  C     C_3   0.126575 0.226223 0.726820 -0.418706
C106  C     C_3   0.156049 0.275823 0.792485 -0.848358
H67   H     H_    0.204346 0.260388 0.815131 0.261020
H68   H     H_    0.160008 0.322328 0.756857 0.259440
H69   H     H_    0.125943 0.281542 0.857171 0.246937
H70   H     H_    0.076607 0.238625 0.708921 0.192457
H71   H     H_    0.123151 0.182702 0.770114 0.218872
C107  C     C_3   0.873952 0.774337 0.730060 -0.418245
C108  C     C_3   0.843963 0.724316 0.794558 -0.846193
H72   H     H_    0.795688 0.739835 0.817264 0.261471
H73   H     H_    0.839819 0.678195 0.757910 0.259585
H74   H     H_    0.873824 0.717797 0.859269 0.245712
H75   H     H_    0.923966 0.761873 0.712379 0.192089
H76   H     H_    0.877340 0.817551 0.773971 0.217438
C109  C     C_3   0.401830 0.702754 0.332675 -0.420789
C110  C     C_3   0.454681 0.677564 0.397448 -0.870150
H77   H     H_    0.465759 0.711401 0.455448 0.260614
H78   H     H_    0.440223 0.632067 0.430011 0.258578
H79   H     H_    0.498478 0.669482 0.354722 0.251642
H80   H     H_    0.396351 0.669608 0.272235 0.198522
H81   H     H_    0.416965 0.746833 0.296678 0.202573
C111  C     C_3   0.599343 0.295844 0.330720 -0.421038
C112  C     C_3   0.544949 0.319922 0.393701 -0.868767
H82   H     H_    0.535881 0.287586 0.454463 0.260849
H83   H     H_    0.556601 0.367240 0.422546 0.257376
H84   H     H_    0.500728 0.323754 0.350597 0.245586
H85   H     H_    0.605092 0.329157 0.270492 0.198065
H86   H     H_    0.585657 0.251491 0.294246 0.201340
C113  C     C_3   0.671750 0.768220 0.234771 -0.402050
C114  C     C_3   0.611161 0.730636 0.254897 -0.866126
H87   H     H_    0.623182 0.680039 0.265080 0.262774
H88   H     H_    0.586269 0.747853 0.319723 0.258286
H89   H     H_    0.578118 0.734914 0.193328 0.248882
H90   H     H_    0.660279 0.817869 0.216352 0.189546
H91   H     H_    0.692277 0.748274 0.168497 0.218415
C115  C     C_3   0.325061 0.222823 0.227956 -0.417741
C116  C     C_3   0.305435 0.160280 0.182523 -0.867120
H92   H     H_    0.313460 0.120083 0.231797 0.258598
H93   H     H_    0.254240 0.161866 0.162693 0.258540
H94   H     H_    0.333972 0.152022 0.116862 0.252418
H95   H     H_    0.319527 0.259508 0.172445 0.201953
H96   H     H_    0.376889 0.223251 0.243156 0.194655

loop_
_geom_bond_atom_site_label_1
_geom_bond_atom_site_label_2
_geom_bond_distance
_ccdc_geom_bond_type
C50   C65   1.416040 A    
C26   N6    1.439163 S    
C94   C95   1.405174 A    
C83   C89   1.408438 A    
O5    Zn2   2.010540 S    
N7    H30   1.042388 S    
N20   H56   1.044827 S    
C113  C114  1.529264 S    
C14   C22   1.377657 A    
C28   C36   1.407790 A    
C71   C113  1.529103 S    
C23   C31   1.403452 A    
C87   C91   1.408252 A    
N19   H54   1.045000 S    
N9    H33   1.044502 S    
O15   Zn4   2.011149 S    
C101  H61   1.109588 S    
C29   C37   1.413063 A    
C107  H75   1.109885 S    
C12   C52   1.390507 A    
C78   N4    1.365673 A    
N13   H41   1.045008 S    
C58   C70   1.406594 A    
C69   C109  1.531354 S    
C42   C50   1.421776 A    
C35   C59   1.413749 A    
C109  H81   1.109231 S    
O7    Zn2   2.011149 S    
C84   C90   1.408330 A    
O12   Zn4   2.005103 S    
C58   N14   1.437843 S    
C13   C53   1.386040 A    
C54   C69   1.418442 A    
C63   N19   1.443060 S    
N10   H35   1.044572 S    
C75   C81   1.409978 A    
C39   C63   1.414289 A    
C53   C70   1.418675 A    
C38   C62   1.420246 A    
C82   C94   1.405599 A    
N17   H50   1.045398 S    
O6    Zn1   2.010537 S    
C98   H22   1.083406 S    
N12   H39   1.045566 S    
O10   Zn4   2.004956 S    
C46   C54   1.422803 A    
C83   C95   1.405785 A    
O13   C7    1.279465 A    
O3    C2    1.289757 A    
N18   H52   1.045427 S    
O14   C8    1.280215 A    
C75   H11   1.082730 S    
N16   H47   1.045314 S    
C114  H87   1.110990 S    
C16   C56   1.387654 A    
N9    H34   1.045879 S    
C43   C48   1.395069 A    
C33   C41   1.428028 A    
C41   C46   1.398332 A    
C38   C46   1.428115 A    
N17   H49   1.044802 S    
C105  C106  1.529955 S    
C64   N20   1.442881 S    
C35   C43   1.414445 A    
C103  H65   1.109176 S    
C93   C96   1.405190 A    
C87   C99   1.405828 A    
C36   C44   1.421062 A    
O13   Zn4   2.010540 S    
C99   H23   1.083451 S    
C113  H90   1.109978 S    
C60   N16   1.435544 S    
O14   Zn3   2.010537 S    
C116  H94   1.110604 S    
C15   C23   1.390394 A    
C112  H82   1.109253 S    
Zn2   N2    1.999680 S    
C59   C71   1.407187 A    
Zn1   N1    1.999679 S    
C97   C100  1.405109 A    
C39   C47   1.416811 A    
C24   C32   1.406317 A    
O16   Zn3   2.011152 S    
C11   C51   1.395516 A    
C105  H70   1.109644 S    
C77   N3    1.365774 A    
C27   C35   1.403390 A    
Zn3   N3    1.999679 S    
N8    H32   1.044178 S    
C8    C21   1.428487 S    
N5    H26   1.044253 S    
C70   C111  1.531748 S    
C79   N3    1.365467 A    
C15   H7    1.078162 S    
C21   C29   1.397091 A    
C10   C50   1.389278 A    
C9    C49   1.390227 A    
C115  H95   1.105514 S    
C116  H93   1.110761 S    
C105  H71   1.106689 S    
C79   C85   1.409595 A    
O8    C3    1.280538 A    
C10   C18   1.377378 A    
C93   H17   1.083318 S    
C30   N10   1.437096 S    
N19   H53   1.045037 S    
C100  H24   1.083350 S    
C44   C47   1.394078 A    
C80   C86   1.409844 A    
C91   C92   1.417319 A    
C74   C84   1.409676 A    
N11   H38   1.041433 S    
C45   C53   1.422903 A    
C32   N12   1.438608 S    
N11   H37   1.045590 S    
C61   N17   1.437419 S    
C72   C115  1.532768 S    
C115  H96   1.108986 S    
C34   C42   1.428527 A    
C104  H62   1.110554 S    
C19   C27   1.400432 A    
C28   N8    1.438762 S    
O12   C5    1.287135 A    
C94   H18   1.083431 S    
C114  H89   1.110411 S    
O10   C6    1.285297 A    
C51   C68   1.420478 A    
C62   N18   1.437545 S    
N18   H51   1.045156 S    
C1    C20   1.440381 S    
C30   C38   1.411216 A    
C60   C72   1.409517 A    
C33   C57   1.417522 A    
C2    C19   1.443755 S    
C74   H10   1.081618 S    
C86   C98   1.405802 A    
C3    C18   1.423974 S    
C108  H73   1.108622 S    
C5    C24   1.454451 S    
C112  H83   1.110165 S    
C31   N11   1.438948 S    
C7    C22   1.428654 S    
C6    C23   1.448578 S    
C106  H69   1.110509 S    
O11   Zn3   2.005103 S    
C63   C67   1.408798 A    
C15   C55   1.385668 A    
C26   C34   1.407644 A    
C102  H59   1.110263 S    
C114  H88   1.108459 S    
C109  C110  1.528616 S    
C81   C89   1.408417 A    
C101  H60   1.109174 S    
C16   H8    1.078306 S    
C95   H19   1.083324 S    
C106  H67   1.111016 S    
C96   H20   1.083455 S    
C89   C90   1.417385 A    
C102  H57   1.110772 S    
N13   H42   1.045135 S    
C55   C72   1.417658 A    
C22   C30   1.396647 A    
C76   C82   1.409661 A    
O4    C1    1.278607 A    
C65   C101  1.531707 S    
N14   H43   1.044957 S    
C12   H4    1.079805 S    
C14   C54   1.387585 A    
C110  H77   1.109262 S    
O16   C7    1.280467 A    
C110  H78   1.110237 S    
C12   C20   1.385318 A    
C111  H86   1.109418 S    
C111  H85   1.106719 S    
C73   C83   1.409970 A    
C59   N15   1.443087 S    
C76   N2    1.365568 A    
C16   C24   1.392191 A    
C31   C39   1.410323 A    
C17   C25   1.394156 A    
C86   C92   1.408511 A    
C66   C103  1.533583 S    
C108  H72   1.111009 S    
C52   C67   1.421033 A    
C85   C97   1.405607 A    
O9    Zn3   2.004956 S    
C80   H16   1.082807 S    
N6    H28   1.044324 S    
C104  H64   1.109075 S    
C41   C49   1.422985 A    
C20   C28   1.400074 A    
C115  C116  1.529380 S    
O15   C8    1.279469 A    
C57   N13   1.437909 S    
C76   H12   1.081625 S    
C42   C45   1.399561 A    
C78   C88   1.409765 A    
C88   C100  1.405751 A    
C57   C69   1.407023 A    
C67   C105  1.529587 S    
C29   N9    1.435519 S    
C64   C68   1.412222 A    
C37   C61   1.426300 A    
C37   C45   1.431762 A    
O2    C2    1.279766 A    
O2    Zn2   2.004956 S    
O4    Zn2   2.005103 S    
C116  H92   1.109142 S    
O1    Zn1   2.004956 S    
C107  H76   1.106483 S    
O5    C3    1.277398 A    
C73   H9    1.082731 S    
C48   C56   1.417008 A    
C110  H79   1.109561 S    
O6    C4    1.280675 A    
O11   C6    1.285822 A    
O1    C1    1.288843 A    
C109  H80   1.106721 S    
C36   C60   1.418615 A    
C75   N1    1.365791 A    
C113  H91   1.106515 S    
C13   C21   1.376011 A    
C77   H13   1.081254 S    
N10   H36   1.045836 S    
C98   C99   1.405284 A    
C85   C91   1.408291 A    
C10   H2    1.080201 S    
C62   C66   1.409725 A    
N5    H25   1.045957 S    
O8    Zn1   2.011152 S    
C108  H74   1.110499 S    
C9    H1    1.079933 S    
C4    C17   1.424444 S    
C40   C64   1.417161 A    
O9    C5    1.286942 A    
C107  C108  1.529737 S    
N8    H31   1.045498 S    
N12   H40   1.041578 S    
C74   N2    1.365577 A    
C11   H3    1.079839 S    
C81   C93   1.405811 A    
N14   H44   1.045119 S    
C111  C112  1.529070 S    
C14   H6    1.080017 S    
C34   C58   1.417256 A    
C68   C107  1.528455 S    
N20   H55   1.044890 S    
C25   N5    1.438854 S    
C97   H21   1.083469 S    
C44   C52   1.421570 A    
C79   H15   1.080949 S    
C101  C102  1.528181 S    
C112  H84   1.110465 S    
N16   H48   1.045598 S    
C18   C26   1.394263 A    
C103  H66   1.105941 S    
C78   H14   1.082769 S    
C106  H68   1.108554 S    
C56   C71   1.421167 A    
C25   C33   1.407115 A    
N15   H45   1.045098 S    
C82   C90   1.408313 A    
C80   N4    1.365930 A    
O3    Zn1   2.005103 S    
C47   C55   1.413971 A    
C103  C104  1.529447 S    
C40   C48   1.415466 A    
C32   C40   1.412402 A    
O7    C4    1.277452 A    
C84   C96   1.405602 A    
C9    C17   1.377566 A    
N7    H29   1.045675 S    
C11   C19   1.390419 A    
C77   C87   1.409880 A    
C102  H58   1.109512 S    
N6    H27   1.045912 S    
C13   H5    1.080061 S    
N15   H46   1.044389 S    
C104  H63   1.110510 S    
C73   N1    1.365775 A    
C43   C51   1.418665 A    
Zn4   N4    1.999680 S    
C61   C65   1.402467 A    
C49   C66   1.419179 A    
C88   C92   1.408518 A    
C27   N7    1.441225 S    
