data_mof_unit_52319.cif
_audit_creation_date              2013-03-05T16:00:04-0500
_audit_creation_method            fapswitch 2.2
_symmetry_space_group_name_H-M    P1
_symmetry_Int_Tables_number       1
_space_group_crystal_system       triclinic
_cell_length_a                    8.270765
_cell_length_b                    12.882145
_cell_length_c                    22.989544
_cell_angle_alpha                 97.346133
_cell_angle_beta                  89.709867
_cell_angle_gamma                 98.966357
_cell_volume                      2399.35762432

loop_
_atom_site_label
_atom_site_type_symbol
_atom_site_description
_atom_site_fract_x
_atom_site_fract_y
_atom_site_fract_z
_atom_type_partial_charge
P1    P     P_3+3 0.057140 0.408270 0.369700 0.557522
O1    O     O_2   0.890290 0.440320 0.360790 -0.306981
O2    O     O_3   0.130840 0.441440 0.431840 -0.372368
O3    O     O_3   0.672400 0.637930 0.395560 -0.371304
O4    O     O_2   0.785383 0.555655 0.294275 -0.312379
O5    O     O_3   0.990363 0.273910 0.347318 -0.589960
O6    O     O_3   0.726608 0.746473 0.297139 -0.517102
H1    H     H_    0.574287 0.816422 0.356960 0.036272
C1    C     C_3   0.672068 0.921070 0.295770 0.099977
H2    H     H_    0.796220 0.945002 0.315475 0.144583
P2    P     P_3+3 0.667360 0.749400 0.544670 0.458272
P3    P     P_3+3 0.137889 0.830433 0.425883 0.499279
O7    O     O_2   0.844800 0.765340 0.527490 -0.386908
O8    O     O_3   0.090520 0.693800 0.424220 -0.414557
O9    O     O_2   0.010296 0.879447 0.465036 -0.300729
O10   O     O_3   0.675487 0.783343 0.620823 -0.557661
O11   O     O_3   0.104129 0.866675 0.356918 -0.508266
C2    C     C_3   0.115988 0.780080 0.314433 0.325353
H3    H     H_    0.016975 0.713708 0.319925 0.178128
H4    H     H_    0.235637 0.752092 0.317511 0.001413
C3    C     C_3   0.097239 0.813446 0.254155 -0.634251
H5    H     H_    0.005462 0.867695 0.254859 0.275245
H6    H     H_    0.216053 0.855167 0.240341 0.272192
C4    C     C_3   0.215583 0.779501 0.597466 0.407694
H7    H     H_    0.350017 0.789819 0.592956 0.089871
H8    H     H_    0.155934 0.736770 0.556246 0.118490
C5    C     C_3   0.161776 0.887487 0.606973 -0.903916
H9    H     H_    0.223225 0.935701 0.646182 0.290223
H10   H     H_    0.190868 0.928847 0.568010 0.239914
H11   H     H_    0.028653 0.877673 0.615041 0.252849
Ba1   Ba    Ba6+2 0.856210 0.551220 0.472190 1.637361
C6    C     C_3   0.094865 0.209711 0.365361 0.898503
H12   H     H_    0.214681 0.253553 0.381529 0.005326
C7    C     C_3   0.120290 0.125258 0.315308 -0.936203
H13   H     H_    0.002185 0.079136 0.298462 0.273246
H14   H     H_    0.199326 0.070857 0.329687 0.250353
H15   H     H_    0.179914 0.164889 0.279494 0.272106
C8    C     C_3   0.737033 0.706104 0.647524 0.386828
H16   H     H_    0.851433 0.687565 0.626535 0.102454
H17   H     H_    0.644095 0.633461 0.644806 0.096854
C9    C     C_3   0.774600 0.749788 0.711570 -0.852623
H18   H     H_    0.852030 0.828876 0.714481 0.257714
H19   H     H_    0.841661 0.696885 0.733122 0.214781
H20   H     H_    0.658982 0.757632 0.735292 0.283288
P4    P     P_3+3 0.132580 0.591820 0.630310 0.481371
O12   O     O_2   0.299410 0.559720 0.639240 -0.367773
O13   O     O_3   0.058870 0.558650 0.568170 -0.412479
O14   O     O_3   0.517310 0.362160 0.604450 -0.394691
O15   O     O_3   0.173576 0.729776 0.647332 -0.530576
P5    P     P_3+3 0.050347 0.171593 0.584249 0.526826
O16   O     O_3   0.614910 0.369290 0.471050 -0.369703
O17   O     O_3   0.099190 0.306290 0.575790 -0.319649
O18   O     O_2   0.182908 0.117648 0.550110 -0.353567
O19   O     O_3   0.088653 0.154934 0.656749 -0.563329
Ba2   Ba    Ba6+2 0.333620 0.448870 0.527810 1.633227
P6    P     P_3+3 0.656536 0.623312 0.319094 0.512167
C10   C     C_3   0.605616 0.810671 0.309610 0.230513
H21   H     H_    0.494131 0.779684 0.282256 0.078781
H22   H     H_    0.590735 0.976290 0.315428 0.047361
O20   O     O_3   0.574800 0.630800 0.528960 -0.395564
C11   C     C_3   0.543315 0.248198 0.340939 0.132019
H23   H     H_    0.449054 0.300410 0.340482 0.075013
H24   H     H_    0.663761 0.297128 0.351349 0.176681
C12   C     C_3   0.549663 0.179753 0.280910 0.058863
H25   H     H_    0.461154 0.105497 0.280165 0.120574
H26   H     H_    0.673474 0.157332 0.275561 0.155234
P7    P     P_3+3 0.528474 0.233008 0.455728 0.499377
O21   O     O_2   0.344900 0.234690 0.472540 -0.332746
O22   O     O_3   0.505673 0.176558 0.381914 -0.623886
H27   H     H_    0.054080 0.742659 0.222224 0.253938
C13   C     C_3   0.989213 0.210194 0.695081 0.146911
H28   H     H_    0.063406 0.284189 0.716709 0.159017
H29   H     H_    0.883424 0.233669 0.673097 0.025375
C14   C     C_3   0.922160 0.139787 0.741163 0.162346
H30   H     H_    0.829947 0.177871 0.767410 0.175906
H31   H     H_    0.861544 0.061873 0.719208 0.080175
P8    P     P_3+3 0.541740 0.380907 0.680848 0.474593
C15   C     C_3   0.461247 0.175781 0.673795 0.359266
H32   H     H_    0.425533 0.188410 0.629091 0.096943
O23   O     O_2   0.374658 0.400279 0.707477 -0.392179
O24   O     O_3   0.575989 0.259427 0.701509 -0.554130
H33   H     H_    0.351408 0.166881 0.701265 0.207725
H34   H     H_    0.666028 0.090387 0.657669 0.081762
C16   C     C_3   0.534665 0.073036 0.667302 -0.224582
H35   H     H_    0.477637 0.018915 0.628947 0.092619
H36   H     H_    0.105594 0.242366 0.027312 0.203869
H37   H     H_    0.002648 0.240167 0.928535 0.219355
C17   C     C_R   0.335973 0.525051 0.329245 -0.518746
C18   C     C_R   0.084981 0.603032 0.942467 -0.136313
C19   C     C_R   0.035026 0.600193 0.883088 0.575645
O25   O     O_2   0.037967 0.682975 0.862110 -0.546991
N1    N     N_R   0.981819 0.504590 0.848794 -0.175214
C20   C     C_R   0.977389 0.410821 0.872781 0.574703
O26   O     O_2   0.924804 0.326939 0.843378 -0.565328
C21   C     C_R   0.033562 0.410977 0.931052 -0.072267
C22   C     C_R   0.085227 0.508062 0.966500 -0.002296
C23   C     C_R   0.139541 0.699046 0.977595 -0.199214
C24   C     C_R   0.194059 0.703007 0.035802 0.479481
C25   C     C_R   0.187759 0.607183 0.062037 -0.234375
C26   C     C_R   0.138301 0.509848 0.025858 -0.026394
C27   C     C_R   0.040980 0.316112 0.954480 -0.023596
C28   C     C_R   0.100464 0.317450 0.011440 -0.077427
C29   C     C_R   0.148232 0.413685 0.047955 -0.113897
C30   C     C_R   0.205911 0.415367 0.106000 0.661253
N2    N     N_R   0.225895 0.508018 0.144866 -0.164668
C31   C     C_R   0.227877 0.603720 0.122467 0.617250
C32   C     C_2   0.770093 0.477867 0.771280 -0.148907
C33   C     C_3   0.716972 0.484900 0.708513 0.169067
C34   C     C_1   0.006224 0.526951 0.685666 0.277277
C35   C     C_2   0.054141 0.530551 0.741363 -0.197671
C36   C     C_2   0.930670 0.502901 0.787688 0.106481
C37   C     C_R   0.412183 0.559800 0.231015 -0.144919
C38   C     C_R   0.451224 0.565180 0.290468 0.226105
C39   C     C_R   0.183191 0.470063 0.309933 0.074872
C40   C     C_R   0.144688 0.457045 0.247390 0.411585
C41   C     C_R   0.259736 0.507457 0.207944 -0.000731
O27   O     O_2   0.240375 0.334460 0.121593 -0.449476
O28   O     O_2   0.264505 0.685814 0.155311 -0.524847
C42   C     C_2   0.859685 0.478718 0.667497 -0.471167
H38   H     H_    0.502978 0.594293 0.201993 0.195223
H39   H     H_    0.143676 0.772204 0.958758 0.232289
H40   H     H_    0.182634 0.552489 0.753598 0.171211
H41   H     H_    0.677742 0.460085 0.803812 0.159066
H42   H     H_    0.369618 0.532355 0.375195 0.182747
H43   H     H_    0.841333 0.437002 0.623317 0.168839
C43   C     C_R   0.738158 0.180642 0.538762 -0.357167
C44   C     C_R   0.433379 0.810453 0.477018 -0.528932
C45   C     C_R   0.408156 0.987001 0.458963 -0.177553
C46   C     C_R   0.344711 0.879994 0.454997 0.185938
C47   C     C_R   0.579030 0.847884 0.508290 0.308508
C48   C     C_R   0.638846 0.959398 0.517377 -0.035947
C49   C     C_R   0.550041 0.029566 0.492266 -0.046844
C50   C     C_R   0.603875 0.140664 0.501649 0.323506
C51   C     C_R   0.839499 0.113083 0.556894 0.268337
C52   C     C_R   0.786226 0.003222 0.548539 -0.186314
H44   H     H_    0.343463 0.036573 0.437075 0.218359
H45   H     H_    0.862545 0.953552 0.565260 0.169832
H46   H     H_    0.777177 0.265483 0.546628 0.159363
H47   H     H_    0.383454 0.726979 0.472791 0.169632
S1    S     S_3+6 0.990415 0.152190 0.421800 -0.006161
O29   O     O_2   0.081402 0.073800 0.443488 -0.260377
O30   O     O_2   0.981802 0.243813 0.467917 -0.295876
O31   O     O_3   0.802433 0.091320 0.400596 -0.570224
H48   H     H_    0.779880 0.119312 0.364050 0.326461
S2    S     S_3+6 0.502689 0.238289 0.217691 0.043875
O32   O     O_2   0.508776 0.355266 0.233111 -0.250799
O33   O     O_2   0.625945 0.218373 0.171011 -0.187156
O34   O     O_3   0.316246 0.184657 0.190232 -0.437101
H49   H     H_    0.322063 0.108757 0.178392 0.375509
S3    S     S_3+6 0.682187 0.926674 0.218529 0.012846
O35   O     O_2   0.816047 0.013962 0.206272 -0.254995
O36   O     O_2   0.716438 0.823409 0.186389 -0.188026
O37   O     O_3   0.501769 0.952133 0.195574 -0.494199
H50   H     H_    0.529079 0.995434 0.163229 0.418331
S4    S     S_3+6 0.077322 0.115124 0.789103 0.054003
O38   O     O_2   0.999367 0.080703 0.844112 -0.232608
O39   O     O_2   0.200663 0.213390 0.804960 -0.222564
O40   O     O_3   0.172083 0.017964 0.755975 -0.462472
H51   H     H_    0.091049 0.952536 0.755118 0.358542
N3    N     N_R   0.512865 0.020114 0.720000 0.292999
O41   O     O_R   0.546054 0.073138 0.771710 -0.287022
O42   O     O_R   0.469749 0.917850 0.715212 -0.335373
S5    S     S_3+6 0.289609 0.828856 0.069717 0.047389
O43   O     O_2   0.303289 0.910662 0.028036 -0.255595
O44   O     O_2   0.192723 0.865362 0.121735 -0.187838
O45   O     O_3   0.478756 0.816909 0.091381 -0.416805
H52   H     H_    0.535241 0.795036 0.054782 0.346724
S6    S     S_3+6 0.964700 0.375181 0.216206 0.057515
O46   O     O_2   0.006362 0.269317 0.191063 -0.190801
O47   O     O_2   0.833423 0.355328 0.259722 -0.205430
O48   O     O_3   0.888825 0.433085 0.162967 -0.535011
H53   H     H_    0.843427 0.374309 0.132602 0.389041

loop_
_geom_bond_atom_site_label_1
_geom_bond_atom_site_label_2
_geom_bond_distance
_ccdc_geom_bond_type
O14   P8    1.750385 S    
O14   Ba2   2.778414 S    
O5    C6    1.384639 S    
O48   H53   0.990184 S    
C20   O26   1.217965 D    
C12   S2    1.791420 S    
S4    O39   1.503078 D    
C2    C3    1.518027 S    
C9    H18   1.110048 S    
P1    O1    1.522776 D    
N2    C41   1.479418 S    
C21   C22   1.409672 A    
C4    C5    1.514988 S    
C32   H41   1.085686 S    
O8    Ba1   2.780676 S    
C17   H42   1.082391 S    
C45   C46   1.388074 A    
Ba2   O21   2.901437 S    
C16   N3    1.461395 S    
O3    P6    1.747260 S    
P4    O12   1.522976 D    
O37   H50   0.990055 S    
P5    O19   1.744260 S    
C14   H31   1.108914 S    
P7    C50   1.864832 S    
S1    O30   1.492528 D    
C6    S1    1.736049 S    
C48   C52   1.417277 A    
C45   H44   1.067093 S    
S2    O32   1.496305 D    
C8    H16   1.105203 S    
P4    C34   1.842903 S    
C37   C41   1.405722 A    
C5    H10   1.106371 S    
C40   C41   1.448710 A    
C7    H15   1.098479 S    
C23   C24   1.406419 A    
P1    Ba1   3.392524 S    
C2    H4    1.110284 S    
C7    H13   1.105104 S    
C17   C38   1.387888 A    
C11   H24   1.102295 S    
C35   C36   1.508823 S    
C37   C38   1.396577 A    
C23   H39   1.082166 S    
O4    P6    1.541762 D    
H37   C27   1.081403 S    
O2    Ba2   2.761012 S    
S6    O48   1.683866 S    
O19   C13   1.405169 S    
S5    O43   1.503845 D    
C43   C50   1.394842 A    
C49   C50   1.420020 A    
S3    O37   1.678535 S    
O12   Ba2   2.804421 S    
P5    O17   1.754670 S    
P6    C38   1.834753 S    
S1    O31   1.673219 S    
C4    H7    1.104973 S    
P4    O15   1.749887 S    
C1    H2    1.106782 S    
O16   Ba2   2.921781 S    
O17   Ba2   2.781376 S    
S6    O47   1.487608 D    
P2    Ba1   3.444213 S    
C20   C21   1.419772 A    
P2    O20   1.596199 S    
Ba1   O13   2.760597 S    
Ba2   O20   2.828400 S    
C31   O28   1.215964 D    
S4    O40   1.678332 S    
C9    H19   1.106583 S    
C33   C42   1.512441 S    
C11   H23   1.107084 S    
C44   H47   1.082381 S    
O6    P6    1.738695 S    
C45   C49   1.401832 A    
C30   N2    1.384736 Am   
S2    O33   1.502240 D    
C24   S5    1.773242 S    
C10   H21   1.109931 S    
P4    O13   1.538368 S    
C1    S3    1.787416 S    
P5    O18   1.546038 D    
C14   H30   1.105773 S    
P7    O21   1.567559 D    
C27   C28   1.398262 A    
S5    O45   1.679754 S    
S1    O29   1.484621 D    
C8    C9    1.522959 S    
P5    C51   1.866790 S    
C37   H38   1.083177 S    
C5    H11   1.105975 S    
C15   H32   1.109384 S    
C2    H3    1.107206 S    
O10   C8    1.393982 S    
C26   C29   1.411544 A    
P1    O5    1.744354 S    
C18   C23   1.399974 A    
O1    Ba1   2.803908 S    
P7    O22   1.757532 S    
C6    C7    1.516789 S    
Ba1   O20   2.922714 S    
P3    O11   1.744739 S    
C11   C12   1.545075 S    
C44   C46   1.386044 A    
H1    C10   1.113592 S    
P2    O10   1.748433 S    
C15   H33   1.103399 S    
C19   N1    1.385011 Am   
H34   C16   1.101800 S    
P3    O9    1.541190 D    
P8    O24   1.756274 S    
C32   C33   1.528319 S    
O11   C2    1.400887 S    
O16   P7    1.780591 S    
C16   H35   1.109314 S    
O2    Ba1   2.943499 S    
P4    Ba2   3.393187 S    
C42   H43   1.086280 S    
S6    O46   1.501855 D    
P3    O8    1.738102 S    
C3    H6    1.109615 S    
O45   H52   0.990954 S    
C9    H20   1.110300 S    
S3    O36   1.503273 D    
P1    C39   1.901306 S    
C48   C49   1.426347 A    
H36   C28   1.083388 S    
P2    C47   1.846396 S    
N3    O42   1.300637 A    
S4    O38   1.502544 D    
S2    O34   1.679261 S    
C34   C42   1.316617 D    
O13   Ba2   2.944396 S    
C30   O27   1.218707 D    
P8    O23   1.551304 D    
C11   O22   1.402066 S    
C4    O15   1.399879 S    
C52   H45   1.070925 S    
C25   C31   1.437791 A    
C43   H46   1.082340 S    
S5    O44   1.502432 D    
C32   C36   1.360361 D    
O7    Ba1   2.901151 S    
P8    C33   1.867056 S    
C4    H8    1.109549 S    
Ba1   O16   2.828994 S    
C13   C14   1.528228 S    
N1    C36   1.465688 S    
C39   C40   1.457141 A    
C51   C52   1.403892 A    
N2    C31   1.393318 Am   
C21   C27   1.406894 A    
C25   C26   1.417116 A    
C3    H27   1.108090 S    
Ba1   Ba2   4.590152 S    
C6    H12   1.102152 S    
C18   C22   1.405576 A    
C47   C48   1.433463 A    
C40   S6    1.780523 S    
C44   C47   1.392703 A    
C13   H28   1.109924 S    
C34   C35   1.335265 D    
C12   H25   1.108553 S    
C8    H17   1.109855 S    
P2    O7    1.507594 D    
C15   O24   1.406926 S    
C19   O25   1.222185 D    
O40   H51   0.989845 S    
C22   C26   1.431881 A    
N1    C20   1.385974 Am   
C7    H14   1.109914 S    
C14   S4    1.787013 S    
C1    C10   1.515323 S    
O34   H49   0.989386 S    
C17   C39   1.393512 A    
C28   C29   1.407916 A    
N3    O41   1.300921 A    
P3    C46   1.828545 S    
O3    Ba1   2.778866 S    
C15   C16   1.530337 S    
C43   C51   1.399076 A    
C24   C25   1.435371 A    
C13   H29   1.112870 S    
C29   C30   1.415836 A    
S3    O35   1.503115 D    
P1    O2    1.538338 S    
C18   C19   1.422600 A    
C3    H5    1.107780 S    
C1    H22   1.107528 S    
O6    C10   1.400699 S    
C35   H40   1.085115 S    
O31   H48   0.985271 S    
C12   H26   1.108590 S    
C5    H9    1.104383 S    
