data_mof_unit_34106.cif
_audit_creation_date              2012-12-10T19:24:02-0500
_audit_creation_method            fapswitch 2.2
_symmetry_space_group_name_H-M    P1
_symmetry_Int_Tables_number       1
_space_group_crystal_system       triclinic
_cell_length_a                    10.520664
_cell_length_b                    10.586948
_cell_length_c                    9.819407
_cell_angle_alpha                 90.487943
_cell_angle_beta                  90.008954
_cell_angle_gamma                 90.361692
_cell_volume                      1093.64099137

loop_
_atom_site_label
_atom_site_type_symbol
_atom_type_description
_atom_site_fract_x
_atom_site_fract_y
_atom_site_fract_z
_atom_type_partial_charge
C1    C     C_R   0.504520 0.258197 0.499281 0.874479
C2    C     C_R   0.495480 0.741803 0.500719 0.874480
C3    C     C_3   0.449861 0.963068 0.619021 -0.017513
C4    C     C_3   0.550139 0.036931 0.380979 -0.017514
C5    C     C_3   0.503219 0.385291 0.047828 -0.187322
C6    C     C_3   0.496781 0.614708 0.952172 -0.187317
C7    C     C_3   0.600025 0.446726 0.951900 0.048697
C8    C     C_3   0.399975 0.553274 0.048100 0.048696
C9    C     C_3   0.403005 0.440060 0.951558 0.022493
C10   C     C_3   0.596994 0.559940 0.048441 0.022493
C11   C     C_R   0.257850 0.497915 0.499885 0.878653
C12   C     C_R   0.742150 0.502085 0.500115 0.878652
C13   C     C_3   0.040154 0.413087 0.590157 -0.163412
C14   C     C_3   0.959845 0.586913 0.409843 -0.163414
C15   C     C_3   0.956300 0.386989 0.464620 0.004509
C16   C     C_3   0.043700 0.613011 0.535380 0.004510
C17   C     C_3   0.877190 0.502304 0.500324 -0.073124
C18   C     C_3   0.122810 0.497696 0.499676 -0.073123
C19   C     C_3   0.959249 0.530385 0.626458 -0.137931
C20   C     C_3   0.040751 0.469615 0.373542 -0.137933
C21   C     C_3   0.572725 0.041408 0.603591 -0.054164
C22   C     C_3   0.427275 0.958592 0.396408 -0.054164
C23   C     C_3   0.617002 0.954295 0.486847 -0.091982
C24   C     C_3   0.382998 0.045705 0.513153 -0.091983
C25   C     C_3   0.494438 0.876415 0.502323 -0.167176
C26   C     C_3   0.505562 0.123585 0.497677 -0.167178
H1    H     H_    0.075501 0.343003 0.664153 0.198382
H2    H     H_    0.924499 0.656997 0.335847 0.198381
H3    H     H_    0.923224 0.557194 0.728917 0.195144
H4    H     H_    0.076776 0.442806 0.271083 0.195143
H5    H     H_    0.502594 0.289424 0.092018 0.177472
H6    H     H_    0.497405 0.710576 0.907982 0.177473
N1    N     N_3   0.499910 0.500030 0.863290 -0.139078
N2    N     N_3   0.500090 0.499970 0.136710 -0.139079
O1    O     O_R   0.500010 0.313960 0.616610 -0.640683
O2    O     O_R   0.499990 0.686040 0.383390 -0.640683
O3    O     O_R   0.500060 0.313950 0.383350 -0.614823
O4    O     O_R   0.499940 0.686050 0.616650 -0.614823
O5    O     O_R   0.313930 0.499970 0.616610 -0.615238
O6    O     O_R   0.686070 0.500030 0.383390 -0.615241
O7    O     O_R   0.313980 0.499960 0.383350 -0.629051
O8    O     O_R   0.686020 0.500040 0.616650 -0.629050
Zn1   Zn    Zn3+2 0.499970 0.500010 0.655740 0.959862
Zn2   Zn    Zn3+2 0.500030 0.499990 0.344260 0.959861
C27   C     C_1   0.905013 0.263377 0.424226 0.192332
N3    N     N_1   0.865147 0.165660 0.392010 -0.199037
C28   C     C_1   0.094987 0.736623 0.575774 0.192333
N4    N     N_1   0.134853 0.834340 0.607990 -0.199037
C29   C     C_1   0.745546 0.903038 0.473766 0.177296
N5    N     N_1   0.847356 0.863878 0.463524 -0.202921
C30   C     C_1   0.254454 0.096962 0.526234 0.177295
N6    N     N_1   0.152644 0.136122 0.536476 -0.202921
C31   C     C_2   0.658583 0.089359 0.714358 0.441928
H7    H     H_    0.744777 0.140037 0.687738 0.073070
O9    O     O_2   0.632703 0.071270 0.833701 -0.556633
C32   C     C_2   0.341417 0.910641 0.285642 0.441926
H8    H     H_    0.255220 0.859968 0.312262 0.073071
O10   O     O_2   0.367300 0.928726 0.166299 -0.556635
C33   C     C_1   0.390765 0.925326 0.748024 0.281744
N7    N     N_1   0.343159 0.896659 0.849441 -0.133384
C34   C     C_1   0.609235 0.074674 0.251976 0.281745
N8    N     N_1   0.656841 0.103341 0.150559 -0.133384
C35   C     C_1   0.714060 0.386410 0.896293 0.319353
N9    N     N_1   0.804711 0.339217 0.853513 -0.179648
C36   C     C_1   0.285940 0.613590 0.103707 0.319356
N10   N     N_1   0.195289 0.660783 0.146487 -0.179648
C37   C     C_2   0.294042 0.367139 0.891437 0.453002
H9    H     H_    0.312343 0.286390 0.825754 0.081820
O11   O     O_2   0.184763 0.397737 0.915961 -0.577114
C38   C     C_2   0.705958 0.632862 0.108563 0.453002
H10   H     H_    0.687656 0.713608 0.174250 0.081822
O12   O     O_2   0.815237 0.602266 0.084035 -0.577113

loop_
_geom_bond_atom_site_label_1
_geom_bond_atom_site_label_2
_ccdc_geom_bond_type
C7    C10   S    
C6    H6    S    
C21   C26   S    
C11   C18   S    
C20   H4    S    
C27   N3    T    
C13   C18   S    
C6    C8    S    
C24   C26   S    
C23   C29   S    
C32   H8    S    
C12   O8    A    
C8    C9    S    
C22   C25   S    
C12   C17   S    
C38   H10   S    
O1    Zn1   S    
C18   C20   S    
C1    O3    A    
C24   C30   S    
C8    C36   S    
C9    N1    S    
C7    N1    S    
C14   C17   S    
C3    C24   S    
C16   C28   S    
C31   O9    D    
C15   C20   S    
C13   C19   S    
C30   N6    T    
N1    Zn1   S    
C14   C20   S    
C3    C25   S    
N2    Zn2   S    
C5    C7    S    
C4    C23   S    
O5    Zn1   S    
C31   H7    S    
C4    C34   S    
C37   H9    S    
C37   O11   D    
C12   O6    A    
C9    C37   S    
C33   N7    T    
C5    C9    S    
C4    C22   S    
C2    O4    A    
C28   N4    T    
C5    N2    S    
C10   N2    S    
C8    N2    S    
C11   O5    A    
C7    C35   S    
C10   C38   S    
C29   N5    T    
C13   C15   S    
C1    C26   S    
O7    Zn2   S    
C14   C16   S    
O2    Zn2   S    
O8    Zn1   S    
C15   C27   S    
C19   H3    S    
C1    O1    A    
C2    O2    A    
C15   C17   S    
C6    C10   S    
C4    C26   S    
C6    N1    S    
C22   C32   S    
O3    Zn2   S    
C21   C23   S    
O4    Zn1   S    
C21   C31   S    
C16   C19   S    
C17   C19   S    
C32   O10   D    
C11   O7    A    
C2    C25   S    
C22   C24   S    
C23   C25   S    
C34   N8    T    
C3    C21   S    
C35   N9    T    
O6    Zn2   S    
C16   C18   S    
C36   N10   T    
C13   H1    S    
C38   O12   D    
C14   H2    S    
C5    H5    S    
C3    C33   S    
