data_mof_unit_34263.cif
_audit_creation_date              2012-12-10T17:10:26-0500
_audit_creation_method            fapswitch 2.2
_symmetry_space_group_name_H-M    P1
_symmetry_Int_Tables_number       1
_space_group_crystal_system       triclinic
_cell_length_a                    10.692062
_cell_length_b                    13.057978
_cell_length_c                    11.62877
_cell_angle_alpha                 96.258155
_cell_angle_beta                  94.808239
_cell_angle_gamma                 90.149232
_cell_volume                      1608.10289671

loop_
_atom_site_label
_atom_site_type_symbol
_atom_type_description
_atom_site_fract_x
_atom_site_fract_y
_atom_site_fract_z
_atom_type_partial_charge
C1    C     C_R   0.495718 0.299969 0.482853 0.903252
C2    C     C_R   0.503691 0.700057 0.517147 0.889276
C3    C     C_R   0.488851 0.810700 0.518142 -0.198697
C4    C     C_R   0.509494 0.189250 0.481851 -0.192792
C5    C     C_R   0.642619 0.042715 0.436476 0.581876
C6    C     C_R   0.354811 0.956630 0.563398 0.582176
C7    C     C_R   0.611907 0.146221 0.428392 -0.300782
C8    C     C_R   0.387315 0.853628 0.573156 -0.364713
C9    C     C_R   0.437949 0.129907 0.547892 0.341509
C10   C     C_R   0.557908 0.870081 0.450286 0.337970
C11   C     C_R   0.446687 0.021837 0.528344 -0.156944
C12   C     C_R   0.549808 0.978009 0.470689 -0.148386
C13   C     C_R   0.367893 0.416441 0.026716 -0.237976
C14   C     C_R   0.628484 0.587299 0.973439 -0.314518
C15   C     C_R   0.383882 0.421113 0.148149 0.130399
C16   C     C_R   0.615666 0.579338 0.851803 0.123537
C17   C     C_R   0.558800 0.534082 0.154111 0.113881
C18   C     C_R   0.438357 0.468918 0.846012 0.149028
C19   C     C_R   0.546201 0.532095 0.032297 0.017430
C20   C     C_R   0.449495 0.472324 0.967943 0.047668
C21   C     C_R   0.262087 0.514512 0.499835 0.855034
C22   C     C_R   0.737581 0.485172 0.500370 0.842524
C23   C     C_R   0.128521 0.583121 0.710400 -0.278985
C24   C     C_R   0.877229 0.399580 0.297238 -0.235342
C25   C     C_R   0.082347 0.569738 0.818298 0.455641
C26   C     C_R   0.932276 0.397984 0.191608 0.455448
C27   C     C_R   0.981897 0.501242 0.818610 -0.242510
C28   C     C_R   0.031595 0.466002 0.183800 -0.278608
C29   C     C_R   0.918513 0.456800 0.714878 0.404590
C30   C     C_R   0.084343 0.526431 0.283083 0.395008
C31   C     C_R   0.950891 0.487430 0.607807 -0.058780
C32   C     C_R   0.048107 0.507380 0.393373 -0.050769
C33   C     C_R   0.068485 0.535077 0.605502 -0.016333
C34   C     C_R   0.931166 0.459377 0.397233 -0.019035
C35   C     C_R   0.874571 0.467203 0.502432 -0.075458
C36   C     C_R   0.124398 0.530655 0.498902 -0.063436
Cu1   Cu    Cu3+1 0.509250 0.507730 0.615930 1.033568
Cu2   Cu    Cu3+1 0.490750 0.492270 0.384070 1.034247
H1    H     H_    0.065158 0.474048 0.099918 0.202089
H2    H     H_    0.955723 0.479535 0.900672 0.188657
H3    H     H_    0.292624 0.369637 0.979394 0.180943
H4    H     H_    0.703530 0.634325 0.020798 0.187577
H5    H     H_    0.210574 0.630805 0.707098 0.150775
H6    H     H_    0.798108 0.349104 0.303462 0.151382
H7    H     H_    0.326991 0.802471 0.611497 0.156738
H8    H     H_    0.673321 0.197304 0.391198 0.149806
H9    H     H_    0.363185 0.424710 0.795552 0.189693
H10   H     H_    0.634023 0.578219 0.204466 0.195697
H11   H     H_    0.680771 0.620350 0.806511 0.127439
H12   H     H_    0.320102 0.378698 0.193357 0.128092
N1    N     N_R   0.523180 0.519350 0.790130 -0.180290
N2    N     N_R   0.476820 0.480650 0.209870 -0.186206
O1    O     O_R   0.506570 0.354460 0.582000 -0.468459
O2    O     O_R   0.493430 0.645540 0.418000 -0.475818
O3    O     O_R   0.490940 0.341410 0.386200 -0.629808
O4    O     O_R   0.509060 0.658590 0.613800 -0.626976
O5    O     O_R   0.327470 0.506520 0.597900 -0.599843
O6    O     O_R   0.672530 0.493480 0.402100 -0.594080
O7    O     O_R   0.311840 0.493460 0.402100 -0.571211
O8    O     O_R   0.688160 0.506540 0.597900 -0.571178
O9    O     O_3   0.139540 0.610034 0.926013 -0.556972
C37   C     C_3   0.209740 0.700916 0.921201 -0.159679
H13   H     H_    0.157406 0.756270 0.869302 0.120691
H14   H     H_    0.302314 0.682184 0.887847 0.141461
H15   H     H_    0.228484 0.739794 0.010645 0.246672
O10   O     O_3   0.896613 0.325872 0.098409 -0.561935
C38   C     C_3   0.774590 0.347100 0.052634 -0.192656
H16   H     H_    0.704150 0.344600 0.117342 0.125274
H17   H     H_    0.746381 0.286813 0.980420 0.225706
H18   H     H_    0.773378 0.422430 0.016788 0.174131
S1    S     S_3+6 0.831801 0.342186 0.721804 -0.005256
O11   O     O_2   0.713208 0.367559 0.778279 -0.307587
O12   O     O_2   0.800759 0.285544 0.603339 -0.346815
O13   O     O_3   0.919005 0.265788 0.803389 -0.490950
H19   H     H_    0.867247 0.202687 0.802904 0.371148
S2    S     S_3+6 0.158837 0.643726 0.263154 0.025479
O14   O     O_2   0.271826 0.623277 0.196412 -0.256013
O15   O     O_2   0.067026 0.704923 0.194061 -0.265936
O16   O     O_3   0.201658 0.713244 0.390554 -0.584894
H20   H     H_    0.228989 0.780722 0.369325 0.381443
S3    S     S_3+6 0.623338 0.810425 0.322651 0.036875
O17   O     O_2   0.519358 0.753428 0.246879 -0.245368
O18   O     O_2   0.677808 0.885119 0.250325 -0.244364
O19   O     O_3   0.734487 0.726619 0.360567 -0.539976
H21   H     H_    0.797913 0.768744 0.412221 0.357117
S4    S     S_3+6 0.369305 0.190436 0.673467 0.040226
O20   O     O_2   0.273663 0.267328 0.637010 -0.269736
O21   O     O_2   0.309050 0.117347 0.744007 -0.247771
O22   O     O_3   0.484651 0.251520 0.761938 -0.506682
H22   H     H_    0.545308 0.197034 0.779684 0.352691
O23   O     O_3   0.763418 0.003109 0.426777 -0.565167
C39   C     C_3   0.846748 0.067361 0.378787 -0.176009
H23   H     H_    0.871833 0.137421 0.439542 0.189644
H24   H     H_    0.808000 0.087060 0.292240 0.166345
H25   H     H_    0.934887 0.024667 0.365640 0.207415
O24   O     O_3   0.232873 0.994388 0.570565 -0.530042
C40   C     C_3   0.150815 0.930289 0.620310 -0.199889
H26   H     H_    0.189853 0.912964 0.707716 0.153273
H27   H     H_    0.127303 0.858815 0.561394 0.163102
H28   H     H_    0.061727 0.971984 0.632031 0.209984

loop_
_geom_bond_atom_site_label_1
_geom_bond_atom_site_label_2
_ccdc_geom_bond_type
C4    C9    A    
C27   C29   A    
C19   C20   A    
C17   H10   S    
C18   H9    S    
C40   H28   S    
C13   H3    S    
S3    O17   D    
C21   C36   S    
C22   C35   S    
C37   H13   S    
C32   C36   A    
C24   C26   A    
C21   O7    A    
C22   O8    A    
Cu1   N1    S    
S4    O21   D    
Cu2   N2    S    
C33   C36   A    
C23   H5    S    
C34   C35   A    
C15   H12   S    
C1    O1    A    
C8    H7    S    
C37   H14   S    
S3    O18   D    
Cu2   O6    S    
Cu1   O4    S    
O19   H21   S    
Cu2   O3    S    
C23   C33   A    
C16   N1    A    
C18   C20   A    
C13   C20   A    
C14   H4    S    
Cu1   O1    S    
O10   C38   S    
C4    C7    A    
C17   N2    A    
C40   H27   S    
C18   N1    A    
C40   H26   S    
O13   H19   S    
C38   H16   S    
C26   O10   S    
C7    H8    S    
S2    O14   D    
C5    C12   A    
C3    C8    A    
C2    O2    A    
C6    C11   A    
S1    O12   D    
S4    O20   D    
C6    C8    A    
C28   H1    S    
C39   H25   S    
C24   C34   A    
O16   H20   S    
C38   H17   S    
C32   C34   A    
C21   O5    A    
Cu1   Cu2   S    
C9    S4    S    
C30   S2    S    
Cu2   O2    S    
C27   H2    S    
O24   C40   S    
C39   H24   S    
C25   O9    S    
C15   N2    A    
C16   H11   S    
C9    C11   A    
C5    O23   S    
C10   C12   A    
C6    O24   S    
C13   C15   A    
C24   H6    S    
C14   C16   A    
O23   C39   S    
S3    O19   S    
C5    C7    A    
C31   C33   A    
C37   H15   S    
C14   C19   A    
S2    O15   D    
S4    O22   S    
C22   O6    A    
S1    O13   S    
C11   C12   A    
C25   C27   A    
C10   S3    S    
C26   C28   A    
C1    C4    S    
C38   H18   S    
C28   C30   A    
C2    C3    S    
C1    O3    A    
S1    O11   D    
C29   C31   A    
C3    C10   A    
C2    O4    A    
C30   C32   A    
C39   H23   S    
C17   C19   A    
C31   C35   A    
C23   C25   A    
O9    C37   S    
Cu1   O8    S    
Cu2   O7    S    
S2    O16   S    
O22   H22   S    
Cu1   O5    S    
C29   S1    S    
