data_mof_unit_61482.cif
_audit_creation_date              2013-03-05T16:30:14-0500
_audit_creation_method            fapswitch 2.2
_symmetry_space_group_name_H-M    P1
_symmetry_Int_Tables_number       1
_space_group_crystal_system       triclinic
_cell_length_a                    18.352436
_cell_length_b                    18.35248
_cell_length_c                    36.246852
_cell_angle_alpha                 89.993388
_cell_angle_beta                  89.983391
_cell_angle_gamma                 90.000484
_cell_volume                      12208.4000246

loop_
_atom_site_label
_atom_site_type_symbol
_atom_site_description
_atom_site_fract_x
_atom_site_fract_y
_atom_site_fract_z
_atom_type_partial_charge
Zn1   Zn    Zn3+2 0.500000 0.913220 0.030510 1.013802
Zn2   Zn    Zn3+2 0.086780 0.500000 0.030510 1.014910
Zn3   Zn    Zn3+2 0.500000 0.086780 0.030510 1.014313
Zn4   Zn    Zn3+2 0.913220 0.500000 0.030510 1.013225
Zn5   Zn    Zn3+2 0.000000 0.413220 0.530510 1.013799
Zn6   Zn    Zn3+2 0.586780 1.000000 0.530510 1.014895
Zn7   Zn    Zn3+2 0.000000 0.586780 0.530510 1.014477
Zn8   Zn    Zn3+2 0.413220 1.000000 0.530510 1.013394
Zn9   Zn    Zn3+2 0.586770 1.000000 0.969480 1.068991
Zn10  Zn    Zn3+2 0.000000 0.586770 0.969480 1.068975
Zn11  Zn    Zn3+2 0.413230 1.000000 0.969480 1.069316
Zn12  Zn    Zn3+2 0.000000 0.413230 0.969480 1.069475
Zn13  Zn    Zn3+2 0.086770 0.500000 0.469480 1.068985
Zn14  Zn    Zn3+2 0.500000 0.086770 0.469480 1.069096
Zn15  Zn    Zn3+2 0.913230 0.500000 0.469480 1.069597
Zn16  Zn    Zn3+2 0.500000 0.913230 0.469480 1.069397
O1    O     O_3   0.500000 0.000000 0.000000 -0.535411
O2    O     O_3   0.000000 0.500000 0.000000 -0.535422
O3    O     O_3   1.000000 0.500000 0.500000 -0.535458
O4    O     O_3   0.500000 1.000000 0.500000 -0.535457
O5    O     O_R   0.439300 1.000000 0.918540 -0.595327
O6    O     O_R   0.000000 0.439300 0.918540 -0.595394
O7    O     O_R   0.560700 1.000000 0.918540 -0.595446
O8    O     O_R   1.000000 0.560700 0.918540 -0.595421
O9    O     O_R   0.939300 0.500000 0.418540 -0.595105
O10   O     O_R   0.500000 0.939300 0.418540 -0.595596
O11   O     O_R   0.060700 0.500000 0.418540 -0.595762
O12   O     O_R   0.500000 0.060700 0.418540 -0.595275
O13   O     O_R   0.500000 0.939270 0.081460 -0.618436
O14   O     O_R   0.060730 0.500000 0.081460 -0.617939
O15   O     O_R   0.500000 0.060730 0.081460 -0.618693
O16   O     O_R   0.939270 0.500000 0.081460 -0.619233
O17   O     O_R   0.000000 0.439270 0.581460 -0.618464
O18   O     O_R   0.560730 0.000000 0.581460 -0.617988
O19   O     O_R   0.000000 0.560730 0.581460 -0.618629
O20   O     O_R   0.439270 0.000000 0.581460 -0.619021
O21   O     O_R   0.646180 0.914510 0.978640 -0.596206
O22   O     O_R   0.085490 0.646180 0.978640 -0.595635
O23   O     O_R   0.353820 0.085490 0.978640 -0.595576
O24   O     O_R   0.914510 0.353820 0.978640 -0.596039
O25   O     O_R   0.646180 0.085490 0.978640 -0.592806
O26   O     O_R   0.085490 0.353820 0.978640 -0.592542
O27   O     O_R   0.353820 0.914510 0.978640 -0.593085
O28   O     O_R   0.914510 0.646180 0.978640 -0.593372
O29   O     O_R   0.146180 0.414510 0.478640 -0.596125
O30   O     O_R   0.585490 0.146180 0.478640 -0.595640
O31   O     O_R   0.853820 0.585490 0.478640 -0.595677
O32   O     O_R   0.414510 0.853820 0.478640 -0.596160
O33   O     O_R   0.146180 0.585490 0.478640 -0.592898
O34   O     O_R   0.585490 0.853820 0.478640 -0.592533
O35   O     O_R   0.853820 0.414510 0.478640 -0.592970
O36   O     O_R   0.414510 0.146180 0.478640 -0.593364
O37   O     O_R   0.414550 0.146120 0.021350 -0.625382
O38   O     O_R   0.853880 0.414550 0.021350 -0.625527
O39   O     O_R   0.585450 0.853880 0.021350 -0.625486
O40   O     O_R   0.146120 0.585450 0.021350 -0.625345
O41   O     O_R   0.414550 0.853880 0.021350 -0.625522
O42   O     O_R   0.853880 0.585450 0.021350 -0.625726
O43   O     O_R   0.585450 0.146120 0.021350 -0.625536
O44   O     O_R   0.146120 0.414550 0.021350 -0.625347
O45   O     O_R   0.914550 0.646120 0.521350 -0.625283
O46   O     O_R   0.353880 0.914550 0.521350 -0.625456
O47   O     O_R   0.085450 0.353880 0.521350 -0.625500
O48   O     O_R   0.646120 0.085450 0.521350 -0.625356
O49   O     O_R   0.914550 0.353880 0.521350 -0.625492
O50   O     O_R   0.353880 0.085450 0.521350 -0.625595
O51   O     O_R   0.085450 0.646120 0.521350 -0.625404
O52   O     O_R   0.646120 0.914550 0.521350 -0.625241
C1    C     C_R   0.500002 0.999950 0.901118 0.804299
C2    C     C_R   0.999957 0.500013 0.901118 0.804469
C3    C     C_R   0.999998 0.499963 0.401118 0.804660
C4    C     C_R   0.499963 0.000014 0.401118 0.804597
C5    C     C_R   0.499949 0.999999 0.098889 0.793237
C6    C     C_R   0.999988 0.499949 0.098889 0.793266
C7    C     C_R   0.999948 0.499998 0.598889 0.793046
C8    C     C_R   0.499991 0.999946 0.598888 0.792970
C9    C     C_R   0.641059 0.860724 0.000642 0.823124
C10   C     C_R   0.139275 0.641054 0.000640 0.823417
C11   C     C_R   0.358932 0.139259 0.000662 0.823754
C12   C     C_R   0.860737 0.358931 0.000661 0.823470
C13   C     C_R   0.641094 0.139272 0.000613 0.822057
C14   C     C_R   0.139265 0.358907 0.000617 0.822138
C15   C     C_R   0.358927 0.860718 0.000610 0.821375
C16   C     C_R   0.860716 0.641080 0.000609 0.821386
C17   C     C_R   0.141060 0.360725 0.500643 0.823183
C18   C     C_R   0.639277 0.141051 0.500638 0.823400
C19   C     C_R   0.858932 0.639257 0.500662 0.823763
C20   C     C_R   0.360743 0.858924 0.500667 0.823503
C21   C     C_R   0.141103 0.639265 0.500619 0.822249
C22   C     C_R   0.639268 0.858907 0.500616 0.822264
C23   C     C_R   0.858930 0.360714 0.500606 0.821434
C24   C     C_R   0.360717 0.141080 0.500610 0.821403
C25   C     C_R   0.252769 0.800193 0.973239 0.033930
C26   C     C_R   0.199455 0.252351 0.973389 0.033335
C27   C     C_R   0.747760 0.199369 0.973408 0.032766
C28   C     C_R   0.800399 0.747461 0.973305 0.033096
C29   C     C_R   0.252919 0.199777 0.973441 0.009601
C30   C     C_R   0.200146 0.746771 0.973282 0.009278
C31   C     C_R   0.746994 0.800096 0.973350 0.008374
C32   C     C_R   0.800356 0.252809 0.973463 0.008932
C33   C     C_R   0.752808 0.300154 0.473220 0.033784
C34   C     C_R   0.699376 0.752259 0.473414 0.033052
C35   C     C_R   0.247991 0.699143 0.473496 0.032181
C36   C     C_R   0.300400 0.247459 0.473306 0.033000
C37   C     C_R   0.752836 0.699685 0.473467 0.009418
C38   C     C_R   0.700178 0.246737 0.473264 0.009245
C39   C     C_R   0.246997 0.300096 0.473352 0.008429
C40   C     C_R   0.300572 0.752592 0.473549 0.008566
C41   C     C_R   0.297769 0.810581 0.003769 -0.316208
C42   C     C_R   0.189345 0.297698 0.003820 -0.316763
C43   C     C_R   0.702308 0.189344 0.003817 -0.316165
C44   C     C_R   0.810600 0.702254 0.003783 -0.315569
C45   C     C_R   0.297926 0.189524 0.003893 -0.315953
C46   C     C_R   0.189570 0.702035 0.003825 -0.315513
C47   C     C_R   0.702059 0.810455 0.003842 -0.314962
C48   C     C_R   0.810489 0.297915 0.003893 -0.315507
C49   C     C_R   0.797778 0.310569 0.503760 -0.316117
C50   C     C_R   0.689340 0.797689 0.503822 -0.316741
C51   C     C_R   0.202342 0.689308 0.503846 -0.316100
C52   C     C_R   0.310602 0.202254 0.503785 -0.315577
C53   C     C_R   0.797918 0.689511 0.503897 -0.315902
C54   C     C_R   0.689576 0.202029 0.503816 -0.315386
C55   C     C_R   0.202061 0.310456 0.503843 -0.314964
C56   C     C_R   0.310518 0.797888 0.503922 -0.315353
C57   C     C_R   0.279402 0.774838 0.037349 0.436515
C58   C     C_R   0.225346 0.279642 0.037366 0.436596
C59   C     C_R   0.720275 0.225416 0.037355 0.436316
C60   C     C_R   0.774693 0.720439 0.037343 0.436181
C61   C     C_R   0.279636 0.225454 0.037409 0.438219
C62   C     C_R   0.225202 0.720564 0.037383 0.438250
C63   C     C_R   0.720419 0.774634 0.037378 0.437960
C64   C     C_R   0.774460 0.279705 0.037399 0.437977
C65   C     C_R   0.779384 0.274855 0.537343 0.436476
C66   C     C_R   0.725404 0.779697 0.537360 0.436477
C67   C     C_R   0.220137 0.725553 0.537360 0.436179
C68   C     C_R   0.274694 0.220439 0.537344 0.436144
C69   C     C_R   0.779692 0.725509 0.537404 0.438223
C70   C     C_R   0.725183 0.220583 0.537377 0.438321
C71   C     C_R   0.220420 0.274635 0.537379 0.437979
C72   C     C_R   0.274320 0.779845 0.537404 0.437918
C73   C     C_3   0.213098 0.727639 0.933680 0.037403
C74   C     C_3   0.271673 0.212235 0.933758 0.036096
C75   C     C_3   0.788128 0.271396 0.933742 0.038379
C76   C     C_3   0.728174 0.787515 0.933681 0.039236
C77   C     C_3   0.212099 0.270780 0.933531 0.031787
C78   C     C_3   0.271738 0.787122 0.933484 0.031940
C79   C     C_3   0.787614 0.728824 0.933490 0.031973
C80   C     C_3   0.729509 0.211885 0.933523 0.031576
C81   C     C_3   0.713157 0.227568 0.433668 0.037609
C82   C     C_3   0.771464 0.711994 0.433755 0.036628
C83   C     C_3   0.288638 0.770886 0.433771 0.038533
C84   C     C_3   0.228177 0.287513 0.433683 0.039709
C85   C     C_3   0.711890 0.770547 0.433528 0.031897
C86   C     C_3   0.771815 0.287034 0.433473 0.031640
C87   C     C_3   0.287610 0.228816 0.433493 0.031819
C88   C     C_3   0.230048 0.711340 0.433549 0.032155
H1    H     H_    0.235302 0.671723 0.929781 0.094514
H2    H     H_    0.327519 0.234472 0.929647 0.094764
H3    H     H_    0.765984 0.327249 0.929541 0.094185
H4    H     H_    0.672272 0.765397 0.929620 0.094119
H5    H     H_    0.232855 0.327149 0.929401 0.086801
H6    H     H_    0.328139 0.766242 0.929633 0.085154
H7    H     H_    0.766719 0.672470 0.929498 0.085326
H8    H     H_    0.673179 0.232691 0.929334 0.086501
H9    H     H_    0.735348 0.171643 0.429786 0.094775
H10   H     H_    0.827297 0.734212 0.429576 0.094935
H11   H     H_    0.266497 0.826696 0.429424 0.094466
H12   H     H_    0.172272 0.265403 0.429623 0.094278
H13   H     H_    0.732635 0.826900 0.429329 0.087231
H14   H     H_    0.828215 0.266134 0.429645 0.085659
H15   H     H_    0.266708 0.172464 0.429504 0.085544
H16   H     H_    0.173742 0.732082 0.429200 0.087302
C89   C     C_R   0.015208 0.434824 0.769417 0.157556
C90   C     C_R   0.565791 0.012242 0.769402 0.156596
C91   C     C_R   0.992829 0.566502 0.769429 0.155685
C92   C     C_R   0.433287 0.995436 0.769439 0.155841
C93   C     C_R   0.517832 0.935465 0.269413 0.158098
C94   C     C_R   0.064330 0.518631 0.269393 0.157886
C95   C     C_R   0.490475 0.066199 0.269437 0.156221
C96   C     C_R   0.933934 0.489698 0.269460 0.156616
C97   C     C_R   0.004997 0.500818 0.788691 -0.185793
C98   C     C_R   0.499423 0.004840 0.788689 -0.186052
C99   C     C_R   0.505110 0.001013 0.288692 -0.185505
C100  C     C_R   0.998951 0.505115 0.288694 -0.185510
C101  C     C_R   0.489259 0.065809 0.230377 0.320730
C102  C     C_R   0.934318 0.488487 0.230399 0.319759
C103  C     C_R   0.516534 0.935374 0.230357 0.317705
C104  C     C_R   0.064416 0.517331 0.230336 0.318530
C105  C     C_R   0.991627 0.566151 0.730369 0.320492
C106  C     C_R   0.433577 0.994257 0.730380 0.319240
C107  C     C_R   0.013931 0.434775 0.730360 0.317663
C108  C     C_R   0.565778 0.010989 0.730344 0.318759
C109  C     C_R   0.501172 0.000241 0.211359 -0.055091
C110  C     C_R   0.999728 0.501186 0.211360 -0.054925
C111  C     C_R   0.001071 0.500178 0.711357 -0.055207
C112  C     C_R   0.499882 0.000937 0.711354 -0.055179
C113  C     C_1   0.002615 0.500377 0.828484 0.195042
C114  C     C_1   0.499753 0.002503 0.828483 0.194679
C115  C     C_1   0.502699 0.000458 0.328485 0.195639
C116  C     C_1   0.999556 0.502703 0.328485 0.196076
C117  C     C_1   0.500437 0.000096 0.171574 0.220737
C118  C     C_1   0.999864 0.500446 0.171575 0.220775
C119  C     C_1   0.000377 0.500064 0.671573 0.220487
C120  C     C_1   0.499945 0.000298 0.671571 0.220361
C121  C     C_1   0.500109 0.000017 0.138367 -0.066970
C122  C     C_1   0.999946 0.500113 0.138368 -0.066967
C123  C     C_1   0.000080 0.500007 0.638366 -0.067034
C124  C     C_1   0.499972 0.000041 0.638364 -0.067024
C125  C     C_1   0.001083 0.500106 0.861673 -0.001247
C126  C     C_1   0.499952 0.001022 0.861673 -0.001419
C127  C     C_1   0.501130 0.000125 0.361673 -0.001103
C128  C     C_1   0.999907 0.501132 0.361674 -0.000924
O53   O     O_3   0.312160 0.791426 0.070581 -0.648218
H17   H     H_    0.327095 0.843239 0.070179 0.336499
O54   O     O_3   0.208994 0.312697 0.070558 -0.646388
H18   H     H_    0.157118 0.327425 0.070259 0.336763
O55   O     O_3   0.687131 0.209135 0.070538 -0.649083
H19   H     H_    0.672476 0.157237 0.070268 0.335984
O56   O     O_3   0.791120 0.687502 0.070555 -0.651018
H20   H     H_    0.842974 0.672699 0.070215 0.335740
O57   O     O_3   0.312570 0.209197 0.070640 -0.645569
H21   H     H_    0.327642 0.157423 0.070325 0.337453
O58   O     O_3   0.208636 0.687879 0.070647 -0.648077
H22   H     H_    0.156901 0.672683 0.070229 0.336441
O59   O     O_3   0.687567 0.791014 0.070622 -0.649646
H23   H     H_    0.672491 0.842786 0.070268 0.336506
O60   O     O_3   0.790620 0.312717 0.070622 -0.647041
H24   H     H_    0.842414 0.327728 0.070337 0.337518
O61   O     O_3   0.812115 0.291470 0.570579 -0.648236
H25   H     H_    0.827059 0.343281 0.570168 0.336499
O62   O     O_3   0.709115 0.812816 0.570543 -0.645973
H26   H     H_    0.657222 0.827488 0.570271 0.336870
O63   O     O_3   0.186825 0.709440 0.570520 -0.648945
H27   H     H_    0.172281 0.657508 0.570316 0.336057
O64   O     O_3   0.291120 0.187502 0.570556 -0.650684
H28   H     H_    0.342973 0.172696 0.570216 0.335828
O65   O     O_3   0.812688 0.709317 0.570627 -0.645477
H29   H     H_    0.827709 0.657526 0.570339 0.337385
O66   O     O_3   0.708591 0.187925 0.570645 -0.648581
H30   H     H_    0.656859 0.172720 0.570219 0.336187
O67   O     O_3   0.187567 0.291013 0.570624 -0.649818
H31   H     H_    0.172489 0.342786 0.570269 0.336375
O68   O     O_3   0.290313 0.813024 0.570604 -0.647255
H32   H     H_    0.342141 0.827924 0.570384 0.337373
N1    N     N_R   0.149391 0.742800 0.910520 0.289335
O69   O     O_R   0.107400 0.798562 0.917013 -0.221364
O70   O     O_R   0.131288 0.696848 0.884800 -0.283680
N2    N     N_R   0.256405 0.148192 0.910854 0.288869
O71   O     O_R   0.200763 0.106206 0.917624 -0.222662
O72   O     O_R   0.302174 0.129799 0.885093 -0.282134
N3    N     N_R   0.852268 0.255922 0.910921 0.289683
O73   O     O_R   0.894160 0.200278 0.917821 -0.222158
O74   O     O_R   0.870797 0.301456 0.885074 -0.294384
N4    N     N_R   0.743601 0.851413 0.910681 0.290157
O75   O     O_R   0.799327 0.893309 0.917395 -0.221135
O76   O     O_R   0.697959 0.869735 0.884857 -0.291890
N5    N     N_R   0.149947 0.253692 0.909667 0.283282
O77   O     O_R   0.156415 0.261394 0.874150 -0.247028
O78   O     O_R   0.087067 0.235219 0.923436 -0.237319
N6    N     N_R   0.255127 0.849074 0.909384 0.281554
O79   O     O_R   0.264179 0.842521 0.873950 -0.257298
O80   O     O_R   0.235989 0.911953 0.922907 -0.236788
N7    N     N_R   0.849762 0.745575 0.909535 0.281784
O81   O     O_R   0.843477 0.736786 0.874074 -0.252826
O82   O     O_R   0.912545 0.764589 0.923209 -0.237281
N8    N     N_R   0.746609 0.149624 0.909726 0.283408
O83   O     O_R   0.738916 0.155930 0.874202 -0.246708
O84   O     O_R   0.765056 0.086802 0.923561 -0.237352
N9    N     N_R   0.649475 0.242733 0.410490 0.289285
O85   O     O_R   0.607492 0.298509 0.416966 -0.221561
O86   O     O_R   0.631392 0.196782 0.384764 -0.284997
N10   N     N_R   0.756107 0.647873 0.410918 0.288945
O87   O     O_R   0.700511 0.605892 0.417791 -0.222883
O88   O     O_R   0.801725 0.629441 0.385093 -0.285583
N11   N     N_R   0.352960 0.755279 0.411105 0.289709
O89   O     O_R   0.394825 0.699706 0.418189 -0.222516
O90   O     O_R   0.371666 0.800639 0.385212 -0.294638
N12   N     N_R   0.243612 0.351410 0.410685 0.290000
O91   O     O_R   0.299356 0.393287 0.417392 -0.221302
O92   O     O_R   0.197951 0.369762 0.384875 -0.294899
N13   N     N_R   0.649656 0.753375 0.409735 0.283289
O93   O     O_R   0.656015 0.760913 0.374204 -0.245658
O94   O     O_R   0.586818 0.734972 0.423576 -0.237469
N14   N     N_R   0.755253 0.348965 0.409350 0.281604
O95   O     O_R   0.764373 0.342378 0.373923 -0.253940
O96   O     O_R   0.736102 0.411861 0.422849 -0.236664
N15   N     N_R   0.349757 0.245555 0.409535 0.281810
O97   O     O_R   0.343472 0.236743 0.374076 -0.252126
O98   O     O_R   0.412542 0.264572 0.423205 -0.237309
N16   N     N_R   0.247382 0.648902 0.409915 0.283459
O99   O     O_R   0.240116 0.654962 0.374358 -0.242720
O100  O     O_R   0.265667 0.586177 0.423918 -0.238240
O101  O     O_3   0.531229 0.873551 0.209813 -0.686480
H33   H     H_    0.555323 0.836705 0.225548 0.393972
O102  O     O_3   0.126047 0.532768 0.209773 -0.684702
H34   H     H_    0.162613 0.557297 0.225497 0.394856
O103  O     O_3   0.477955 0.128365 0.209850 -0.684461
H35   H     H_    0.485350 0.171753 0.225591 0.397845
O104  O     O_3   0.871891 0.476433 0.209893 -0.686401
H36   H     H_    0.828425 0.483311 0.225649 0.396763
O105  O     O_3   0.026267 0.372433 0.709822 -0.686343
H37   H     H_    0.048915 0.334691 0.725564 0.394280
O106  O     O_3   0.628586 0.020672 0.709792 -0.684172
H38   H     H_    0.667273 0.041649 0.725534 0.395612
O107  O     O_3   0.982708 0.629087 0.709838 -0.684183
H39   H     H_    0.991720 0.672168 0.725580 0.397710
O108  O     O_3   0.370316 0.988010 0.709864 -0.686065
H40   H     H_    0.327654 0.998809 0.725621 0.396328
N17   N     N_R   0.023758 0.367783 0.789458 0.225596
O109  O     O_R   0.073767 0.361705 0.814708 -0.298477
O110  O     O_R   0.979290 0.313755 0.783676 -0.263800
N18   N     N_R   0.633143 0.017891 0.789428 0.225956
O111  O     O_R   0.641377 0.067573 0.814691 -0.294525
O112  O     O_R   0.685200 0.971136 0.783624 -0.260753
N19   N     N_R   0.978674 0.632584 0.789476 0.221865
O113  O     O_R   0.023767 0.654837 0.814774 -0.271842
O114  O     O_R   0.918906 0.668928 0.783619 -0.276456
N20   N     N_R   0.366676 0.984025 0.789495 0.221797
O115  O     O_R   0.346281 0.030028 0.814782 -0.275039
O116  O     O_R   0.327883 0.925818 0.783636 -0.277402
N21   N     N_R   0.528981 0.868803 0.289449 0.225613
O117  O     O_R   0.579218 0.864662 0.314683 -0.301592
O118  O     O_R   0.486630 0.813096 0.283677 -0.262700
N22   N     N_R   0.130859 0.530599 0.289408 0.226159
O119  O     O_R   0.134402 0.580899 0.314637 -0.302283
O120  O     O_R   0.187072 0.488923 0.283621 -0.258454
N23   N     N_R   0.473873 0.131702 0.289493 0.221669
O121  O     O_R   0.518097 0.155593 0.314803 -0.270880
O122  O     O_R   0.412788 0.165793 0.283646 -0.279233
N24   N     N_R   0.868645 0.472314 0.289537 0.221368
O123  O     O_R   0.844245 0.516246 0.314862 -0.272869
O124  O     O_R   0.835278 0.410829 0.283693 -0.282319

loop_
_geom_bond_atom_site_label_1
_geom_bond_atom_site_label_2
_geom_bond_distance
_ccdc_geom_bond_type
C86   N14   1.465826 S    
O58   H22   0.989691 S    
C49   C65   1.422992 A    
O105  H37   0.989014 S    
C74   H2    1.113147 S    
C92   C98   1.410813 A    
C16   C44   1.455889 S    
C75   N3    1.466300 S    
N14   O95   1.300596 A    
C30   C46   1.391777 A    
C111  C119  1.442110 S    
C68   O64   1.380408 S    
C109  C117  1.442136 S    
C86   H14   1.112522 S    
O49   C23   1.274137 A    
Zn12  O26   1.939298 S    
C7    C123  1.430931 S    
O34   C22   1.271922 A    
Zn14  O36   1.939187 S    
C12   C48   1.455344 S    
N10   O87   1.302509 A    
O52   C22   1.274235 A    
O41   C15   1.274128 A    
Zn15  O35   1.939145 S    
C76   H4    1.113133 S    
Zn4   O2    1.938664 S    
C26   C77   1.501726 S    
N1    O69   1.302504 A    
C103  C109  1.403851 A    
C46   C62   1.422463 A    
C40   C56   1.391655 A    
N2    O72   1.300393 A    
C107  O105  1.383702 S    
C96   N24   1.437557 S    
N10   O88   1.300460 A    
N24   O123  1.301197 A    
C77   N5    1.465685 S    
N7    O81   1.300597 A    
C64   O60   1.380399 S    
C82   N10   1.466223 S    
O22   C10   1.272605 A    
C26   C29   1.376116 A    
O46   C20   1.272877 A    
C89   C107  1.415891 A    
Zn12  O24   1.939129 S    
O54   H18   0.989750 S    
O61   H25   0.989726 S    
C40   C83   1.496527 S    
O106  H38   0.989030 S    
Zn16  O4    1.939097 S    
Zn1   O13   1.907709 S    
C89   N17   1.437351 S    
Zn3   O15   1.907602 S    
C34   C85   1.501749 S    
Zn4   O16   1.907789 S    
C95   N23   1.437548 S    
C95   C101  1.416021 A    
N6    O80   1.302070 A    
Zn7   O3    1.939034 S    
N9    O86   1.300452 A    
C79   N7    1.465822 S    
C22   C50   1.456113 S    
O11   C3    1.280715 A    
N7    O82   1.302071 A    
C28   C79   1.501698 S    
C62   O58   1.380449 S    
Zn9   O7    1.907527 S    
C93   C103  1.415876 A    
Zn9   O25   1.939314 S    
Zn10  O22   1.939327 S    
C96   C102  1.416027 A    
Zn13  O29   1.939268 S    
C77   H5    1.112501 S    
Zn10  O2    1.938886 S    
C83   H11   1.113133 S    
Zn11  O5    1.907259 S    
C17   C55   1.455321 S    
C69   O65   1.380401 S    
C29   C74   1.496422 S    
C35   C88   1.501755 S    
N21   O117  1.301106 A    
Zn4   O42   1.937953 S    
C9    C47   1.455306 S    
C36   C39   1.376142 A    
C8    C124  1.430893 S    
Zn8   O46   1.938002 S    
C28   C31   1.376141 A    
O27   C15   1.271766 A    
C78   N6    1.465822 S    
C20   C56   1.455410 S    
C97   C113  1.443046 S    
C90   C98   1.410739 A    
O8    C2    1.280387 A    
O57   H21   0.989701 S    
O16   C6    1.281113 A    
O14   C6    1.281170 A    
Zn15  O9    1.907259 S    
C91   N19   1.437506 S    
C82   H10   1.113141 S    
C55   C71   1.422456 A    
O40   C10   1.272993 A    
N18   O111  1.301131 A    
O67   H31   0.989704 S    
C53   C69   1.422443 A    
N20   O116  1.301256 A    
O45   C19   1.272995 A    
O17   C7    1.281164 A    
C100  C116  1.443047 S    
Zn5   O17   1.907709 S    
C73   N1    1.466156 S    
Zn3   O1    1.939034 S    
O9    C3    1.280338 A    
O63   H27   0.989770 S    
C50   C66   1.423109 A    
C91   C97   1.410807 A    
O65   H29   0.989709 S    
C57   O53   1.380431 S    
C76   C79   1.533056 S    
N17   O110  1.301245 A    
C75   C80   1.533065 S    
Zn10  O28   1.939187 S    
C80   H8    1.112505 S    
C120  C124  1.203634 T    
C25   C78   1.501669 S    
C81   H9    1.113145 S    
C61   O57   1.380410 S    
C106  O108  1.383693 S    
N23   O122  1.301251 A    
N22   O119  1.301115 A    
O50   C24   1.273971 A    
Zn10  O8    1.907447 S    
O55   H19   0.989759 S    
C76   N4    1.466283 S    
C88   H16   1.112499 S    
O5    C1    1.280397 A    
O31   C19   1.272752 A    
O101  H33   0.989009 S    
Zn1   O41   1.938015 S    
C90   C108  1.415916 A    
C48   C64   1.422427 A    
C38   C54   1.391806 A    
C23   C49   1.455817 S    
C88   N16   1.465691 S    
C70   O66   1.380454 S    
N8    O84   1.302051 A    
C42   C58   1.423108 A    
C3    C128  1.429899 S    
C11   C45   1.455411 S    
C112  C120  1.442079 S    
C60   C63   1.407643 A    
Zn9   O1    1.938724 S    
C33   C38   1.376217 A    
C5    C121  1.430961 S    
C102  C110  1.403952 A    
N6    O79   1.300593 A    
N13   O94   1.302052 A    
C15   C41   1.455833 S    
C92   N20   1.437439 S    
Zn2   O14   1.907521 S    
N14   O96   1.302068 A    
C102  O104  1.383670 S    
C24   C52   1.455880 S    
C94   C104  1.415880 A    
C79   H7    1.112518 S    
Zn3   O37   1.937986 S    
C33   C86   1.501689 S    
C36   C87   1.501694 S    
C114  C126  1.203347 T    
C107  C111  1.403856 A    
Zn7   O51   1.937814 S    
C96   C100  1.410814 A    
N19   O113  1.301165 A    
N22   O120  1.301240 A    
C117  C121  1.203674 T    
N12   O91   1.302507 A    
C1    C126  1.429905 S    
C29   C45   1.391567 A    
O6    C2    1.280671 A    
O47   C17   1.272886 A    
O18   C8    1.281104 A    
O10   C4    1.280695 A    
O66   H30   0.989691 S    
C32   C48   1.391673 A    
C39   C55   1.391859 A    
C66   C69   1.407721 A    
N3    O73   1.302513 A    
Zn14  O30   1.939327 S    
C10   C46   1.455305 S    
O53   H17   0.989727 S    
Zn15  O3    1.939253 S    
C37   C82   1.496481 S    
C78   H6    1.112520 S    
N24   O124  1.301251 A    
C108  C112  1.403881 A    
Zn16  O34   1.939298 S    
C31   C47   1.391857 A    
Zn2   O44   1.937909 S    
C4    C127  1.429905 S    
O68   H32   0.989721 S    
C110  C118  1.442144 S    
Zn5   O47   1.937872 S    
C34   C37   1.376085 A    
N16   O99   1.300497 A    
Zn8   O20   1.907789 S    
Zn6   O48   1.937830 S    
Zn7   O45   1.937986 S    
O35   C23   1.271751 A    
C21   C51   1.456144 S    
C82   C85   1.533029 S    
O26   C14   1.271920 A    
C18   C54   1.455282 S    
O64   H28   0.989741 S    
O32   C20   1.272582 A    
C103  O101  1.383699 S    
C89   C97   1.410726 A    
C65   C70   1.407671 A    
N9    O85   1.302505 A    
C74   C77   1.532947 S    
O12   C4    1.280363 A    
C68   C71   1.407648 A    
O48   C18   1.273007 A    
C84   H12   1.113134 S    
O38   C12   1.272890 A    
Zn16  O10   1.907340 S    
C67   C72   1.407687 A    
Zn13  O3    1.938724 S    
O108  H40   0.989063 S    
Zn14  O4    1.938886 S    
C31   C76   1.496818 S    
C54   C70   1.422452 A    
O33   C21   1.271803 A    
O56   H20   0.989740 S    
C19   C53   1.455392 S    
C27   C32   1.376077 A    
C93   C99   1.410709 A    
O21   C9    1.272408 A    
C26   C42   1.394211 A    
C51   C67   1.423115 A    
Zn6   O18   1.907521 S    
C52   C68   1.423008 A    
O23   C11   1.272775 A    
C81   C86   1.532954 S    
C105  O107  1.383680 S    
N4    O75   1.302505 A    
C105  C111  1.403924 A    
C92   C106  1.415921 A    
N15   O97   1.300594 A    
C84   C87   1.533045 S    
O25   C13   1.271776 A    
Zn8   O4    1.938664 S    
C83   C88   1.533125 S    
O44   C14   1.274205 A    
C73   C78   1.532936 S    
N1    O70   1.300431 A    
O36   C24   1.271640 A    
O102  H34   0.989012 S    
N2    O71   1.302517 A    
C59   O55   1.380374 S    
Zn11  O1    1.939253 S    
O37   C11   1.272981 A    
Zn1   O1    1.938826 S    
C56   C72   1.422441 A    
Zn12  O2    1.939097 S    
O43   C13   1.274058 A    
O28   C16   1.271635 A    
C32   C75   1.496568 S    
C75   H3    1.113134 S    
Zn5   O3    1.938826 S    
Zn6   O4    1.939189 S    
C58   C61   1.407739 A    
C72   O68   1.380373 S    
C33   C49   1.394159 A    
C81   N9    1.466190 S    
N23   O121  1.301193 A    
N18   O112  1.301256 A    
C101  O103  1.383673 S    
Zn1   O39   1.937872 S    
C65   O61   1.380437 S    
C44   C60   1.423005 A    
O15   C5    1.281095 A    
O107  H39   0.989041 S    
C85   H13   1.112499 S    
Zn2   O40   1.937830 S    
C36   C52   1.394175 A    
Zn8   O50   1.937953 S    
Zn12  O6    1.907340 S    
Zn2   O2    1.939189 S    
O103  H35   0.989030 S    
O7    C1    1.280656 A    
C98   C114  1.443043 S    
Zn15  O31   1.939221 S    
O104  H36   0.989030 S    
Zn16  O32   1.939129 S    
C47   C63   1.422456 A    
N17   O109  1.301110 A    
C108  O106  1.383706 S    
C28   C44   1.394195 A    
O19   C7    1.281106 A    
C116  C128  1.203336 T    
C45   C61   1.422449 A    
C14   C42   1.456060 S    
N11   O90   1.300504 A    
N5    O77   1.300499 A    
O39   C9    1.272884 A    
N3    O74   1.300507 A    
O13   C5    1.281188 A    
C90   N18   1.437379 S    
O51   C21   1.274072 A    
O60   H24   0.989709 S    
C59   C64   1.407682 A    
O20   C8    1.281140 A    
C94   N22   1.437328 S    
C57   C62   1.407685 A    
C13   C43   1.456062 S    
N21   O118  1.301241 A    
O24   C12   1.272534 A    
Zn11  O27   1.939145 S    
C35   C40   1.376007 A    
C67   O63   1.380346 S    
N16   O100  1.302051 A    
C34   C50   1.394280 A    
C106  C112  1.403869 A    
Zn6   O52   1.937909 S    
N15   O98   1.302070 A    
C104  C110  1.403860 A    
C38   C81   1.496764 S    
C93   N21   1.437331 S    
C71   O67   1.380427 S    
C95   C99   1.410808 A    
N19   O114  1.301253 A    
C85   N13   1.465681 S    
Zn5   O49   1.938015 S    
N8    O83   1.300511 A    
N13   O93   1.300491 A    
C119  C123  1.203660 T    
C99   C115  1.443050 S    
N5    O78   1.302054 A    
O29   C17   1.272412 A    
N20   O115  1.301127 A    
O42   C16   1.273982 A    
C63   O59   1.380429 S    
N4    O76   1.300511 A    
Zn9   O21   1.939268 S    
O59   H23   0.989705 S    
C37   C53   1.391593 A    
C66   O62   1.380373 S    
Zn11  O23   1.939221 S    
C80   N8    1.465684 S    
C60   O56   1.380405 S    
C84   N12   1.466269 S    
Zn13  O33   1.939314 S    
C39   C84   1.496801 S    
C41   C57   1.423004 A    
N11   O89   1.302514 A    
C74   N2    1.466130 S    
C30   C73   1.496727 S    
C43   C59   1.423096 A    
N12   O92   1.300501 A    
C87   N15   1.465826 S    
C6    C122  1.430971 S    
C73   H1    1.113147 S    
Zn4   O38   1.938002 S    
Zn7   O19   1.907602 S    
C35   C51   1.394289 A    
C27   C80   1.501756 S    
C101  C109  1.403956 A    
C91   C105  1.415985 A    
C27   C43   1.394267 A    
C83   N11   1.466296 S    
C115  C127  1.203341 T    
C104  O102  1.383701 S    
C113  C125  1.203341 T    
C58   O54   1.380389 S    
C87   H15   1.112519 S    
C118  C122  1.203677 T    
C25   C41   1.394137 A    
O62   H26   0.989756 S    
C2    C125  1.429905 S    
Zn13  O11   1.907527 S    
Zn14  O12   1.907447 S    
C25   C30   1.376206 A    
C94   C100  1.410698 A    
O30   C18   1.272582 A    
Zn3   O43   1.937814 S    
