data_mof_unit_61328.cif
_audit_creation_date              2013-03-05T16:25:40-0500
_audit_creation_method            fapswitch 2.2
_symmetry_space_group_name_H-M    P1
_symmetry_Int_Tables_number       1
_space_group_crystal_system       triclinic
_cell_length_a                    16.446437
_cell_length_b                    16.939728
_cell_length_c                    27.694553
_cell_angle_alpha                 91.275105
_cell_angle_beta                  91.533613
_cell_angle_gamma                 89.468492
_cell_volume                      7710.6871697

loop_
_atom_site_label
_atom_site_type_symbol
_atom_site_description
_atom_site_fract_x
_atom_site_fract_y
_atom_site_fract_z
_atom_type_partial_charge
O1    O     O_R   0.422340 0.612130 0.497740 -0.604425
O2    O     O_R   0.577660 0.387870 0.502260 -0.561691
O3    O     O_R   0.561250 0.618690 0.501770 -0.610374
O4    O     O_R   0.438750 0.381310 0.498230 -0.636061
C1    C     C_R   0.490163 0.651515 0.496113 0.961393
C2    C     C_R   0.510000 0.348096 0.501972 1.021329
O5    O     O_R   0.430560 0.496700 0.569230 -0.567298
O6    O     O_R   0.569440 0.503300 0.430770 -0.576428
O7    O     O_R   0.569460 0.503270 0.573260 -0.613193
O8    O     O_R   0.430540 0.496730 0.426740 -0.599360
C3    C     C_R   0.499179 0.500216 0.593684 1.006458
C4    C     C_R   0.500756 0.501926 0.406499 0.958326
Zn1   Zn    Zn3+2 0.407250 0.495620 0.497310 1.038280
Zn2   Zn    Zn3+2 0.592750 0.504380 0.502690 1.053054
C5    C     C_R   0.444891 0.564955 0.821767 0.525545
C6    C     C_R   0.553807 0.478819 0.179119 0.522948
O9    O     O_2   0.397385 0.614938 0.795977 -0.533486
O10   O     O_2   0.608689 0.435728 0.204637 -0.531626
N1    N     N_R   0.492528 0.510609 0.798522 -0.352480
N2    N     N_R   0.496278 0.522585 0.202577 -0.352211
C7    C     C_R   0.541344 0.458843 0.823119 0.524815
C8    C     C_R   0.441038 0.568511 0.178200 0.528243
C9    C     C_R   0.449017 0.450960 0.721448 -0.125443
C10   C     C_R   0.520604 0.582798 0.282294 -0.108626
C11   C     C_R   0.451267 0.446307 0.671106 -0.072173
C12   C     C_R   0.525799 0.577379 0.332463 -0.048962
C13   C     C_R   0.539756 0.562775 0.672901 -0.075901
C14   C     C_R   0.473765 0.441741 0.325100 -0.086021
C15   C     C_R   0.538088 0.563869 0.723225 -0.126674
C16   C     C_R   0.469385 0.449493 0.275033 -0.121399
C17   C     C_R   0.492719 0.508758 0.747127 0.270188
C18   C     C_R   0.493663 0.518990 0.253870 0.260171
C19   C     C_R   0.495348 0.516218 0.898604 -0.049340
C20   C     C_R   0.498860 0.524290 0.102575 -0.049122
C21   C     C_R   0.445202 0.568669 0.872297 -0.030122
C22   C     C_R   0.555906 0.478473 0.128720 -0.028913
C23   C     C_R   0.397176 0.623879 0.896810 -0.118808
C24   C     C_R   0.613707 0.433429 0.104204 -0.117298
C25   C     C_R   0.543879 0.460786 0.873623 -0.029699
C26   C     C_R   0.441460 0.570471 0.127689 -0.031418
C27   C     C_R   0.496941 0.502839 0.646422 -0.169251
C28   C     C_R   0.502457 0.506161 0.354118 -0.153994
H1    H     H_    0.570604 0.608822 0.744228 0.172557
H2    H     H_    0.449473 0.400540 0.251913 0.177909
H3    H     H_    0.359206 0.665728 0.877340 0.196956
H4    H     H_    0.659400 0.399191 0.123609 0.198013
C29   C     C_R   0.442844 0.572024 0.025563 0.044620
C30   C     C_R   0.550308 0.467967 0.975663 0.045189
C31   C     C_R   0.554699 0.473612 0.026729 0.044967
C32   C     C_R   0.445042 0.573014 0.974445 0.044739
C33   C     C_R   0.498908 0.523465 0.051421 0.077324
C34   C     C_R   0.496943 0.519131 0.949774 0.077184
C35   C     C_R   0.385586 0.617185 0.051910 -0.200446
C36   C     C_R   0.596669 0.411753 0.949431 -0.201707
C37   C     C_R   0.385071 0.616322 0.101983 -0.117531
C38   C     C_R   0.593507 0.408464 0.899382 -0.118893
O11   O     O_2   0.385518 0.611314 0.202781 -0.527752
O12   O     O_2   0.587645 0.406176 0.798654 -0.533323
C39   C     C_R   0.397063 0.626222 0.946905 -0.201035
C40   C     C_R   0.613404 0.431115 0.054169 -0.202374
H5    H     H_    0.539625 0.636048 0.264927 0.170809
H6    H     H_    0.415129 0.408202 0.741176 0.172231
H7    H     H_    0.339724 0.651589 0.120478 0.197627
H8    H     H_    0.630285 0.364438 0.880941 0.197254
H9    H     H_    0.338576 0.652394 0.034932 0.150100
H10   H     H_    0.634675 0.367784 0.966476 0.150382
H11   H     H_    0.359757 0.671778 0.962918 0.150095
H12   H     H_    0.661227 0.396445 0.038117 0.150514
C41   C     C_R   0.490549 0.735045 0.484053 -0.189130
C42   C     C_R   0.510919 0.262472 0.506120 -0.171735
C43   C     C_R   0.562432 0.776252 0.496001 -0.272043
C44   C     C_R   0.440720 0.222643 0.489269 -0.294492
C45   C     C_R   0.572048 0.853716 0.483231 0.467219
C46   C     C_R   0.434583 0.141743 0.492285 0.477939
C47   C     C_R   0.505772 0.893323 0.461637 -0.028001
C48   C     C_R   0.501997 0.099218 0.510225 -0.031209
C49   C     C_R   0.435407 0.852754 0.447194 -0.145179
C50   C     C_R   0.571167 0.137809 0.528706 -0.183415
C51   C     C_R   0.427944 0.772475 0.456448 -0.039975
C52   C     C_R   0.575912 0.219888 0.528082 -0.037430
C53   C     C_2   0.502019 0.978492 0.463385 -0.051114
C54   C     C_2   0.504749 0.014303 0.506741 -0.061434
H13   H     H_    0.612698 0.747779 0.514978 0.213612
H14   H     H_    0.389748 0.254696 0.473390 0.213057
H15   H     H_    0.514337 0.981160 0.539616 0.183518
H16   H     H_    0.492362 0.011079 0.430348 0.192503
H17   H     H_    0.385920 0.884362 0.429292 0.222368
H18   H     H_    0.621458 0.103493 0.543678 0.227234
N3    N     N_R   0.716300 0.510230 0.506270 -0.138192
N4    N     N_R   0.283700 0.489770 0.493730 -0.137379
C55   C     C_R   0.761166 0.479805 0.469134 0.106199
C56   C     C_R   0.236857 0.548985 0.513477 0.101637
C57   C     C_R   0.845782 0.481654 0.471944 -0.259738
C58   C     C_R   0.152375 0.544017 0.511122 -0.262310
C59   C     C_R   0.885463 0.510843 0.513818 0.170835
C60   C     C_R   0.114981 0.476462 0.491384 0.166596
C61   C     C_R   0.838333 0.542695 0.551140 -0.229468
C62   C     C_R   0.164005 0.416915 0.471027 -0.220924
C63   C     C_R   0.753403 0.542154 0.546537 0.042148
C64   C     C_R   0.248674 0.424952 0.472357 0.039621
C65   C     C_2   0.975486 0.511820 0.518586 -0.166555
C66   C     C_2   0.025213 0.468459 0.490014 -0.167746
H19   H     H_    0.286540 0.378933 0.456873 0.153360
H20   H     H_    0.717115 0.566246 0.575421 0.160709
H21   H     H_    0.000171 0.424600 0.464867 0.155849
H22   H     H_    0.001014 0.549373 0.547221 0.155990
H23   H     H_    0.866953 0.567350 0.583697 0.161201
H24   H     H_    0.137087 0.364450 0.454524 0.163047
H25   H     H_    0.116903 0.592936 0.525277 0.161877
H26   H     H_    0.879422 0.459673 0.441368 0.153466
C67   C     C_2   0.583228 0.627487 0.649488 0.921305
O13   O     O_2   0.646587 0.652910 0.667714 -0.604971
O14   O     O_R   0.550226 0.661798 0.607873 -0.812759
H27   H     H_    0.584508 0.706749 0.596424 0.347017
C68   C     C_2   0.450889 0.364787 0.345491 0.929330
O15   O     O_2   0.400097 0.323448 0.324364 -0.588314
O16   O     O_R   0.489153 0.337941 0.387739 -0.827094
H28   H     H_    0.470420 0.283412 0.396507 0.348311
C69   C     C_2   0.647371 0.257676 0.552411 0.977730
O17   O     O_2   0.638510 0.315621 0.578944 -0.590120
O18   O     O_R   0.724720 0.224311 0.546858 -0.764248
H29   H     H_    0.768559 0.254628 0.565602 0.355317
C70   C     C_2   0.356615 0.730829 0.434592 0.992522
O19   O     O_2   0.364680 0.665641 0.415402 -0.619223
O20   O     O_R   0.280676 0.768642 0.433245 -0.737093
H30   H     H_    0.236919 0.735018 0.416809 0.362691
S1    S     S_3+6 0.341374 0.096920 0.473975 0.027714
O21   O     O_2   0.344710 0.073180 0.421455 -0.296624
O22   O     O_2   0.326437 0.025196 0.503388 -0.267511
O23   O     O_3   0.264487 0.161848 0.481482 -0.550221
H31   H     H_    0.215073 0.133316 0.469976 0.401053
S2    S     S_3+6 0.667215 0.899046 0.495878 0.026615
O24   O     O_2   0.680435 0.965601 0.462017 -0.263863
O25   O     O_2   0.669213 0.930401 0.547083 -0.307533
O26   O     O_3   0.741957 0.831479 0.489470 -0.540197
H32   H     H_    0.792612 0.859725 0.498884 0.402394
C71   C     C_2   0.723189 0.442512 0.425878 0.969085
O27   O     O_2   0.732252 0.471485 0.386353 -0.585736
O28   O     O_R   0.681085 0.371836 0.429602 -0.761952
H33   H     H_    0.659233 0.351248 0.397190 0.365579
C72   C     C_2   0.272145 0.618305 0.539005 0.945594
O29   O     O_2   0.252593 0.684643 0.526315 -0.602245
O30   O     O_R   0.322717 0.608598 0.579713 -0.758843
H34   H     H_    0.342121 0.660715 0.594357 0.356403
C73   C     C_2   0.554603 0.647768 0.360638 0.916485
O31   O     O_2   0.528330 0.713259 0.350416 -0.597849
O32   O     O_R   0.614484 0.640212 0.397003 -0.756804
H35   H     H_    0.630629 0.692875 0.412298 0.360297
C74   C     C_2   0.408122 0.379815 0.646044 0.960491
O33   O     O_2   0.343971 0.356314 0.661584 -0.591858
O34   O     O_R   0.441965 0.341931 0.605931 -0.802419
H36   H     H_    0.407126 0.296969 0.592650 0.354667

loop_
_geom_bond_atom_site_label_1
_geom_bond_atom_site_label_2
_geom_bond_distance
_ccdc_geom_bond_type
C65   C66   1.353575 D    
C60   C66   1.483223 S    
Zn1   N4    2.034949 S    
C13   C15   1.394417 A    
C35   C37   1.387402 A    
O32   H35   1.013583 S    
N1    C17   1.423101 S    
C8    O11   1.349785 S    
C10   C18   1.391632 A    
C53   C54   1.333033 D    
C70   O19   1.222439 D    
C32   C34   1.420414 A    
C19   C34   1.416446 A    
C5    N1    1.364926 A    
C71   O28   1.395772 S    
C20   C33   1.416469 A    
C19   C25   1.408609 A    
C31   C40   1.414234 A    
C46   C48   1.402386 A    
N3    C63   1.360629 A    
O1    C1    1.307369 A    
C32   C39   1.414911 A    
N1    C7    1.364495 A    
C10   C12   1.394767 A    
C72   O30   1.394768 S    
C50   C52   1.393820 A    
C70   O20   1.398296 S    
O30   H34   1.013947 S    
C62   H24   1.083113 S    
C66   H21   1.083469 S    
C11   C74   1.485787 S    
N4    C64   1.361011 A    
O4    Zn1   2.000373 S    
C41   C43   1.406587 A    
O5    C3    1.301665 A    
C4    C28   1.455066 S    
C61   C63   1.399297 A    
C55   C71   1.468973 S    
C72   O29   1.222529 D    
C9    H6    1.084057 S    
C67   O13   1.223352 D    
S2    O24   1.503408 D    
C31   C33   1.419936 A    
C60   C62   1.403324 A    
C1    C41   1.461181 S    
O34   H36   1.013921 S    
C38   H8    1.083565 S    
N3    C55   1.370330 A    
C35   H9    1.076587 S    
C53   H16   1.086338 S    
C6    N2    1.365773 A    
C57   H26   1.081224 S    
C29   C35   1.415280 A    
C39   H11   1.076651 S    
C49   C51   1.396569 A    
C63   H20   1.081248 S    
C45   S2    1.772859 S    
C13   C67   1.484662 S    
C57   C59   1.398301 A    
C15   H1    1.084142 S    
C45   C47   1.401897 A    
C16   H2    1.084014 S    
O2    C2    1.305929 A    
C5    C21   1.399278 A    
C73   O32   1.396715 S    
C73   O31   1.223180 D    
C29   C32   1.417595 A    
C43   H13   1.083003 S    
C69   O18   1.398081 S    
C36   C38   1.385559 A    
C42   C52   1.415380 A    
O26   H32   0.990539 S    
C44   C46   1.379621 A    
C48   C54   1.439897 S    
C43   C45   1.378229 A    
C47   C53   1.443279 S    
C29   C33   1.420018 A    
C68   O16   1.396706 S    
C51   C70   1.482767 S    
C64   H19   1.081590 S    
C37   H7    1.083529 S    
C9    C17   1.391282 A    
C12   C73   1.484695 S    
C30   C36   1.414695 A    
O7    Zn2   2.002148 S    
S1    O22   1.503448 D    
Zn2   N3    2.034950 S    
C14   C68   1.487612 S    
C55   C57   1.392320 A    
O7    C3    1.302325 A    
C13   C27   1.420177 A    
N4    C56   1.372073 A    
C46   S1    1.773816 S    
C7    C25   1.397852 A    
C30   C34   1.419646 A    
O6    C4    1.299048 A    
C26   C37   1.395022 A    
C8    C26   1.400207 A    
C56   C58   1.392445 A    
C67   O14   1.396851 S    
C25   C38   1.394359 A    
C44   H14   1.083237 S    
C69   O17   1.222969 D    
C58   C60   1.397801 A    
C56   C72   1.472834 S    
C47   C49   1.396139 A    
C49   H17   1.084912 S    
O18   H29   1.013913 S    
C23   C39   1.387091 A    
O3    Zn2   2.000370 S    
O8    C4    1.301643 A    
C10   H5    1.084193 S    
C24   C40   1.385261 A    
O4    C2    1.297812 A    
C30   C31   1.415294 A    
N2    C8    1.365235 A    
C62   C64   1.399826 A    
O20   H30   1.013925 S    
C20   C26   1.408591 A    
C41   C51   1.419139 A    
O1    Zn1   1.991205 S    
C11   C27   1.420799 A    
S1    O21   1.502733 D    
C12   C28   1.419704 A    
O14   H27   1.013179 S    
N2    C18   1.425015 S    
C50   H18   1.085073 S    
C65   H22   1.083757 S    
C2    C42   1.457444 S    
O6    Zn2   2.017966 S    
C21   C23   1.395051 A    
C6    O10   1.350397 S    
C48   C50   1.396853 A    
O3    C1    1.297153 A    
O8    Zn1   2.002154 S    
O28   H33   1.013737 S    
C59   C61   1.403762 A    
C5    O9    1.349914 S    
C36   H10   1.076806 S    
C54   H15   1.087385 S    
C71   O27   1.222826 D    
C58   H25   1.081451 S    
C59   C65   1.483132 S    
C74   O34   1.396616 S    
O23   H31   0.991046 S    
S1    O23   1.682272 S    
C7    O12   1.350175 S    
C15   C17   1.390453 A    
O16   H28   1.013105 S    
C6    C22   1.397004 A    
C22   C24   1.394606 A    
C16   C18   1.393145 A    
S2    O26   1.681987 S    
C14   C28   1.417593 A    
C19   C21   1.408360 A    
C14   C16   1.395561 A    
C3    C27   1.461683 S    
C20   C22   1.407853 A    
C9    C11   1.396124 A    
O2    Zn2   1.991208 S    
C24   H4    1.083558 S    
C61   H23   1.083117 S    
C52   C69   1.482330 S    
O5    Zn1   2.017961 S    
C40   H12   1.076886 S    
S2    O25   1.502830 D    
C42   C44   1.406233 A    
C74   O33   1.223352 D    
C23   H3    1.083533 S    
C68   O15   1.223519 D    
