data_mof_unit_59396.cif
_audit_creation_date              2012-12-10T18:07:45-0500
_audit_creation_method            fapswitch 2.2
_symmetry_space_group_name_H-M    P1
_symmetry_Int_Tables_number       1
_space_group_crystal_system       triclinic
_cell_length_a                    10.639427
_cell_length_b                    12.730996
_cell_length_c                    13.868581
_cell_angle_alpha                 98.271284
_cell_angle_beta                  90.157975
_cell_angle_gamma                 92.75658
_cell_volume                      1856.72604226

loop_
_atom_site_label
_atom_site_type_symbol
_atom_type_description
_atom_site_fract_x
_atom_site_fract_y
_atom_site_fract_z
_atom_type_partial_charge
C1    C     C_R   0.499253 0.483247 0.315719 0.841156
C2    C     C_3   0.964475 0.580854 0.563738 0.402512
C3    C     C_3   0.957746 0.509657 0.411826 0.384873
C4    C     C_3   0.042281 0.489978 0.588363 0.386453
C5    C     C_3   0.876909 0.497892 0.501623 -0.196814
C6    C     C_3   0.123058 0.501832 0.498569 -0.198341
C7    C     C_3   0.954943 0.405242 0.526776 -0.454938
C8    C     C_3   0.045126 0.594413 0.473365 -0.457919
C9    C     C_1   0.502679 0.526838 0.787680 -0.156529
C10   C     C_1   0.502266 0.472959 0.212272 -0.151828
C11   C     C_2   0.506965 0.543980 0.979734 0.377397
C12   C     C_R   0.501223 0.516738 0.684252 0.840500
C13   C     C_2   0.510826 0.454151 0.019931 0.369095
C14   C     C_1   0.505807 0.463579 0.125078 -0.065650
C15   C     C_1   0.504405 0.535588 0.874869 -0.046496
C16   C     C_3   0.996863 0.545069 0.255990 0.111434
C17   C     C_3   0.949646 0.515984 0.151525 -0.824438
C18   C     C_3   0.003166 0.458785 0.745378 0.088729
C19   C     C_3   0.058660 0.472581 0.847883 -0.787866
C20   C     C_3   0.985114 0.264070 0.333008 0.096833
C21   C     C_3   0.034019 0.185298 0.250438 -0.813725
C22   C     C_3   0.016105 0.737286 0.664165 0.098435
C23   C     C_2   0.458037 0.027518 0.478226 0.290707
C24   C     C_3   0.974638 0.809065 0.754390 -0.828361
C25   C     C_3   0.558597 0.273222 0.005769 0.072103
C26   C     C_3   0.701785 0.284178 0.021332 -0.369224
C27   C     C_3   0.749703 0.191668 0.067368 -0.920072
C28   C     C_3   0.574870 0.722481 0.011323 0.064387
C29   C     C_3   0.710953 0.710007 0.043307 -0.374377
C30   C     C_3   0.797011 0.803563 0.023208 -0.911507
C31   C     C_3   0.683724 0.983147 0.657722 0.057967
C32   C     C_3   0.592160 0.987953 0.743528 -0.352330
C33   C     C_3   0.645528 0.936962 0.826844 -0.950314
C34   C     C_2   0.539104 0.973400 0.527160 0.283896
C35   C     C_3   0.247431 0.014775 0.428294 0.056709
C36   C     C_3   0.185331 0.998381 0.525188 -0.382729
C37   C     C_3   0.052272 0.038509 0.531397 -0.886434
C38   C     C_1   0.526789 0.854771 0.519343 0.143230
C39   C     C_1   0.472153 0.145477 0.482509 0.156672
C40   C     C_R   0.259101 0.500598 0.498847 0.894451
C41   C     C_R   0.740894 0.499365 0.501249 0.890756
C42   C     C_3   0.035577 0.418825 0.436431 0.404584
Cu1   Cu    Cu3+1 0.491940 0.395330 0.493960 1.007585
Cu2   Cu    Cu3+1 0.508060 0.604670 0.506040 1.004156
H1    H     H_    0.915572 0.329852 0.548445 0.169255
H2    H     H_    0.092731 0.556474 0.870004 0.250248
H3    H     H_    0.985623 0.451651 0.899914 0.194052
H4    H     H_    0.138566 0.419986 0.850477 0.260863
H5    H     H_    0.904881 0.303748 0.304229 0.179698
H6    H     H_    0.951301 0.219035 0.391726 0.147571
H7    H     H_    0.114127 0.143864 0.276578 0.245147
H8    H     H_    0.957998 0.125369 0.223457 0.204755
H9    H     H_    0.065957 0.227634 0.189552 0.249225
H10   H     H_    0.037896 0.787220 0.606292 0.146776
H11   H     H_    0.103000 0.699079 0.683535 0.171815
H12   H     H_    0.084487 0.669780 0.451617 0.166623
H13   H     H_    0.953498 0.761072 0.813700 0.252636
H14   H     H_    0.050860 0.869662 0.779189 0.204807
H15   H     H_    0.889350 0.850112 0.737598 0.246462
H16   H     H_    0.536116 0.197612 0.956742 0.168954
H17   H     H_    0.507891 0.265656 0.074678 0.146033
H18   H     H_    0.748506 0.286564 0.950026 0.224486
H19   H     H_    0.727778 0.359400 0.069651 0.216067
H20   H     H_    0.707529 0.190199 0.140384 0.261311
H21   H     H_    0.853566 0.201213 0.075926 0.256701
H22   H     H_    0.725776 0.115056 0.020316 0.257433
H23   H     H_    0.086374 0.504389 0.262583 0.162819
H24   H     H_    0.543023 0.799282 0.049429 0.177639
H25   H     H_    0.569091 0.728221 0.932155 0.141636
H26   H     H_    0.713327 0.704890 0.122628 0.239300
H27   H     H_    0.746972 0.635609 0.003423 0.201416
H28   H     H_    0.797773 0.808840 0.944067 0.261324
H29   H     H_    0.894431 0.792122 0.047225 0.259062
H30   H     H_    0.764675 0.879081 0.063583 0.259294
H31   H     H_    0.772329 0.027909 0.684191 0.165955
H32   H     H_    0.711297 0.900684 0.632149 0.153458
H33   H     H_    0.573929 0.072328 0.770445 0.230107
H34   H     H_    0.016191 0.632544 0.271034 0.151330
H35   H     H_    0.501117 0.945826 0.719480 0.206054
H36   H     H_    0.660172 0.851518 0.802177 0.267223
H37   H     H_    0.578433 0.943382 0.888364 0.253093
H38   H     H_    0.736438 0.977855 0.853068 0.257767
H39   H     H_    0.186434 0.973507 0.367994 0.171856
H40   H     H_    0.252044 0.100064 0.418518 0.151687
H41   H     H_    0.181332 0.912367 0.531918 0.216516
H42   H     H_    0.242194 0.041650 0.587060 0.208529
H43   H     H_    0.054646 0.125105 0.527322 0.263583
H44   H     H_    0.009755 0.024477 0.601755 0.249356
H45   H     H_    0.857922 0.551609 0.142482 0.246373
H46   H     H_    0.992541 0.995599 0.471087 0.257505
H47   H     H_    0.018675 0.546028 0.100826 0.211352
H48   H     H_    0.937766 0.428235 0.133175 0.245347
H49   H     H_    0.968328 0.374601 0.725661 0.146803
H50   H     H_    0.922569 0.511607 0.746149 0.167855
N1    N     N_1   0.479830 0.238040 0.484880 -0.161377
N2    N     N_1   0.520170 0.761960 0.515120 -0.160012
O1    O     O_R   0.492210 0.399110 0.356330 -0.578352
O2    O     O_3   0.097371 0.484246 0.680018 -0.583224
O3    O     O_3   0.083505 0.337983 0.368043 -0.576928
O4    O     O_3   0.917769 0.661794 0.632640 -0.579138
O5    O     O_3   0.515626 0.356669 0.958785 -0.632806
O6    O     O_3   0.493368 0.640966 0.039058 -0.624063
O7    O     O_3   0.635465 0.033313 0.581675 -0.635116
O8    O     O_3   0.366067 0.968455 0.418951 -0.630372
O9    O     O_R   0.507790 0.600890 0.643670 -0.581392
O10   O     O_R   0.505820 0.575890 0.366540 -0.561588
O11   O     O_R   0.494180 0.424110 0.633460 -0.563438
O12   O     O_R   0.310050 0.411620 0.494870 -0.543169
O13   O     O_R   0.689950 0.588380 0.505130 -0.543616
O14   O     O_R   0.323660 0.588400 0.505080 -0.599171
O15   O     O_R   0.676340 0.411600 0.494920 -0.595782
O16   O     O_3   0.903373 0.514503 0.319794 -0.590342

loop_
_geom_bond_atom_site_label_1
_geom_bond_atom_site_label_2
_ccdc_geom_bond_type
Cu1   O11   S    
C3    C42   S    
C4    O2    S    
C37   H44   S    
C28   H25   S    
C17   H47   S    
Cu1   Cu2   S    
C8    H12   S    
C19   H2    S    
C22   H10   S    
Cu2   O9    S    
C26   C27   S    
C29   C30   S    
C37   H46   S    
C27   H21   S    
C7    H1    S    
C36   C37   S    
C28   H24   S    
C12   O9    A    
C30   H30   S    
C19   H3    S    
C18   C19   S    
C7    C42   S    
C20   H6    S    
C32   H33   S    
C11   C15   S    
C35   C36   S    
C24   H13   S    
Cu1   N1    S    
C25   H16   S    
C33   H38   S    
C16   H34   S    
C1    O10   A    
C40   O12   A    
Cu2   O13   S    
C2    O4    S    
C41   O13   A    
C13   C14   S    
C17   H48   S    
Cu1   O15   S    
C4    C7    S    
C22   O4    S    
C17   H45   S    
C4    C6    S    
C35   O8    S    
C10   C14   T    
C1    O1    A    
C5    C7    S    
C30   H29   S    
C35   H39   S    
C19   H4    S    
C16   C17   S    
C40   O14   A    
C36   H42   S    
C25   C26   S    
C31   O7    S    
C2    C4    S    
C26   H19   S    
C20   H5    S    
Cu2   N2    S    
C31   H31   S    
C31   C32   S    
C3    O16   S    
C23   C34   D    
C16   H23   S    
C25   H17   S    
C39   N1    T    
C6    C8    S    
C3    C8    S    
C41   O15   A    
C18   H50   S    
C22   C24   S    
C2    C5    S    
C13   O5    S    
C21   H7    S    
C16   O16   S    
C29   H26   S    
C5    C41   S    
C28   C29   S    
C34   C38   S    
C37   H43   S    
C2    C8    S    
C1    C10   S    
Cu1   O1    S    
C3    C5    S    
C12   O11   A    
C30   H28   S    
C35   H40   S    
C33   H36   S    
C22   H11   S    
Cu2   O10   S    
C36   H41   S    
C34   O7    S    
C32   C33   S    
C26   H18   S    
C27   H22   S    
C42   O3    S    
C32   H35   S    
C21   H9    S    
C11   C13   D    
C25   O5    S    
C31   H32   S    
C20   O3    S    
C24   H15   S    
C23   C39   S    
C11   O6    S    
C6    C40   S    
Cu1   O12   S    
C23   O8    S    
C9    C15   T    
C9    C12   S    
C27   H20   S    
C28   O6    S    
C20   C21   S    
C24   H14   S    
C6    C42   S    
C38   N2    T    
C18   H49   S    
C18   O2    S    
C33   H37   S    
C21   H8    S    
C29   H27   S    
Cu2   O14   S    
