data_mof_unit_37746.cif
_audit_creation_date              2012-12-10T17:50:46-0500
_audit_creation_method            fapswitch 2.2
_symmetry_space_group_name_H-M    P1
_symmetry_Int_Tables_number       1
_space_group_crystal_system       triclinic
_cell_length_a                    14.694355
_cell_length_b                    14.640832
_cell_length_c                    15.893372
_cell_angle_alpha                 76.792114
_cell_angle_beta                  102.664715
_cell_angle_gamma                 114.647474
_cell_volume                      2995.69230655

loop_
_atom_site_label
_atom_site_type_symbol
_atom_type_description
_atom_site_fract_x
_atom_site_fract_y
_atom_site_fract_z
_atom_type_partial_charge
C1    C     C_R   0.880051 0.311651 0.514362 0.819435
C2    C     C_R   0.360259 0.924045 0.495802 0.027459
C3    C     C_R   0.676681 0.997250 0.555202 0.044071
C4    C     C_R   0.323630 0.998950 0.498015 0.000024
C5    C     C_R   0.533658 0.050125 0.509063 0.023001
C6    C     C_R   0.465924 0.947532 0.513736 0.045500
C7    C     C_R   0.505130 0.871080 0.545479 -0.237211
C8    C     C_R   0.495560 0.124706 0.506526 -0.190587
C9    C     C_R   0.609023 0.894906 0.567647 0.245361
C10   C     C_R   0.392700 0.099882 0.504252 0.243895
C11   C     C_R   0.704093 0.649763 0.341160 -0.329241
C12   C     C_R   0.119725 0.688396 0.484811 0.819988
C13   C     C_R   0.295183 0.348812 0.657994 -0.334873
C14   C     C_R   0.790317 0.627989 0.369797 0.089754
C15   C     C_R   0.210812 0.373974 0.631308 0.098836
C16   C     C_R   0.999566 0.500039 0.659912 0.817788
C17   C     C_R   0.000375 0.499854 0.340112 0.806239
C18   C     C_R   0.717263 0.512988 0.491238 -0.006940
C19   C     C_R   0.280162 0.482134 0.505908 -0.012737
C20   C     C_R   0.626739 0.531419 0.465416 -0.030671
C21   C     C_R   0.369771 0.461925 0.530622 -0.032100
C22   C     C_R   0.621887 0.601357 0.388264 0.163905
C23   C     C_R   0.780714 0.024635 0.582545 -0.262081
C24   C     C_R   0.375115 0.392901 0.608307 0.164692
C25   C     C_R   0.541709 0.483545 0.512726 0.075685
C26   C     C_R   0.453691 0.507636 0.482001 0.070781
C27   C     C_R   0.452754 0.576796 0.404004 -0.239478
C28   C     C_R   0.541774 0.412708 0.589726 -0.207496
C29   C     C_R   0.535106 0.622401 0.358303 -0.209982
C30   C     C_R   0.460175 0.368596 0.636289 -0.169297
C31   C     C_3   0.961401 0.400846 0.040489 -0.283222
C32   C     C_3   0.038422 0.598560 0.959692 -0.281138
C33   C     C_3   0.906365 0.453190 0.963176 0.136771
C34   C     C_R   0.219166 0.971211 0.493299 -0.276172
C35   C     C_3   0.093457 0.546215 0.037008 0.137132
C36   C     C_1   0.999084 0.500708 0.749106 -0.182384
C37   C     C_1   0.000760 0.498960 0.250975 -0.184919
C38   C     C_3   0.056021 0.451885 0.992872 0.181054
C39   C     C_3   0.943803 0.547520 0.007303 0.180790
C40   C     C_3   0.999997 0.501803 0.915833 0.097127
C41   C     C_3   0.999817 0.497600 0.084334 0.097111
C42   C     C_1   0.999285 0.501289 0.824373 -0.012974
C43   C     C_1   0.000524 0.498211 0.175751 -0.013754
C44   C     C_R   0.811740 0.202634 0.525731 -0.142072
C45   C     C_R   0.847135 0.126793 0.573836 0.202514
C46   C     C_R   0.186975 0.797524 0.480553 -0.143872
C47   C     C_3   0.675136 0.781445 0.539117 -0.676884
C48   C     C_3   0.344438 0.238182 0.425810 -0.656379
C49   C     C_3   0.287606 0.771773 0.341265 -0.670646
C50   C     C_3   0.703867 0.245663 0.337420 -0.635248
C51   C     C_3   0.991057 0.867186 0.408741 -0.659117
C52   C     C_3   0.962634 0.168887 0.704515 -0.677709
C53   C     C_R   0.151412 0.870860 0.488625 0.214000
C54   C     C_R   0.707689 0.173295 0.491339 0.144241
C55   C     C_R   0.290564 0.828388 0.474538 0.161695
C56   C     C_R   0.639046 0.074330 0.518234 0.014678
Cu1   Cu    Cu3+1 0.081740 0.475690 0.522610 0.943107
Cu2   Cu    Cu3+1 0.918260 0.524310 0.477390 0.941909
H1    H     H_    0.268665 0.532179 0.447367 0.128942
H2    H     H_    0.069644 0.678851 0.927533 0.150449
H3    H     H_    0.810407 0.967569 0.616398 0.182384
H4    H     H_    0.188440 0.026188 0.494767 0.154380
H5    H     H_    0.455573 0.792357 0.560298 0.150077
H6    H     H_    0.545933 0.201750 0.514950 0.159014
H7    H     H_    0.531014 0.675491 0.298995 0.145542
H8    H     H_    0.463994 0.315052 0.695326 0.136049
H9    H     H_    0.756327 0.376540 0.969807 0.210008
H10   H     H_    0.799594 0.341862 0.898083 0.219665
H11   H     H_    0.243483 0.623213 0.030445 0.210664
H12   H     H_    0.727329 0.460106 0.548125 0.124935
H13   H     H_    0.200093 0.657262 0.102520 0.219673
H14   H     H_    0.848770 0.620239 0.953315 0.230808
H15   H     H_    0.821445 0.544908 0.048902 0.214881
H16   H     H_    0.151008 0.379117 0.046868 0.229777
H17   H     H_    0.178387 0.454475 0.951305 0.215279
H18   H     H_    0.596392 0.754921 0.640913 0.252179
H19   H     H_    0.704220 0.721393 0.571863 0.233250
H20   H     H_    0.736110 0.845510 0.506375 0.230207
H21   H     H_    0.609483 0.749641 0.489373 0.243305
H22   H     H_    0.306789 0.157972 0.548352 0.246449
H23   H     H_    0.150301 0.342140 0.670614 0.141025
H24   H     H_    0.322159 0.298271 0.435567 0.231948
H25   H     H_    0.282718 0.189264 0.381738 0.219018
H26   H     H_    0.414771 0.275431 0.395002 0.239315
H27   H     H_    0.322518 0.703580 0.468006 0.261545
H28   H     H_    0.327489 0.737997 0.313788 0.215921
H29   H     H_    0.303491 0.850696 0.306478 0.237700
H30   H     H_    0.205112 0.725749 0.330319 0.209762
H31   H     H_    0.672450 0.301305 0.433535 0.270122
H32   H     H_    0.684253 0.169292 0.320864 0.227052
H33   H     H_    0.663918 0.286163 0.285441 0.218716
H34   H     H_    0.853047 0.663835 0.332573 0.126176
H35   H     H_    0.786592 0.289796 0.339569 0.213422
H36   H     H_    0.036247 0.874110 0.540389 0.241399
H37   H     H_    0.018614 0.950635 0.386263 0.208434
H38   H     H_    0.909756 0.838483 0.415577 0.220184
H39   H     H_    0.998856 0.829416 0.359054 0.229527
H40   H     H_    0.979030 0.101281 0.611148 0.242894
H41   H     H_    0.042320 0.184543 0.734360 0.208367
H42   H     H_    0.944739 0.235133 0.705875 0.230505
H43   H     H_    0.913300 0.100252 0.744205 0.220463
H44   H     H_    0.701347 0.703460 0.282052 0.138171
H45   H     H_    0.298489 0.296216 0.717773 0.135671
H46   H     H_    0.389260 0.597810 0.376252 0.140731
H47   H     H_    0.604195 0.389570 0.616307 0.127717
H48   H     H_    0.930169 0.320562 0.072663 0.149745
N1    N     N_R   0.795440 0.560790 0.443380 -0.171463
N2    N     N_2   0.672547 0.235713 0.420321 -0.424628
N3    N     N_2   0.047467 0.844943 0.492026 -0.397820
N4    N     N_2   0.948716 0.151885 0.615554 -0.403178
N5    N     N_R   0.204560 0.439210 0.556620 -0.175696
N6    N     N_3   0.803258 0.404779 0.921249 -0.593982
N7    N     N_3   0.196539 0.594604 0.079011 -0.595237
N8    N     N_3   0.880851 0.598700 0.016123 -0.586625
N9    N     N_3   0.118959 0.400686 0.984057 -0.587782
N10   N     N_2   0.644521 0.815173 0.603009 -0.443556
N11   N     N_2   0.361511 0.178290 0.509032 -0.434381
N12   N     N_2   0.323437 0.772456 0.433548 -0.426694
O1    O     O_R   0.977900 0.338120 0.529810 -0.542503
O2    O     O_R   0.022100 0.661880 0.470190 -0.544412
O3    O     O_R   0.839850 0.379180 0.491620 -0.597753
O4    O     O_R   0.160150 0.620820 0.508380 -0.594339
O5    O     O_R   0.069010 0.479460 0.640020 -0.585073
O6    O     O_R   0.930990 0.520540 0.359980 -0.584064
O7    O     O_R   0.930960 0.520530 0.601820 -0.574701
O8    O     O_R   0.069040 0.479470 0.398180 -0.578919

loop_
_geom_bond_atom_site_label_1
_geom_bond_atom_site_label_2
_ccdc_geom_bond_type
C18   H12   S    
C21   C26   A    
C51   H39   S    
C23   C45   A    
C22   C29   A    
C27   C29   A    
C49   H29   S    
C5    C56   A    
C36   C42   T    
C46   C53   A    
C47   H21   S    
C52   H41   S    
C39   C41   S    
C25   C28   A    
H36   N3    S    
H11   N7    S    
C26   C27   A    
C33   C39   S    
H40   N4    S    
C34   C53   A    
C19   C21   A    
C16   O5    A    
C2    C55   A    
H10   N6    S    
C5    C6    A    
C11   C14   A    
C17   O8    A    
C20   C25   A    
H14   N8    S    
C27   H46   S    
C34   H4    S    
H13   N7    S    
Cu2   N1    S    
C1    O1    A    
C32   C39   S    
C18   N1    A    
C17   O6    A    
Cu1   O4    S    
C12   O2    A    
C3    C23   A    
C50   H32   S    
C46   C55   A    
C31   C33   S    
C13   H45   S    
C16   O7    A    
C51   H38   S    
Cu1   O1    S    
C40   C42   S    
C51   N3    S    
C50   N2    S    
C41   C43   S    
C49   H30   S    
C2    C6    A    
C6    C7    A    
C4    C34   A    
C47   N10   S    
C54   C56   A    
C52   H43   S    
C33   C40   S    
C32   C35   S    
C15   N5    A    
C35   C38   S    
C15   H23   S    
Cu1   O8    S    
C45   N4    S    
C19   H1    S    
C25   C26   A    
C52   H42   S    
H15   N8    S    
C48   H26   S    
C13   C24   A    
C37   C43   T    
C2    C4    A    
C3    C9    A    
Cu1   O5    S    
C3    C56   A    
C50   H33   S    
C1    C44   S    
C49   N12   S    
C52   N4    S    
C28   H47   S    
C39   N8    S    
C14   H34   S    
Cu2   O2    S    
C33   N6    S    
C17   C37   S    
C7    H5    S    
C30   H8    S    
C8    H6    S    
C29   H7    S    
C12   C46   S    
C14   N1    A    
C20   C22   A    
C13   C15   A    
C31   H48   S    
C24   C30   A    
H17   N9    S    
C47   H19   S    
C4    C10   A    
C44   C45   A    
C53   N3    S    
C7    C9    A    
H22   N11   S    
Cu2   O3    S    
C31   C41   S    
C9    N10   S    
C49   H28   S    
C5    C8    A    
C48   H25   S    
C50   H35   S    
C48   N11   S    
C19   N5    A    
C11   C22   A    
Cu2   O6    S    
C31   C38   S    
C54   N2    S    
C28   C30   A    
C10   N11   S    
C16   C36   S    
C38   C40   S    
C38   N9    S    
Cu1   Cu2   S    
Cu1   N5    S    
H16   N9    S    
H31   N2    S    
H18   N10   S    
C48   H24   S    
C35   N7    S    
C11   H44   S    
C18   C20   A    
C32   C40   S    
H27   N12   S    
C35   C41   S    
C1    O3    A    
C44   C54   A    
H9    N6    S    
C23   H3    S    
C12   O4    A    
Cu2   O7    S    
C8    C10   A    
C21   C24   A    
C32   H2    S    
C47   H20   S    
C51   H37   S    
C55   N12   S    
