data_mof_unit_7012.cif
_audit_creation_date              2012-12-11T14:15:01-0500
_audit_creation_method            fapswitch 2.2
_symmetry_space_group_name_H-M    P1
_symmetry_Int_Tables_number       1
_space_group_crystal_system       triclinic
_cell_length_a                    24.358485
_cell_length_b                    17.433526
_cell_length_c                    15.713223
_cell_angle_alpha                 89.761064
_cell_angle_beta                  128.638228
_cell_angle_gamma                 90.259188
_cell_volume                      5212.00206315

loop_
_atom_site_label
_atom_site_type_symbol
_atom_type_description
_atom_site_fract_x
_atom_site_fract_y
_atom_site_fract_z
_atom_type_partial_charge
C1    C     C_R   0.339427 0.378094 0.221196 -0.167192
C2    C     C_R   0.633769 0.687913 0.498538 0.124232
C3    C     C_R   0.866972 0.187885 0.502127 0.127462
C4    C     C_R   0.183082 0.118048 0.503073 0.129857
C5    C     C_R   0.354265 0.619074 0.135058 0.085406
C6    C     C_R   0.647477 0.615049 0.865933 0.086361
C7    C     C_R   0.854064 0.116904 0.134445 0.083191
C8    C     C_R   0.150127 0.105553 0.867859 0.062740
C9    C     C_2   0.647140 0.794208 0.411931 -0.111519
C10   C     C_2   0.274282 0.663343 0.593905 -0.116549
C11   C     C_2   0.241024 0.153180 0.427940 -0.119198
C12   C     C_R   0.652798 0.365463 0.762914 -0.174229
C13   C     C_2   0.852106 0.292275 0.588577 -0.113218
C14   C     C_2   0.660183 0.763655 0.501190 -0.191466
C15   C     C_2   0.261870 0.635929 0.504229 -0.198200
C16   C     C_2   0.245010 0.135912 0.513712 -0.198593
C17   C     C_2   0.839741 0.262882 0.499473 -0.190535
C18   C     C_2   0.287915 0.212473 0.440677 -0.131127
C19   C     C_2   0.800437 0.341139 0.581370 -0.117003
C20   C     C_2   0.699153 0.842849 0.419130 -0.117692
C21   C     C_2   0.229707 0.723583 0.584641 -0.114987
C22   C     C_2   0.300690 0.274951 0.500033 -0.209349
C23   C     C_R   0.847018 0.865107 0.237215 -0.172490
C24   C     C_2   0.731628 0.336175 0.496271 -0.194143
C25   C     C_2   0.767944 0.836343 0.503471 -0.195676
C26   C     C_2   0.199759 0.774943 0.503050 -0.198962
C27   C     C_2   0.652549 0.258374 0.868129 -0.314168
C28   C     C_2   0.330709 0.266932 0.114752 -0.354901
C29   C     C_2   0.152714 0.759702 0.870641 -0.330136
C30   C     C_2   0.845959 0.761657 0.125868 -0.318868
C31   C     C_2   0.722116 0.251028 0.944326 0.275611
C32   C     C_2   0.276168 0.230130 0.100923 0.274282
C33   C     C_2   0.222406 0.752719 0.946311 0.273094
C34   C     C_R   0.154095 0.867589 0.768061 -0.172085
C35   C     C_2   0.800441 0.712952 0.118916 0.276389
C36   C     C_2   0.318355 0.662179 0.034007 -0.204164
C37   C     C_2   0.693509 0.637464 0.979816 -0.218709
C38   C     C_2   0.816806 0.158738 0.032198 -0.206487
C39   C     C_2   0.197972 0.128828 0.978505 -0.198735
C40   C     C_R   0.611279 0.389216 0.408513 -0.150650
C41   C     C_R   0.396135 0.374055 0.591283 -0.139816
C42   C     C_R   0.103963 0.874012 0.409336 -0.142951
C43   C     C_R   0.888258 0.889382 0.591238 -0.152214
C44   C     C_2   0.250138 0.674452 0.973941 -0.158962
C45   C     C_R   0.388223 0.603005 0.593627 -0.101687
C46   C     C_2   0.744152 0.686625 0.008475 -0.149773
C47   C     C_2   0.748981 0.172636 0.975542 -0.163995
C48   C     C_2   0.225887 0.197622 0.994151 -0.124952
C49   C     C_R   0.685624 0.390899 0.590520 -0.124103
C50   C     C_R   0.324103 0.371945 0.408677 -0.146555
C51   C     C_R   0.177255 0.874435 0.591697 -0.128035
C52   C     C_R   0.814354 0.890457 0.409262 -0.137066
C53   C     C_R   0.562906 0.364362 0.767323 -0.127997
C54   C     C_R   0.433108 0.364561 0.228938 -0.133601
C55   C     C_R   0.061528 0.864171 0.765804 -0.130977
C56   C     C_R   0.585754 0.643400 0.407894 -0.104645
C57   C     C_R   0.937414 0.863838 0.234382 -0.125244
C58   C     C_R   0.367500 0.332533 0.186804 0.172410
C59   C     C_R   0.623719 0.327157 0.803191 0.156527
C60   C     C_R   0.878181 0.824206 0.202476 0.158544
C61   C     C_R   0.123831 0.828614 0.806014 0.162450
C62   C     C_R   0.677858 0.368304 0.499215 0.138155
C63   C     C_R   0.338483 0.338350 0.500168 0.141481
C64   C     C_R   0.162466 0.839516 0.501146 0.140116
C65   C     C_R   0.821868 0.868127 0.500518 0.140726
C66   C     C_R   0.312917 0.600565 0.412970 -0.162630
C67   C     C_R   0.914903 0.143125 0.592636 -0.105499
C68   C     C_R   0.657831 0.645019 0.589914 -0.153831
C69   C     C_R   0.843215 0.145604 0.410596 -0.165988
C70   C     C_R   0.186788 0.104108 0.591693 -0.170094
C71   C     C_R   0.424797 0.604525 0.199237 -0.229731
C72   C     C_R   0.576201 0.602986 0.802192 -0.194195
C73   C     C_R   0.925292 0.105292 0.200040 -0.207724
C74   C     C_R   0.078592 0.097811 0.805421 -0.201981
C75   C     C_R   0.669245 0.595360 0.805281 0.195346
C76   C     C_R   0.331891 0.600326 0.196038 0.252144
C77   C     C_R   0.169964 0.092129 0.805031 0.238280
C78   C     C_R   0.115008 0.102659 0.410535 -0.104908
C79   C     C_R   0.831340 0.096965 0.194682 0.218923
C80   C     C_3   0.771071 0.320470 0.003388 -0.328763
C81   C     C_3   0.804439 0.321557 0.124201 -0.905054
C82   C     C_3   0.252169 0.243581 0.169332 -0.311894
C83   C     C_3   0.209982 0.179778 0.171717 -0.990279
C84   C     C_3   0.270423 0.822340 0.008334 -0.333058
C85   C     C_3   0.302877 0.820705 0.128736 -0.885307
C86   C     C_3   0.804866 0.688832 0.216260 -0.332782
C87   C     C_3   0.830007 0.605958 0.248881 -0.894611
C88   C     C_3   0.739288 0.558134 0.852525 -0.333058
C89   C     C_R   0.319690 0.616502 0.504623 0.127390
C90   C     C_3   0.799406 0.613785 0.890011 -0.953865
C91   C     C_3   0.258527 0.578824 0.152712 -0.368265
C92   C     C_3   0.216827 0.647655 0.145386 -0.930335
C93   C     C_3   0.240553 0.059160 0.849527 -0.361798
C94   C     C_3   0.295491 0.121237 0.885387 -0.956325
C95   C     C_3   0.759814 0.064798 0.148762 -0.356425
C96   C     C_3   0.706676 0.125631 0.125676 -0.960084
H1    H     H_    0.286286 0.383725 0.191017 0.082360
H2    H     H_    0.818189 0.372451 0.654082 0.118128
H3    H     H_    0.681606 0.875159 0.346971 0.119387
H4    H     H_    0.228236 0.730931 0.651814 0.125371
H5    H     H_    0.215242 0.628232 0.958242 0.130052
H6    H     H_    0.742273 0.712383 0.943486 0.137821
H7    H     H_    0.714040 0.128184 0.964390 0.149529
H8    H     H_    0.211923 0.231874 0.924849 0.126123
H9    H     H_    0.617668 0.209069 0.839658 0.129374
H10   H     H_    0.343698 0.254038 0.061597 0.135679
H11   H     H_    0.118251 0.709917 0.840498 0.131069
H12   H     H_    0.700796 0.351901 0.776102 0.102640
H13   H     H_    0.848452 0.766719 0.059266 0.122880
H14   H     H_    0.591684 0.388929 0.324928 0.093063
H15   H     H_    0.416280 0.366033 0.674346 0.089325
H16   H     H_    0.083275 0.864996 0.326240 0.089265
H17   H     H_    0.907127 0.889841 0.674416 0.091870
H18   H     H_    0.529577 0.350824 0.788472 0.094178
H19   H     H_    0.467908 0.347144 0.211928 0.096228
H20   H     H_    0.025212 0.849201 0.780894 0.097720
H21   H     H_    0.969713 0.851724 0.211039 0.091467
H22   H     H_    0.456571 0.605001 0.172913 0.114818
H23   H     H_    0.796792 0.854298 0.218381 0.097769
H24   H     H_    0.545071 0.601559 0.829649 0.110002
H25   H     H_    0.958333 0.108620 0.176077 0.114963
H26   H     H_    0.048644 0.095267 0.834896 0.114184
H27   H     H_    0.409312 0.598891 0.677757 0.080319
H28   H     H_    0.556904 0.659261 0.323635 0.089225
H29   H     H_    0.944575 0.158463 0.677315 0.091418
H30   H     H_    0.096797 0.098083 0.327946 0.082359
H31   H     H_    0.603943 0.773672 0.331324 0.115548
H32   H     H_    0.323723 0.653471 0.674295 0.117376
H33   H     H_    0.196153 0.135995 0.346626 0.125865
H34   H     H_    0.204388 0.856181 0.788274 0.093386
H35   H     H_    0.894936 0.271176 0.669105 0.117052
H36   H     H_    0.282794 0.280130 0.548091 0.141759
H37   H     H_    0.712702 0.303548 0.423979 0.131675
H38   H     H_    0.786726 0.802730 0.575182 0.131362
H39   H     H_    0.201979 0.769770 0.436430 0.134874
H40   H     H_    0.762951 0.320579 0.133774 0.252745
H41   H     H_    0.840117 0.272191 0.168442 0.267223
H42   H     H_    0.835791 0.374923 0.162097 0.249374
H43   H     H_    0.812540 0.320946 0.993873 0.165412
H44   H     H_    0.742941 0.375813 0.970373 0.187652
H45   H     H_    0.700383 0.787899 0.581070 0.128820
H46   H     H_    0.159487 0.168871 0.089814 0.270021
H47   H     H_    0.241715 0.126713 0.209003 0.265584
H48   H     H_    0.194221 0.199972 0.220165 0.252065
H49   H     H_    0.298902 0.254309 0.254692 0.188647
H50   H     H_    0.215944 0.293301 0.134347 0.177474
H51   H     H_    0.260953 0.816303 0.137126 0.258826
H52   H     H_    0.339826 0.772216 0.172188 0.268879
H53   H     H_    0.332712 0.874626 0.168404 0.242645
H54   H     H_    0.312336 0.825322 0.999880 0.162862
H55   H     H_    0.241559 0.877404 0.976726 0.187061
H56   H     H_    0.210526 0.642850 0.425143 0.134695
H57   H     H_    0.793924 0.565560 0.181383 0.256034
H58   H     H_    0.883343 0.600166 0.272460 0.262042
H59   H     H_    0.832658 0.589742 0.319806 0.249294
H60   H     H_    0.842847 0.724393 0.289114 0.198640
H61   H     H_    0.752769 0.695591 0.196762 0.169928
H62   H     H_    0.351243 0.702938 0.031685 0.136523
H63   H     H_    0.685166 0.616049 0.035834 0.143640
H64   H     H_    0.849097 0.197559 0.025857 0.139736
H65   H     H_    0.212785 0.089566 0.043300 0.154588
H66   H     H_    0.733668 0.392101 0.673640 0.078664
H67   H     H_    0.292463 0.149972 0.595134 0.137645
H68   H     H_    0.278621 0.362269 0.325169 0.097320
H69   H     H_    0.224312 0.867676 0.674681 0.084213
H70   H     H_    0.766451 0.891297 0.325987 0.082289
H71   H     H_    0.263220 0.591765 0.334198 0.124685
H72   H     H_    0.694104 0.663795 0.672897 0.122079
H73   H     H_    0.808524 0.165938 0.328100 0.137978
H74   H     H_    0.234789 0.100011 0.673822 0.128823
H75   H     H_    0.780427 0.670179 0.848689 0.243322
H76   H     H_    0.832687 0.622824 0.979316 0.267753
H77   H     H_    0.833598 0.588737 0.873178 0.253711
H78   H     H_    0.799727 0.287408 0.419650 0.131072
H79   H     H_    0.755308 0.520566 0.921955 0.184920
H80   H     H_    0.732069 0.519710 0.789942 0.180327
H81   H     H_    0.250774 0.686437 0.216307 0.262318
H82   H     H_    0.193236 0.681347 0.070385 0.270331
H83   H     H_    0.172880 0.626971 0.143456 0.242808
H84   H     H_    0.229754 0.548582 0.073720 0.170198
H85   H     H_    0.262444 0.535110 0.207722 0.173305
H86   H     H_    0.271993 0.171765 0.830181 0.256606
H87   H     H_    0.319847 0.139621 0.969507 0.267572
H88   H     H_    0.337837 0.097641 0.885584 0.252016
H89   H     H_    0.307234 0.208278 0.394918 0.152389
H90   H     H_    0.259786 0.021279 0.920242 0.183590
H91   H     H_    0.234884 0.021678 0.787584 0.176819
H92   H     H_    0.724268 0.184547 0.126118 0.272767
H93   H     H_    0.655051 0.114972 0.044907 0.254142
H94   H     H_    0.698252 0.122307 0.187369 0.252800
H95   H     H_    0.738718 0.031222 0.074104 0.173187
H96   H     H_    0.765891 0.022462 0.207214 0.186409
N1    N     N_R   0.389060 0.424180 0.294540 -0.045631
N2    N     N_R   0.374530 0.423490 0.443400 -0.041624
N3    N     N_R   0.125470 0.923490 0.556600 -0.041935
N4    N     N_R   0.874530 0.923490 0.443400 -0.042080
N5    N     N_R   0.555250 0.423100 0.705420 -0.041071
N6    N     N_R   0.444750 0.423100 0.294580 -0.039943
N7    N     N_R   0.055250 0.923100 0.705420 -0.041061
N8    N     N_R   0.944750 0.923100 0.294580 -0.040745
N9    N     N_R   0.375210 0.577180 0.443400 -0.040730
N10   N     N_R   0.624790 0.577180 0.556600 -0.043426
N11   N     N_R   0.875210 0.077180 0.443400 -0.041449
N12   N     N_R   0.610940 0.424180 0.705460 -0.048431
N13   N     N_R   0.124790 0.077180 0.556600 -0.041746
N14   N     N_R   0.445430 0.577570 0.294580 -0.050748
N15   N     N_R   0.554570 0.577570 0.705420 -0.051323
N16   N     N_R   0.945430 0.077570 0.294580 -0.050771
N17   N     N_R   0.054570 0.077570 0.705420 -0.053917
N18   N     N_R   0.611620 0.576500 0.705460 -0.073184
N19   N     N_R   0.388380 0.576500 0.294540 -0.072280
N20   N     N_R   0.111620 0.076500 0.705460 -0.072325
N21   N     N_R   0.888380 0.076500 0.294540 -0.072606
N22   N     N_R   0.421010 0.576890 0.556640 -0.041570
N23   N     N_R   0.889060 0.924180 0.294540 -0.047128
N24   N     N_R   0.578990 0.576890 0.443360 -0.042259
N25   N     N_R   0.921010 0.076890 0.556640 -0.041962
N26   N     N_R   0.078990 0.076890 0.443360 -0.041114
N27   N     N_R   0.110940 0.924180 0.705460 -0.047335
N28   N     N_R   0.579670 0.423790 0.443360 -0.037853
N29   N     N_R   0.420330 0.423790 0.556640 -0.038421
N30   N     N_R   0.079670 0.923790 0.443360 -0.038146
N31   N     N_R   0.920330 0.923790 0.556640 -0.037507
N32   N     N_R   0.625470 0.423490 0.556600 -0.042647
Ni1   Ni    Ni4+2 0.383200 0.500680 0.370150 0.199136
Ni2   Ni    Ni4+2 0.616800 0.500680 0.629850 0.200137
Ni3   Ni    Ni4+2 0.883200 0.000680 0.370150 0.201815
Ni4   Ni    Ni4+2 0.116800 0.000680 0.629850 0.199281
Ni5   Ni    Ni4+2 0.512440 0.500680 0.370150 0.207969
Ni6   Ni    Ni4+2 0.487560 0.500680 0.629850 0.203997
Ni7   Ni    Ni4+2 0.012440 0.000680 0.370150 0.206335
Ni8   Ni    Ni4+2 0.987560 0.000680 0.629850 0.205313

loop_
_geom_bond_atom_site_label_1
_geom_bond_atom_site_label_2
_ccdc_geom_bond_type
C24   H37   S    
C41   H15   S    
C21   C26   D    
C75   N18   A    
N16   N21   A    
C32   C48   S    
C86   H61   S    
C96   H92   S    
C43   N31   A    
C95   C96   S    
C52   N4    A    
C85   H52   S    
N7    Ni8   S    
N8    N23   A    
C56   N24   A    
N11   Ni3   S    
C53   C59   A    
N6    Ni5   S    
C6    C75   A    
C11   C18   S    
C23   N23   A    
N5    Ni6   S    
C45   H27   S    
C70   N13   A    
C6    C72   A    
C46   H6    S    
C90   H77   S    
C93   C94   S    
C88   H79   S    
N28   Ni5   S    
N13   Ni4   S    
C56   H28   S    
N2    Ni1   S    
C57   H21   S    
C3    C69   A    
C90   H76   S    
C2    C68   A    
C10   C15   D    
C67   H29   S    
N25   Ni8   S    
C23   H23   S    
C83   H48   S    
C35   C86   S    
C55   H20   S    
C27   H9    S    
N1    N6    A    
C48   H8    S    
C5    C36   S    
C29   C33   D    
N17   N20   A    
C40   C62   A    
N5    N12   A    
C96   H94   S    
C95   H95   S    
C86   H60   S    
C54   N6    A    
C42   H16   S    
C26   H39   S    
C27   C59   S    
C77   N20   A    
C52   H70   S    
C22   C63   S    
C12   C59   A    
N14   N19   A    
C71   N14   A    
C55   N7    A    
C28   H10   S    
C30   C60   S    
N29   Ni6   S    
N15   N18   A    
C76   C91   S    
C87   H57   S    
N8    Ni7   S    
N27   Ni4   S    
C39   H65   S    
C45   C89   A    
C93   H91   S    
C26   C64   S    
C36   H62   S    
C93   H90   S    
C14   H45   S    
C16   H67   S    
C31   C47   S    
C40   N28   A    
N14   Ni5   S    
C50   C63   A    
N18   Ni2   S    
C23   C60   A    
C94   H88   S    
C10   H32   S    
C11   H33   S    
C4    C70   A    
C15   H56   S    
C82   H50   S    
C19   H2    S    
C66   N9    A    
C45   N22   A    
C66   C89   A    
C10   C21   S    
C81   H42   S    
N9    N22   A    
C29   C61   S    
N13   N26   A    
C6    C37   S    
C47   H7    S    
N11   N25   A    
C30   H13   S    
C27   C31   D    
C28   C32   D    
C25   C65   S    
C84   C85   S    
C41   N29   A    
C7    C73   A    
C1    H1    S    
C91   C92   S    
C12   H12   S    
C21   H4    S    
C13   C19   S    
C34   N27   A    
C57   C60   A    
C40   H14   S    
C74   N17   A    
C66   H71   S    
C80   H44   S    
C50   H68   S    
C34   C61   A    
C72   N15   A    
N17   Ni8   S    
N20   Ni4   S    
C96   H93   S    
C4    C16   S    
C1    N1    A    
C9    C14   D    
C4    C78   A    
N21   Ni3   S    
C92   H83   S    
C15   C89   S    
C11   C16   D    
C9    C20   S    
C67   N25   A    
C43   C65   A    
C90   H75   S    
C91   H84   S    
C72   H24   S    
C8    C74   A    
N24   Ni5   S    
C13   H35   S    
C87   H58   S    
N7    N27   A    
C69   H73   S    
C25   H38   S    
C49   H66   S    
C79   C95   S    
C92   H82   S    
C95   H96   S    
N2    N29   A    
N3    Ni4   S    
C76   N19   A    
C74   H26   S    
N9    Ni1   S    
C88   C90   S    
N30   Ni7   S    
C69   N11   A    
C73   H25   S    
C91   H85   S    
C49   N32   A    
N19   Ni1   S    
C8    C77   A    
C87   H59   S    
C36   C44   D    
C94   H87   S    
C41   C63   A    
N12   Ni2   S    
C78   H30   S    
C42   C64   A    
N28   N32   A    
C82   H49   S    
C32   C82   S    
C17   H78   S    
C81   H40   S    
C7    C79   A    
C54   C58   A    
C9    H31   S    
N31   Ni8   S    
C24   C62   S    
C49   C62   A    
C71   H22   S    
C22   H36   S    
C86   C87   S    
C33   C44   S    
C73   N16   A    
C3    C67   A    
C51   C64   A    
C85   H51   S    
C80   C81   S    
N32   Ni2   S    
N3    N30   A    
C44   H5    S    
N15   Ni6   S    
C28   C58   S    
C80   H43   S    
C30   C35   D    
C31   C80   S    
C18   H89   S    
C88   H80   S    
C38   C47   D    
C53   N5    A    
C54   H19   S    
C37   H63   S    
C5    C76   A    
C18   C22   D    
C19   C24   D    
C70   H74   S    
C38   H64   S    
C57   N8    A    
C2    C56   A    
C1    C58   A    
C43   H17   S    
C83   H47   S    
C50   N2    A    
C20   H3    S    
C55   C61   A    
C77   C93   S    
C7    C38   S    
C3    C17   S    
N23   Ni3   S    
C12   N12   A    
C83   H46   S    
C2    C14   S    
C33   C84   S    
C85   H53   S    
N26   Ni7   S    
C68   H72   S    
N4    N31   A    
C51   H69   S    
C92   H81   S    
N16   Ni7   S    
N1    Ni1   S    
C13   C17   D    
C68   N10   A    
C84   H55   S    
C75   C88   S    
C79   N21   A    
C34   H34   S    
C5    C71   A    
C82   C83   S    
C20   C25   D    
N10   Ni2   S    
C81   H41   S    
C8    C39   S    
N4    Ni3   S    
C29   H11   S    
C53   H18   S    
C51   N3    A    
C94   H86   S    
N10   N24   A    
C37   C46   D    
C42   N30   A    
C35   C46   S    
C78   N26   A    
C52   C65   A    
C84   H54   S    
C39   C48   D    
N22   Ni6   S    
