data_mof_unit_26610.cif
_audit_creation_date              2012-12-10T20:54:08-0500
_audit_creation_method            fapswitch 2.2
_symmetry_space_group_name_H-M    P1
_symmetry_Int_Tables_number       1
_space_group_crystal_system       triclinic
_cell_length_a                    26.077804
_cell_length_b                    34.361826
_cell_length_c                    21.58278
_cell_angle_alpha                 90.0001
_cell_angle_beta                  127.297367
_cell_angle_gamma                 89.999974
_cell_volume                      15384.9306876

loop_
_atom_site_label
_atom_site_type_symbol
_atom_type_description
_atom_site_fract_x
_atom_site_fract_y
_atom_site_fract_z
_atom_type_partial_charge
C1    C     C_R   0.000000 0.644273 0.500000 0.841820
C2    C     C_R   1.000000 0.355728 0.500000 0.836469
C3    C     C_R   0.500000 0.144273 0.500000 0.841820
C4    C     C_R   0.500000 0.855728 0.500000 0.836469
C5    C     C_R   0.338771 0.745967 0.082210 0.049518
C6    C     C_R   0.662545 0.247991 0.917674 0.050859
C7    C     C_R   0.661229 0.745966 0.917790 0.049517
C8    C     C_R   0.337455 0.247992 0.082326 0.050860
C9    C     C_R   0.838771 0.245967 0.082210 0.049518
C10   C     C_R   0.162545 0.747992 0.917674 0.050859
C11   C     C_R   0.161229 0.245966 0.917790 0.049516
C12   C     C_R   0.837455 0.747992 0.082326 0.050860
C13   C     C_R   0.177250 0.740722 0.039966 0.507740
C14   C     C_R   0.824474 0.243860 0.959304 0.522550
C15   C     C_R   0.822750 0.740723 0.960034 0.507741
C16   C     C_R   0.175526 0.243858 0.040696 0.522549
C17   C     C_R   0.677250 0.240722 0.039966 0.507739
C18   C     C_R   0.324474 0.743859 0.959304 0.522549
C19   C     C_R   0.322750 0.240723 0.960034 0.507739
C20   C     C_R   0.675526 0.743858 0.040696 0.522549
C21   C     C_R   0.136049 0.741584 0.958111 0.078328
C22   C     C_R   0.864543 0.250066 0.040569 0.056859
C23   C     C_R   0.863951 0.741585 0.041889 0.078328
C24   C     C_R   0.135457 0.250064 0.959430 0.056862
C25   C     C_R   0.636050 0.241584 0.958111 0.078328
C26   C     C_R   0.364543 0.750065 0.040569 0.056860
C27   C     C_R   0.363950 0.241584 0.041889 0.078327
C28   C     C_R   0.635457 0.750064 0.959431 0.056862
C29   C     C_R   0.465109 0.581179 0.428480 0.076132
C30   C     C_R   0.543420 0.419621 0.570166 0.082608
C31   C     C_R   0.534891 0.581179 0.571519 0.076133
C32   C     C_R   0.456580 0.419620 0.429834 0.082609
C33   C     C_R   0.965109 0.081179 0.428480 0.076133
C34   C     C_R   0.043420 0.919620 0.570166 0.082608
C35   C     C_R   0.034890 0.081179 0.571519 0.076133
C36   C     C_R   0.956580 0.919620 0.429834 0.082609
C37   C     C_R   0.500000 0.601666 0.500000 -0.050113
C38   C     C_R   0.500000 0.398709 0.500000 -0.116137
C39   C     C_R   1.000000 0.101666 0.500000 -0.050113
C40   C     C_R   0.000000 0.898709 0.500000 -0.116136
C41   C     C_R   0.524612 0.540776 0.569785 0.054228
C42   C     C_R   0.468919 0.459449 0.428928 0.049509
C43   C     C_R   0.475387 0.540776 0.430214 0.054227
C44   C     C_R   0.531081 0.459449 0.571072 0.049508
C45   C     C_R   0.024612 0.040776 0.569785 0.054228
C46   C     C_R   0.968919 0.959449 0.428928 0.049508
C47   C     C_R   0.975387 0.040776 0.430214 0.054227
C48   C     C_R   0.031081 0.959449 0.571072 0.049508
C49   C     C_R   0.500000 0.520484 0.500000 -0.108583
C50   C     C_R   0.500000 0.479858 0.500000 -0.094773
C51   C     C_R   1.000000 0.020484 0.500000 -0.108583
C52   C     C_R   1.000000 0.979858 0.500000 -0.094773
C53   C     C_R   0.537020 0.519973 0.634447 0.179063
C54   C     C_R   0.454346 0.479152 0.361901 0.168651
C55   C     C_R   0.462980 0.519972 0.365553 0.179062
C56   C     C_R   0.545654 0.479152 0.638098 0.168651
C57   C     C_R   0.037020 0.019973 0.634447 0.179063
C58   C     C_R   0.954346 0.979152 0.361902 0.168650
C59   C     C_R   0.962980 0.019973 0.365553 0.179062
C60   C     C_R   0.045654 0.979152 0.638098 0.168651
C61   C     C_R   0.816742 0.889294 0.491007 0.403743
C62   C     C_R   0.156060 0.112819 0.473195 0.397398
C63   C     C_R   0.183258 0.889294 0.508994 0.403741
C64   C     C_R   0.843939 0.112819 0.526803 0.397397
C65   C     C_R   0.316742 0.389294 0.491007 0.403742
C66   C     C_R   0.656060 0.612819 0.473195 0.397399
C67   C     C_R   0.683258 0.389294 0.508994 0.403740
C68   C     C_R   0.343939 0.612819 0.526803 0.397397
C69   C     C_R   0.823975 0.850035 0.514320 0.354391
C70   C     C_R   0.167602 0.150776 0.459566 0.318069
C71   C     C_R   0.176025 0.850035 0.485681 0.354394
C72   C     C_R   0.832397 0.150776 0.540432 0.318070
C73   C     C_R   0.323974 0.350035 0.514320 0.354392
C74   C     C_R   0.667602 0.650776 0.459566 0.318068
C75   C     C_R   0.676025 0.350035 0.485681 0.354395
C76   C     C_R   0.332397 0.650776 0.540432 0.318069
C77   C     C_R   1.000000 0.855930 0.500000 0.819076
C78   C     C_R   1.000000 0.144222 0.500000 0.822294
C79   C     C_R   0.500000 0.355930 0.500000 0.819076
C80   C     C_R   0.500000 0.644222 0.500000 0.822294
C81   C     C_R   0.780920 0.821736 0.460049 -0.210827
C82   C     C_R   0.207076 0.176320 0.522494 -0.229134
C83   C     C_R   0.219081 0.821736 0.539952 -0.210825
C84   C     C_R   0.792924 0.176320 0.477504 -0.229134
C85   C     C_R   0.280920 0.321736 0.460049 -0.210827
C86   C     C_R   0.707076 0.676320 0.522494 -0.229134
C87   C     C_R   0.719081 0.321736 0.539952 -0.210827
C88   C     C_R   0.292924 0.676320 0.477504 -0.229133
C89   C     C_R   0.736769 0.831719 0.380555 0.370688
C90   C     C_R   0.232624 0.164496 0.598724 0.418202
C91   C     C_R   0.263231 0.831719 0.619446 0.370684
C92   C     C_R   0.767375 0.164496 0.401274 0.418201
C93   C     C_R   0.236769 0.331719 0.380555 0.370687
C94   C     C_R   0.732624 0.664496 0.598724 0.418202
C95   C     C_R   0.763232 0.331719 0.619446 0.370686
C96   C     C_R   0.267375 0.664496 0.401274 0.418202
C97   C     C_R   0.734102 0.869956 0.355954 0.423775
C98   C     C_R   0.219463 0.126944 0.612192 0.410322
C99   C     C_R   0.265898 0.869956 0.644047 0.423776
C100  C     C_R   0.780536 0.126944 0.387806 0.410321
C101  C     C_R   0.234102 0.369956 0.355954 0.423775
C102  C     C_R   0.719463 0.626944 0.612192 0.410321
C103  C     C_R   0.765898 0.369956 0.644047 0.423776
C104  C     C_R   0.280536 0.626944 0.387806 0.410321
C105  C     C_R   0.770861 0.899490 0.411540 -0.105453
C106  C     C_R   0.179428 0.101340 0.548820 -0.096152
C107  C     C_R   0.229139 0.899490 0.588461 -0.105453
C108  C     C_R   0.820571 0.101340 0.451178 -0.096152
C109  C     C_R   0.270861 0.399490 0.411540 -0.105452
C110  C     C_R   0.679428 0.601340 0.548820 -0.096152
C111  C     C_R   0.729139 0.399490 0.588461 -0.105451
C112  C     C_R   0.320571 0.601340 0.451178 -0.096153
C113  C     C_R   0.720026 0.785210 0.495167 0.149336
C114  C     C_R   0.280831 0.214049 0.507288 0.131839
C115  C     C_R   0.279974 0.785210 0.504833 0.149336
C116  C     C_R   0.719169 0.214049 0.492712 0.131840
C117  C     C_R   0.220026 0.285210 0.495167 0.149336
C118  C     C_R   0.780831 0.714049 0.507288 0.131839
C119  C     C_R   0.779974 0.285210 0.504833 0.149336
C120  C     C_R   0.219169 0.714049 0.492712 0.131840
C121  C     C_R   0.697168 0.749556 0.502203 -0.111909
C122  C     C_R   0.302814 0.249867 0.498432 -0.155774
C123  C     C_R   0.302832 0.749555 0.497797 -0.111908
C124  C     C_R   0.697186 0.249867 0.501569 -0.155773
C125  C     C_R   0.197168 0.249556 0.502203 -0.111909
C126  C     C_R   0.802814 0.749867 0.498431 -0.155774
C127  C     C_R   0.802832 0.249555 0.497797 -0.111908
C128  C     C_R   0.197186 0.749867 0.501569 -0.155773
C129  C     C_R   0.728160 0.713983 0.509933 0.152166
C130  C     C_R   0.269832 0.285096 0.487575 0.145647
C131  C     C_R   0.271840 0.713983 0.490067 0.152166
C132  C     C_R   0.730168 0.285096 0.512425 0.145648
C133  C     C_R   0.228160 0.213983 0.509933 0.152166
C134  C     C_R   0.769832 0.785096 0.487575 0.145646
C135  C     C_R   0.771840 0.213983 0.490067 0.152166
C136  C     C_R   0.230168 0.785096 0.512425 0.145648
C137  C     C_R   0.451101 0.918763 0.495565 0.110156
C138  C     C_R   0.549022 0.081237 0.504718 0.118109
C139  C     C_R   0.548898 0.918763 0.504436 0.110156
C140  C     C_R   0.450977 0.081237 0.495281 0.118110
C141  C     C_R   0.951102 0.418763 0.495565 0.110156
C142  C     C_R   0.049023 0.581237 0.504718 0.118110
C143  C     C_R   0.048899 0.418762 0.504436 0.110156
C144  C     C_R   0.950977 0.581237 0.495281 0.118110
C145  C     C_R   0.500000 0.898326 0.500000 -0.060980
C146  C     C_R   0.500000 0.101677 0.500000 -0.066545
C147  C     C_R   0.000000 0.398326 0.500000 -0.060980
C148  C     C_R   1.000000 0.601677 0.500000 -0.066545
C149  C     C_R   0.540755 0.959117 0.488464 0.063698
C150  C     C_R   0.459140 0.040894 0.511357 0.063951
C151  C     C_R   0.459245 0.959117 0.511536 0.063697
C152  C     C_R   0.540859 0.040894 0.488642 0.063951
C153  C     C_R   0.040754 0.459117 0.488464 0.063698
C154  C     C_R   0.959140 0.540894 0.511357 0.063951
C155  C     C_R   0.959245 0.459117 0.511536 0.063697
C156  C     C_R   0.040859 0.540894 0.488642 0.063951
C157  C     C_R   0.140257 0.750086 0.500298 0.830678
C158  C     C_R   0.859991 0.249667 0.499921 0.818181
C159  C     C_R   0.859742 0.750086 0.499702 0.830678
C160  C     C_R   0.140009 0.249667 0.500079 0.818178
C161  C     C_R   0.640258 0.250086 0.500298 0.830679
C162  C     C_R   0.359990 0.749668 0.499921 0.818181
C163  C     C_R   0.359743 0.250086 0.499702 0.830678
C164  C     C_R   0.640009 0.749668 0.500079 0.818178
C165  C     C_R   0.500000 0.979608 0.500000 -0.091267
C166  C     C_R   0.500000 0.020399 0.500000 -0.098640
C167  C     C_R   0.000000 0.479608 0.500000 -0.091267
C168  C     C_R   1.000000 0.520399 0.500000 -0.098640
C169  C     C_R   0.569863 0.979370 0.459497 0.171886
C170  C     C_R   0.430003 0.020666 0.540310 0.193778
C171  C     C_R   0.430137 0.979370 0.540503 0.171887
C172  C     C_R   0.569997 0.020666 0.459689 0.193778
C173  C     C_R   0.069863 0.479370 0.459497 0.171886
C174  C     C_R   0.930003 0.520666 0.540310 0.193778
C175  C     C_R   0.930137 0.479370 0.540503 0.171887
C176  C     C_R   0.069997 0.520666 0.459689 0.193778
C177  C     C_R   0.894429 0.749933 0.288716 0.830447
C178  C     C_R   0.105884 0.250124 0.711310 0.823458
C179  C     C_R   0.105571 0.749933 0.711283 0.830446
C180  C     C_R   0.894116 0.250124 0.288690 0.823458
C181  C     C_R   0.394429 0.249933 0.288716 0.830447
C182  C     C_R   0.605884 0.750124 0.711310 0.823458
C183  C     C_R   0.605571 0.249933 0.711283 0.830446
C184  C     C_R   0.394116 0.750124 0.288690 0.823458
C185  C     C_R   0.378364 0.742074 0.164139 0.150240
C186  C     C_R   0.624373 0.256664 0.837417 0.136954
C187  C     C_R   0.621636 0.742074 0.835861 0.150240
C188  C     C_R   0.375627 0.256664 0.162583 0.136953
C189  C     C_R   0.878364 0.242074 0.164139 0.150239
C190  C     C_R   0.124373 0.756664 0.837417 0.136954
C191  C     C_R   0.121636 0.242073 0.835861 0.150240
C192  C     C_R   0.875627 0.756664 0.162583 0.136954
C193  C     C_R   0.351932 0.749525 0.203656 -0.060419
C194  C     C_R   0.648900 0.248246 0.796199 -0.064538
C195  C     C_R   0.648068 0.749525 0.796344 -0.060417
C196  C     C_R   0.351099 0.248246 0.203801 -0.064537
C197  C     C_R   0.851932 0.249525 0.203656 -0.060419
C198  C     C_R   0.148900 0.748246 0.796199 -0.064538
C199  C     C_R   0.148068 0.249525 0.796344 -0.060418
C200  C     C_R   0.851099 0.748246 0.203801 -0.064537
C201  C     C_R   0.285155 0.754855 0.162381 0.073520
C202  C     C_R   0.713678 0.237007 0.835785 0.123533
C203  C     C_R   0.714845 0.754856 0.837619 0.073520
C204  C     C_R   0.286322 0.237006 0.164215 0.123531
C205  C     C_R   0.785155 0.254855 0.162381 0.073520
C206  C     C_R   0.213678 0.737007 0.835784 0.123533
C207  C     C_R   0.214845 0.254855 0.837619 0.073520
C208  C     C_R   0.786323 0.737006 0.164215 0.123532
C209  C     C_R   0.244106 0.747665 0.081356 -0.042213
C210  C     C_R   0.756668 0.241603 0.917784 -0.028834
C211  C     C_R   0.755893 0.747666 0.918643 -0.042213
C212  C     C_R   0.243332 0.241602 0.082216 -0.028836
C213  C     C_R   0.744106 0.247665 0.081356 -0.042213
C214  C     C_R   0.256668 0.741603 0.917784 -0.028834
C215  C     C_R   0.255893 0.247666 0.918643 -0.042213
C216  C     C_R   0.743332 0.741602 0.082216 -0.028835
C217  C     C_R   0.271070 0.746007 0.040805 -0.107226
C218  C     C_R   0.730179 0.245167 0.958805 -0.121849
C219  C     C_R   0.728930 0.746006 0.959195 -0.107227
C220  C     C_R   0.269820 0.245167 0.041195 -0.121848
C221  C     C_R   0.771070 0.246007 0.040805 -0.107226
C222  C     C_R   0.230179 0.745167 0.958805 -0.121849
C223  C     C_R   0.228930 0.246006 0.959195 -0.107227
C224  C     C_R   0.769820 0.745167 0.041195 -0.121849
O1    O     O_3   1.000000 0.750000 0.500000 -0.473824
O2    O     O_3   1.000000 0.250000 0.500000 -0.493498
O3    O     O_3   0.500000 0.250000 0.500000 -0.473824
O4    O     O_3   0.500000 0.750000 0.500000 -0.493498
O5    O     O_R   0.992580 0.662560 0.545880 -0.642659
O6    O     O_R   0.007420 0.337440 0.454120 -0.640475
O7    O     O_R   0.007420 0.662560 0.454120 -0.642660
O8    O     O_R   0.992580 0.337440 0.545880 -0.640475
O9    O     O_R   0.492580 0.162560 0.545880 -0.642659
O10   O     O_R   0.507420 0.837440 0.454120 -0.640475
O11   O     O_R   0.507420 0.162560 0.454120 -0.642660
O12   O     O_R   0.492580 0.837440 0.545880 -0.640475
O13   O     O_R   0.053270 0.837440 0.545830 -0.655012
O14   O     O_R   0.946730 0.162560 0.454170 -0.651411
O15   O     O_R   0.946730 0.837440 0.454170 -0.655012
O16   O     O_R   0.053270 0.162560 0.545830 -0.651410
O17   O     O_R   0.553270 0.337440 0.545830 -0.655012
O18   O     O_R   0.446730 0.662560 0.454170 -0.651411
O19   O     O_R   0.446730 0.337440 0.454170 -0.655012
O20   O     O_R   0.553270 0.662560 0.545830 -0.651410
O21   O     O_R   0.092900 0.727070 0.454160 -0.639817
O22   O     O_R   0.907100 0.272930 0.545840 -0.644038
O23   O     O_R   0.907100 0.727070 0.545840 -0.639818
O24   O     O_R   0.092900 0.272930 0.454160 -0.644038
O25   O     O_R   0.592900 0.227070 0.454160 -0.639817
O26   O     O_R   0.407100 0.772930 0.545840 -0.644038
O27   O     O_R   0.407100 0.227070 0.545840 -0.639818
O28   O     O_R   0.592900 0.772930 0.454160 -0.644038
O29   O     O_R   0.861280 0.772920 0.454160 -0.669311
O30   O     O_R   0.138720 0.227080 0.545840 -0.617909
O31   O     O_R   0.138720 0.772920 0.545840 -0.669309
O32   O     O_R   0.861280 0.227080 0.454160 -0.617910
O33   O     O_R   0.361280 0.272920 0.454160 -0.669310
O34   O     O_R   0.638720 0.727080 0.545840 -0.617909
O35   O     O_R   0.638720 0.272920 0.545840 -0.669309
O36   O     O_R   0.361280 0.727080 0.454160 -0.617910
O37   O     O_R   0.942960 0.727070 0.325140 -0.639382
O38   O     O_R   0.057040 0.272930 0.674860 -0.635483
O39   O     O_R   0.057040 0.727070 0.674860 -0.639382
O40   O     O_R   0.942960 0.272930 0.325140 -0.635484
O41   O     O_R   0.442960 0.227070 0.325140 -0.639382
O42   O     O_R   0.557040 0.772930 0.674860 -0.635483
O43   O     O_R   0.557040 0.227070 0.674860 -0.639382
O44   O     O_R   0.442960 0.772930 0.325140 -0.635484
O45   O     O_R   0.882220 0.772920 0.325130 -0.649815
O46   O     O_R   0.117780 0.227080 0.674870 -0.629878
O47   O     O_R   0.117780 0.772920 0.674870 -0.649814
O48   O     O_R   0.882220 0.227080 0.325130 -0.629879
O49   O     O_R   0.382220 0.272920 0.325130 -0.649815
O50   O     O_R   0.617780 0.727080 0.674870 -0.629879
O51   O     O_R   0.617780 0.272920 0.674870 -0.649814
O52   O     O_R   0.382220 0.727080 0.325130 -0.629879
Zn1   Zn    Zn3+2 0.076130 0.782750 0.565500 0.914502
Zn2   Zn    Zn3+2 0.923870 0.217250 0.434500 0.971888
Zn3   Zn    Zn3+2 0.923870 0.782750 0.434500 0.914500
Zn4   Zn    Zn3+2 0.076130 0.217250 0.565500 0.971889
Zn5   Zn    Zn3+2 0.576130 0.282750 0.565500 0.914502
Zn6   Zn    Zn3+2 0.423870 0.717250 0.434500 0.971889
Zn7   Zn    Zn3+2 0.423870 0.282750 0.434500 0.914500
Zn8   Zn    Zn3+2 0.576130 0.717250 0.565500 0.971889
Zn9   Zn    Zn3+2 0.010650 0.717250 0.434510 0.943998
Zn10  Zn    Zn3+2 0.989350 0.282750 0.565490 0.953661
Zn11  Zn    Zn3+2 0.989350 0.717250 0.565490 0.943998
Zn12  Zn    Zn3+2 0.010650 0.282750 0.434510 0.953660
Zn13  Zn    Zn3+2 0.510650 0.217250 0.434510 0.943998
Zn14  Zn    Zn3+2 0.489350 0.782750 0.565490 0.953661
Zn15  Zn    Zn3+2 0.489350 0.217250 0.565490 0.943998
Zn16  Zn    Zn3+2 0.510650 0.782750 0.434510 0.953660
C225  C     C_3   0.445156 0.724403 0.208707 -0.926424
H1    H     H_    0.452671 0.703351 0.252557 0.209491
H2    H     H_    0.451082 0.707023 0.170161 0.240029
H3    H     H_    0.482667 0.747362 0.239019 0.267188
C226  C     C_3   0.562578 0.279992 0.797397 -0.921824
H4    H     H_    0.564211 0.304620 0.765314 0.213978
H5    H     H_    0.520092 0.261593 0.755355 0.252554
H6    H     H_    0.556806 0.293449 0.839499 0.259365
C227  C     C_3   0.554844 0.724403 0.791292 -0.926422
H7    H     H_    0.547328 0.703351 0.747442 0.209490
H8    H     H_    0.548918 0.707022 0.829838 0.240028
H9    H     H_    0.517333 0.747362 0.760982 0.267188
C228  C     C_3   0.437421 0.279993 0.202603 -0.921823
H10   H     H_    0.435788 0.304620 0.234686 0.213978
H11   H     H_    0.479908 0.261594 0.244645 0.252554
H12   H     H_    0.443193 0.293450 0.160501 0.259365
C229  C     C_3   0.945156 0.224403 0.208707 -0.926423
H13   H     H_    0.952671 0.203351 0.252556 0.209491
H14   H     H_    0.951082 0.207024 0.170160 0.240029
H15   H     H_    0.982667 0.247362 0.239019 0.267189
C230  C     C_3   0.062578 0.779992 0.797397 -0.921822
H16   H     H_    0.064211 0.804620 0.765314 0.213977
H17   H     H_    0.020092 0.761594 0.755355 0.252554
H18   H     H_    0.056806 0.793449 0.839499 0.259364
C231  C     C_3   0.054844 0.224403 0.791292 -0.926422
H19   H     H_    0.047328 0.203351 0.747441 0.209491
H20   H     H_    0.048918 0.207022 0.829838 0.240027
H21   H     H_    0.017333 0.247362 0.760983 0.267188
C232  C     C_3   0.937422 0.779993 0.202603 -0.921823
H22   H     H_    0.935788 0.804620 0.234686 0.213978
H23   H     H_    0.979908 0.761594 0.244645 0.252553
H24   H     H_    0.943194 0.793450 0.160502 0.259364
O53   O     O_3   0.687513 0.806501 0.328483 -0.564396
C233  C     C_3   0.709709 0.780276 0.299403 -0.188610
H25   H     H_    0.734316 0.755219 0.339459 0.156532
H26   H     H_    0.742044 0.794063 0.288213 0.151450
H27   H     H_    0.667281 0.768667 0.243097 0.193286
O54   O     O_3   0.265450 0.191245 0.658944 -0.553934
C234  C     C_3   0.332585 0.186427 0.700782 -0.272179
H28   H     H_    0.347084 0.173644 0.666077 0.128906
H29   H     H_    0.351780 0.168291 0.753093 0.175868
H30   H     H_    0.355808 0.215426 0.721241 0.193314
O55   O     O_3   0.312488 0.806502 0.671517 -0.564398
C235  C     C_3   0.290295 0.780278 0.700602 -0.188592
H31   H     H_    0.265675 0.755224 0.660542 0.156526
H32   H     H_    0.257971 0.794069 0.711806 0.151454
H33   H     H_    0.332724 0.768665 0.756902 0.193281
O56   O     O_3   0.734550 0.191246 0.341055 -0.553935
C236  C     C_3   0.667415 0.186428 0.299219 -0.272176
H34   H     H_    0.652916 0.173644 0.333923 0.128904
H35   H     H_    0.648218 0.168294 0.246905 0.175866
H36   H     H_    0.644193 0.215428 0.278763 0.193314
O57   O     O_3   0.187513 0.306501 0.328483 -0.564395
C237  C     C_3   0.209709 0.280276 0.299403 -0.188616
H37   H     H_    0.234316 0.255219 0.339459 0.156533
H38   H     H_    0.242044 0.294063 0.288214 0.151451
H39   H     H_    0.167281 0.268667 0.243097 0.193287
O58   O     O_3   0.765449 0.691245 0.658944 -0.553934
C238  C     C_3   0.832585 0.686427 0.700782 -0.272177
H40   H     H_    0.847084 0.673644 0.666077 0.128906
H41   H     H_    0.851780 0.668291 0.753093 0.175867
H42   H     H_    0.855808 0.715426 0.721241 0.193313
O59   O     O_3   0.812488 0.306502 0.671517 -0.564398
C239  C     C_3   0.790295 0.280278 0.700602 -0.188594
H43   H     H_    0.765675 0.255224 0.660542 0.156526
H44   H     H_    0.757971 0.294069 0.711806 0.151454
H45   H     H_    0.832725 0.268665 0.756902 0.193282
O60   O     O_3   0.234550 0.691245 0.341055 -0.553935
C240  C     C_3   0.167415 0.686428 0.299219 -0.272177
H46   H     H_    0.152916 0.673644 0.333923 0.128904
H47   H     H_    0.148218 0.668294 0.246905 0.175866
H48   H     H_    0.144193 0.715428 0.278763 0.193314
O61   O     O_3   0.687604 0.878934 0.278242 -0.550663
C241  C     C_3   0.717658 0.882897 0.241938 -0.283370
H49   H     H_    0.748695 0.857496 0.253086 0.151855
H50   H     H_    0.746333 0.910137 0.260549 0.158776
H51   H     H_    0.679676 0.884756 0.178086 0.199185
O62   O     O_3   0.244136 0.116422 0.687428 -0.577155
C242  C     C_3   0.298423 0.092177 0.718308 -0.337280
H52   H     H_    0.330754 0.102462 0.704133 0.136510
H53   H     H_    0.283582 0.061738 0.697985 0.178357
H54   H     H_    0.327074 0.092000 0.782676 0.185341
O63   O     O_3   0.312395 0.878934 0.721760 -0.550663
C243  C     C_3   0.282340 0.882900 0.758061 -0.283383
H55   H     H_    0.251296 0.857502 0.746908 0.151849
H56   H     H_    0.253671 0.910142 0.739452 0.158783
H57   H     H_    0.320320 0.884757 0.821913 0.199187
O64   O     O_3   0.755863 0.116422 0.312569 -0.577154
C244  C     C_3   0.701575 0.092179 0.281688 -0.337278
H58   H     H_    0.669243 0.102465 0.295862 0.136510
H59   H     H_    0.716414 0.061740 0.302012 0.178356
H60   H     H_    0.672924 0.092001 0.217321 0.185342
O65   O     O_3   0.187604 0.378934 0.278242 -0.550664
C245  C     C_3   0.217657 0.382897 0.241938 -0.283367
H61   H     H_    0.248695 0.357496 0.253086 0.151854
H62   H     H_    0.246333 0.410137 0.260549 0.158776
H63   H     H_    0.179676 0.384756 0.178086 0.199184
O66   O     O_3   0.744136 0.616422 0.687428 -0.577155
C246  C     C_3   0.798423 0.592177 0.718308 -0.337280
H64   H     H_    0.830754 0.602462 0.704133 0.136510
H65   H     H_    0.783582 0.561738 0.697985 0.178357
H66   H     H_    0.827074 0.592000 0.782676 0.185341
O67   O     O_3   0.812395 0.378934 0.721759 -0.550662
C247  C     C_3   0.782340 0.382901 0.758061 -0.283383
H67   H     H_    0.751296 0.357502 0.746908 0.151849
H68   H     H_    0.753671 0.410142 0.739452 0.158783
H69   H     H_    0.820321 0.384757 0.821913 0.199188
O68   O     O_3   0.255863 0.616422 0.312570 -0.577155
C248  C     C_3   0.201575 0.592179 0.281688 -0.337275
H70   H     H_    0.169243 0.602465 0.295862 0.136510
H71   H     H_    0.216415 0.561740 0.302012 0.178355
H72   H     H_    0.172925 0.592001 0.217321 0.185341
C249  C     C_3   0.691832 0.823586 0.497277 -0.795154
H73   H     H_    0.682732 0.822305 0.541266 0.220751
H74   H     H_    0.724728 0.848615 0.515456 0.238505
H75   H     H_    0.646437 0.830040 0.438826 0.261623
C250  C     C_3   0.311411 0.175840 0.508870 -0.846657
H76   H     H_    0.314261 0.175152 0.459590 0.234971
H77   H     H_    0.360214 0.172731 0.564918 0.243325
H78   H     H_    0.284806 0.149320 0.502798 0.220946
C251  C     C_3   0.308167 0.823586 0.502724 -0.795155
H79   H     H_    0.317268 0.822305 0.458735 0.220750
H80   H     H_    0.275272 0.848615 0.484544 0.238504
H81   H     H_    0.353563 0.830040 0.561174 0.261624
C252  C     C_3   0.688589 0.175840 0.491130 -0.846658
H82   H     H_    0.685739 0.175152 0.540410 0.234971
H83   H     H_    0.639786 0.172731 0.435082 0.243324
H84   H     H_    0.715194 0.149320 0.497202 0.220946
C253  C     C_3   0.191832 0.323586 0.497277 -0.795156
H85   H     H_    0.182732 0.322305 0.541266 0.220752
H86   H     H_    0.224728 0.348615 0.515456 0.238506
H87   H     H_    0.146437 0.330040 0.438826 0.261623
C254  C     C_3   0.811411 0.675840 0.508870 -0.846657
H88   H     H_    0.814261 0.675152 0.459590 0.234971
H89   H     H_    0.860214 0.672731 0.564918 0.243325
H90   H     H_    0.784806 0.649320 0.502798 0.220946
C255  C     C_3   0.808167 0.323586 0.502724 -0.795155
H91   H     H_    0.817268 0.322305 0.458735 0.220751
H92   H     H_    0.775272 0.348615 0.484544 0.238504
H93   H     H_    0.853563 0.330040 0.561174 0.261624
C256  C     C_3   0.188589 0.675840 0.491130 -0.846658
H94   H     H_    0.185739 0.675152 0.540410 0.234971
H95   H     H_    0.139786 0.672731 0.435082 0.243325
H96   H     H_    0.215194 0.649320 0.497202 0.220946
C257  C     C_3   0.387686 0.898545 0.462563 -0.899268
H97   H     H_    0.371323 0.882517 0.408749 0.227517
H98   H     H_    0.393444 0.877512 0.505258 0.258041
H99   H     H_    0.348826 0.919522 0.445584 0.260417
C258  C     C_3   0.612512 0.101435 0.538062 -0.921602
H100  H     H_    0.628736 0.117410 0.591877 0.227880
H101  H     H_    0.651397 0.080461 0.555112 0.253699
H102  H     H_    0.606875 0.122512 0.495514 0.258156
C259  C     C_3   0.612314 0.898545 0.537437 -0.899269
H103  H     H_    0.628678 0.882517 0.591252 0.227518
H104  H     H_    0.606556 0.877512 0.494743 0.258042
H105  H     H_    0.651174 0.919522 0.554416 0.260417
C260  C     C_3   0.387488 0.101435 0.461937 -0.921603
H106  H     H_    0.371264 0.117410 0.408122 0.227880
H107  H     H_    0.348603 0.080461 0.444887 0.253699
H108  H     H_    0.393124 0.122512 0.504485 0.258156
C261  C     C_3   0.887686 0.398545 0.462563 -0.899268
H109  H     H_    0.871323 0.382517 0.408749 0.227517
H110  H     H_    0.893444 0.377512 0.505258 0.258042
H111  H     H_    0.848826 0.419522 0.445584 0.260417
C262  C     C_3   0.112512 0.601435 0.538062 -0.921603
H112  H     H_    0.128736 0.617410 0.591877 0.227880
H113  H     H_    0.151397 0.580461 0.555112 0.253700
H114  H     H_    0.106875 0.622512 0.495514 0.258156
C263  C     C_3   0.112314 0.398545 0.537437 -0.899269
H115  H     H_    0.128678 0.382517 0.591252 0.227518
H116  H     H_    0.106556 0.377512 0.494743 0.258042
H117  H     H_    0.151174 0.419522 0.554416 0.260417
C264  C     C_3   0.887488 0.601435 0.461937 -0.921602
H118  H     H_    0.871264 0.617410 0.408122 0.227880
H119  H     H_    0.848603 0.580461 0.444887 0.253699
H120  H     H_    0.893124 0.622512 0.504485 0.258156
C265  C     C_3   0.593281 0.957755 0.419281 -0.870882
H121  H     H_    0.569200 0.968800 0.359409 0.238827
H122  H     H_    0.646288 0.960980 0.453153 0.246573
H123  H     H_    0.580312 0.926604 0.409548 0.256607
C266  C     C_3   0.406193 0.042330 0.580043 -0.919411
H124  H     H_    0.429975 0.031353 0.639891 0.238583
H125  H     H_    0.419136 0.073486 0.589742 0.253254
H126  H     H_    0.353155 0.039090 0.545805 0.237688
C267  C     C_3   0.406718 0.957756 0.580719 -0.870882
H127  H     H_    0.430799 0.968800 0.640590 0.238827
H128  H     H_    0.353711 0.960980 0.546846 0.246572
H129  H     H_    0.419688 0.926605 0.590453 0.256606
C268  C     C_3   0.593807 0.042330 0.419957 -0.919411
H130  H     H_    0.570026 0.031352 0.360110 0.238583
H131  H     H_    0.580863 0.073485 0.410258 0.253254
H132  H     H_    0.646846 0.039090 0.454196 0.237688
C269  C     C_3   0.093281 0.457755 0.419281 -0.870882
H133  H     H_    0.069200 0.468800 0.359409 0.238827
H134  H     H_    0.146288 0.460980 0.453153 0.246573
H135  H     H_    0.080312 0.426604 0.409548 0.256607
C270  C     C_3   0.906193 0.542330 0.580043 -0.919411
H136  H     H_    0.929975 0.531353 0.639891 0.238583
H137  H     H_    0.919136 0.573486 0.589742 0.253254
H138  H     H_    0.853155 0.539090 0.545805 0.237688
C271  C     C_3   0.906718 0.457756 0.580719 -0.870882
H139  H     H_    0.930799 0.468801 0.640590 0.238827
H140  H     H_    0.853711 0.460980 0.546846 0.246572
H141  H     H_    0.919688 0.426605 0.590453 0.256606
C272  C     C_3   0.093807 0.542330 0.419957 -0.919411
H142  H     H_    0.070026 0.531352 0.360110 0.238583
H143  H     H_    0.080863 0.573486 0.410258 0.253254
H144  H     H_    0.146846 0.539090 0.454196 0.237688
C273  C     C_3   0.259438 0.770587 0.204514 -0.742978
H145  H     H_    0.213360 0.786462 0.164311 0.259699
H146  H     H_    0.252947 0.746620 0.233661 0.280624
H147  H     H_    0.293254 0.792321 0.249126 0.190694
C274  C     C_3   0.734633 0.217642 0.791327 -0.819324
H148  H     H_    0.761103 0.238498 0.781402 0.260370
H149  H     H_    0.765078 0.191936 0.824039 0.236299
H150  H     H_    0.693537 0.206242 0.733843 0.198567
C275  C     C_3   0.740561 0.770588 0.795486 -0.742978
H151  H     H_    0.786639 0.786463 0.835689 0.259698
H152  H     H_    0.747053 0.746621 0.766339 0.280624
H153  H     H_    0.706745 0.792321 0.750874 0.190693
C276  C     C_3   0.265368 0.217641 0.208673 -0.819323
H154  H     H_    0.234925 0.191934 0.175963 0.236298
H155  H     H_    0.238896 0.238497 0.218597 0.260372
H156  H     H_    0.306464 0.206242 0.266159 0.198566
C277  C     C_3   0.759438 0.270587 0.204514 -0.742977
H157  H     H_    0.713360 0.286462 0.164311 0.259698
H158  H     H_    0.752947 0.246619 0.233661 0.280625
H159  H     H_    0.793254 0.292320 0.249126 0.190694
C278  C     C_3   0.234633 0.717642 0.791327 -0.819323
H160  H     H_    0.261103 0.738498 0.781402 0.260370
H161  H     H_    0.265077 0.691936 0.824038 0.236298
H162  H     H_    0.193537 0.706242 0.733842 0.198566
C279  C     C_3   0.240561 0.270588 0.795486 -0.742978
H163  H     H_    0.286639 0.286463 0.835690 0.259698
H164  H     H_    0.247053 0.246620 0.766339 0.280624
H165  H     H_    0.206745 0.292321 0.750874 0.190694
C280  C     C_3   0.765368 0.717641 0.208673 -0.819323
H166  H     H_    0.734924 0.691935 0.175962 0.236298
H167  H     H_    0.738896 0.738497 0.218598 0.260371
H168  H     H_    0.806463 0.706242 0.266158 0.198566
O69   O     O_3   0.151515 0.731580 0.078605 -0.607171
C281  C     C_3   0.166350 0.692402 0.103491 -0.285349
H169  H     H_    0.218722 0.688389 0.150557 0.195089
H170  H     H_    0.150420 0.672195 0.054526 0.140859
H171  H     H_    0.140387 0.684134 0.127403 0.194562
O70   O     O_3   0.850041 0.247026 0.918823 -0.605961
C282  C     C_3   0.890718 0.214947 0.935791 -0.358213
H172  H     H_    0.877248 0.187876 0.951385 0.146748
H173  H     H_    0.941654 0.222519 0.982709 0.183057
H174  H     H_    0.887443 0.208320 0.883181 0.188236
O71   O     O_3   0.848485 0.731581 0.921394 -0.607171
C283  C     C_3   0.833651 0.692403 0.896508 -0.285349
H175  H     H_    0.781278 0.688390 0.849442 0.195089
H176  H     H_    0.849580 0.672196 0.945473 0.140860
H177  H     H_    0.859614 0.684135 0.872597 0.194562
O72   O     O_3   0.149958 0.247022 0.081176 -0.605963
C284  C     C_3   0.109284 0.214942 0.064209 -0.358208
H178  H     H_    0.122760 0.187871 0.048622 0.146748
H179  H     H_    0.058348 0.222512 0.017286 0.183051
H180  H     H_    0.112555 0.208316 0.116817 0.188239
O73   O     O_3   0.651515 0.231579 0.078605 -0.607171
C285  C     C_3   0.666350 0.192402 0.103491 -0.285350
H181  H     H_    0.718723 0.188389 0.150557 0.195089
H182  H     H_    0.650421 0.172195 0.054526 0.140860
H183  H     H_    0.640387 0.184133 0.127403 0.194563
O74   O     O_3   0.350041 0.747025 0.918823 -0.605961
C286  C     C_3   0.390718 0.714946 0.935791 -0.358214
H184  H     H_    0.377246 0.687875 0.951384 0.146748
H185  H     H_    0.441653 0.722518 0.982709 0.183056
H186  H     H_    0.387443 0.708319 0.883181 0.188237
O75   O     O_3   0.348485 0.231581 0.921394 -0.607170
C287  C     C_3   0.333651 0.192403 0.896508 -0.285348
H187  H     H_    0.281278 0.188390 0.849442 0.195089
H188  H     H_    0.349580 0.172196 0.945473 0.140860
H189  H     H_    0.359614 0.184135 0.872597 0.194562
O76   O     O_3   0.649958 0.747023 0.081177 -0.605963
C288  C     C_3   0.609283 0.714943 0.064209 -0.358211
H190  H     H_    0.622757 0.687872 0.048618 0.146748
H191  H     H_    0.558347 0.722514 0.017288 0.183053
H192  H     H_    0.612557 0.708316 0.116818 0.188238
C289  C     C_3   0.065899 0.730631 0.916409 -0.826059
H193  H     H_    0.061422 0.705569 0.945178 0.248072
H194  H     H_    0.039121 0.755557 0.916980 0.253213
H195  H     H_    0.042490 0.720764 0.855929 0.235309
C290  C     C_3   0.930185 0.268500 0.078509 -0.810391
H196  H     H_    0.929655 0.287849 0.036907 0.267545
H197  H     H_    0.943618 0.287468 0.127909 0.249730
H198  H     H_    0.967799 0.246007 0.099157 0.224530
C291  C     C_3   0.934101 0.730632 0.083591 -0.826059
H199  H     H_    0.938579 0.705570 0.054822 0.248072
H200  H     H_    0.960879 0.755558 0.083020 0.253213
H201  H     H_    0.957510 0.720765 0.144070 0.235309
C292  C     C_3   0.069814 0.268498 0.921492 -0.810394
H202  H     H_    0.070344 0.287846 0.963094 0.267546
H203  H     H_    0.056382 0.287467 0.872094 0.249730
H204  H     H_    0.032200 0.246005 0.900840 0.224528
C293  C     C_3   0.565899 0.230630 0.916409 -0.826061
H205  H     H_    0.561422 0.205569 0.945178 0.248073
H206  H     H_    0.539121 0.255556 0.916980 0.253213
H207  H     H_    0.542490 0.220764 0.855929 0.235309
C294  C     C_3   0.430185 0.768499 0.078509 -0.810391
H208  H     H_    0.429655 0.787849 0.036907 0.267545
H209  H     H_    0.443619 0.787467 0.127909 0.249730
H210  H     H_    0.467799 0.746006 0.099157 0.224530
C295  C     C_3   0.434101 0.230631 0.083591 -0.826059
H211  H     H_    0.438578 0.205570 0.054822 0.248073
H212  H     H_    0.460879 0.255558 0.083020 0.253213
H213  H     H_    0.457510 0.220765 0.144070 0.235309
C296  C     C_3   0.569814 0.768498 0.921492 -0.810393
H214  H     H_    0.570344 0.787847 0.963094 0.267546
H215  H     H_    0.556381 0.787467 0.872093 0.249730
H216  H     H_    0.532200 0.746005 0.900841 0.224529
C297  C     C_3   0.413759 0.601552 0.352431 -0.827290
H217  H     H_    0.377933 0.615505 0.357038 0.295442
H218  H     H_    0.435936 0.623854 0.338118 0.224165
H219  H     H_    0.384692 0.581172 0.302895 0.241638
C298  C     C_3   0.605641 0.401527 0.638686 -0.876227
H220  H     H_    0.632681 0.389166 0.618738 0.245813
H221  H     H_    0.638530 0.423420 0.683300 0.237484
H222  H     H_    0.595785 0.378358 0.666057 0.247195
C299  C     C_3   0.586241 0.601552 0.647568 -0.827291
H223  H     H_    0.622067 0.615505 0.642962 0.295443
H224  H     H_    0.564064 0.623854 0.661882 0.224164
H225  H     H_    0.615307 0.581172 0.697104 0.241637
C300  C     C_3   0.394359 0.401527 0.361314 -0.876224
H226  H     H_    0.367319 0.389166 0.381262 0.245813
H227  H     H_    0.361471 0.423420 0.316700 0.237484
H228  H     H_    0.404215 0.378358 0.333943 0.247195
C301  C     C_3   0.913759 0.101552 0.352431 -0.827290
H229  H     H_    0.877933 0.115505 0.357038 0.295442
H230  H     H_    0.935936 0.123854 0.338118 0.224164
H231  H     H_    0.884692 0.081172 0.302895 0.241638
C302  C     C_3   0.105641 0.901527 0.638686 -0.876226
H232  H     H_    0.132681 0.889166 0.618738 0.245813
H233  H     H_    0.138529 0.923420 0.683300 0.237484
H234  H     H_    0.095785 0.878358 0.666057 0.247195
C303  C     C_3   0.086241 0.101552 0.647568 -0.827291
H235  H     H_    0.122067 0.115505 0.642962 0.295443
H236  H     H_    0.064064 0.123854 0.661882 0.224164
H237  H     H_    0.115307 0.081172 0.697104 0.241637
C304  C     C_3   0.894359 0.901527 0.361314 -0.876224
H238  H     H_    0.867319 0.889166 0.381261 0.245813
H239  H     H_    0.861471 0.923420 0.316699 0.237484
H240  H     H_    0.904215 0.878358 0.333943 0.247195
C305  C     C_3   0.530232 0.539732 0.692165 -0.862180
H241  H     H_    0.491866 0.525223 0.691431 0.245882
H242  H     H_    0.576518 0.538553 0.751807 0.235561
H243  H     H_    0.513696 0.570272 0.676727 0.273684
C306  C     C_3   0.436852 0.457135 0.290154 -0.934950
H244  H     H_    0.465429 0.466925 0.270718 0.244561
H245  H     H_    0.447822 0.425706 0.301041 0.247166
H246  H     H_    0.385002 0.461451 0.241551 0.248593
C307  C     C_3   0.469767 0.539731 0.307834 -0.862182
H247  H     H_    0.508134 0.525222 0.308568 0.245883
H248  H     H_    0.423481 0.538552 0.248193 0.235563
H249  H     H_    0.486303 0.570271 0.323272 0.273685
C308  C     C_3   0.563148 0.457135 0.709847 -0.934951
H250  H     H_    0.534572 0.466926 0.729283 0.244560
H251  H     H_    0.552179 0.425707 0.698959 0.247166
H252  H     H_    0.614999 0.461452 0.758449 0.248593
C309  C     C_3   0.030232 0.039732 0.692165 -0.862181
H253  H     H_    0.991866 0.025223 0.691431 0.245882
H254  H     H_    0.076518 0.038553 0.751807 0.235562
H255  H     H_    0.013696 0.070272 0.676727 0.273684
C310  C     C_3   0.936853 0.957135 0.290154 -0.934950
H256  H     H_    0.965429 0.966925 0.270718 0.244560
H257  H     H_    0.947822 0.925706 0.301041 0.247165
H258  H     H_    0.885003 0.961451 0.241551 0.248593
C311  C     C_3   0.969767 0.039731 0.307834 -0.862181
H259  H     H_    0.008134 0.025222 0.308568 0.245882
H260  H     H_    0.923482 0.038552 0.248193 0.235562
H261  H     H_    0.986303 0.070271 0.323272 0.273685
C312  C     C_3   0.063148 0.957135 0.709847 -0.934951
H262  H     H_    0.034572 0.966926 0.729283 0.244560
H263  H     H_    0.052179 0.925707 0.698959 0.247165
H264  H     H_    0.114998 0.961452 0.758449 0.248593
C313  C     C_3   0.756997 0.941777 0.387497 -0.803277
H265  H     H_    0.796640 0.954227 0.388243 0.220335
H266  H     H_    0.711276 0.945791 0.328174 0.264528
H267  H     H_    0.751979 0.958456 0.427631 0.250858
C314  C     C_3   0.161414 0.061745 0.560407 -0.774420
H268  H     H_    0.109456 0.056191 0.514452 0.263794
H269  H     H_    0.189639 0.038936 0.556818 0.215520
H270  H     H_    0.169994 0.059202 0.617222 0.255998
C315  C     C_3   0.243005 0.941777 0.612504 -0.803281
H271  H     H_    0.203364 0.954228 0.611760 0.220334
H272  H     H_    0.288728 0.945790 0.671826 0.264528
H273  H     H_    0.248022 0.958456 0.572369 0.250858
C316  C     C_3   0.838584 0.061745 0.439590 -0.774418
H274  H     H_    0.890542 0.056192 0.485543 0.263794
H275  H     H_    0.810360 0.038936 0.443180 0.215522
H276  H     H_    0.830003 0.059201 0.382773 0.255997
C317  C     C_3   0.256998 0.441777 0.387497 -0.803276
H277  H     H_    0.296640 0.454227 0.388244 0.220335
H278  H     H_    0.211276 0.445791 0.328174 0.264528
H279  H     H_    0.251979 0.458456 0.427631 0.250858
C318  C     C_3   0.661414 0.561745 0.560406 -0.774420
H280  H     H_    0.609456 0.556191 0.514452 0.263794
H281  H     H_    0.689639 0.538936 0.556817 0.215521
H282  H     H_    0.669994 0.559202 0.617222 0.255998
C319  C     C_3   0.743005 0.441777 0.612504 -0.803281
H283  H     H_    0.703364 0.454228 0.611759 0.220334
H284  H     H_    0.788728 0.445790 0.671825 0.264528
H285  H     H_    0.748022 0.458456 0.572368 0.250858
C320  C     C_3   0.338584 0.561745 0.439590 -0.774419
H286  H     H_    0.390543 0.556192 0.485543 0.263794
H287  H     H_    0.310360 0.538936 0.443181 0.215523
H288  H     H_    0.330003 0.559202 0.382774 0.255998
O77   O     O_3   0.845177 0.917492 0.548746 -0.560663
C321  C     C_3   0.890758 0.939259 0.548218 -0.291693
H289  H     H_    0.871482 0.968710 0.524120 0.184332
H290  H     H_    0.906848 0.925198 0.516229 0.150921
H291  H     H_    0.933592 0.943219 0.609260 0.199932
O78   O     O_3   0.119160 0.087349 0.411492 -0.592170
C322  C     C_3   0.159839 0.068070 0.398871 -0.265986
H292  H     H_    0.198917 0.051806 0.451545 0.144100
H293  H     H_    0.180900 0.088751 0.380186 0.191493
H294  H     H_    0.130691 0.046575 0.351354 0.183781
O79   O     O_3   0.154823 0.917492 0.451255 -0.560664
C323  C     C_3   0.109244 0.939260 0.451785 -0.291696
H295  H     H_    0.128522 0.968711 0.475883 0.184330
H296  H     H_    0.093155 0.925200 0.483775 0.150924
H297  H     H_    0.066410 0.943221 0.390744 0.199933
O80   O     O_3   0.880839 0.087349 0.588505 -0.592171
C324  C     C_3   0.840160 0.068070 0.601127 -0.265985
H298  H     H_    0.801080 0.051806 0.548453 0.144100
H299  H     H_    0.819100 0.088751 0.619814 0.191494
H300  H     H_    0.869308 0.046575 0.648643 0.183781
O81   O     O_3   0.345177 0.417492 0.548746 -0.560663
C325  C     C_3   0.390758 0.439260 0.548218 -0.291691
H301  H     H_    0.371482 0.468710 0.524121 0.184331
H302  H     H_    0.406848 0.425198 0.516229 0.150921
H303  H     H_    0.433592 0.443219 0.609260 0.199932
O82   O     O_3   0.619160 0.587349 0.411492 -0.592170
C326  C     C_3   0.659839 0.568070 0.398871 -0.265986
H304  H     H_    0.698917 0.551806 0.451545 0.144101
H305  H     H_    0.680900 0.588751 0.380186 0.191493
H306  H     H_    0.630691 0.546575 0.351354 0.183781
O83   O     O_3   0.654823 0.417492 0.451255 -0.560663
C327  C     C_3   0.609244 0.439260 0.451785 -0.291699
H307  H     H_    0.628521 0.468710 0.475882 0.184331
H308  H     H_    0.593155 0.425200 0.483775 0.150925
H309  H     H_    0.566409 0.443221 0.390744 0.199933
O84   O     O_3   0.380839 0.587349 0.588505 -0.592171
C328  C     C_3   0.340160 0.568070 0.601127 -0.265983
H310  H     H_    0.301080 0.551806 0.548453 0.144099
H311  H     H_    0.319100 0.588751 0.619814 0.191494
H312  H     H_    0.369308 0.546575 0.648643 0.183781
O85   O     O_3   0.862885 0.840942 0.592747 -0.560977
C329  C     C_3   0.927281 0.838674 0.619378 -0.237645
H313  H     H_    0.944315 0.866483 0.611325 0.156319
H314  H     H_    0.933895 0.814578 0.590494 0.136953
H315  H     H_    0.958211 0.832541 0.682667 0.182611
O86   O     O_3   0.147090 0.161318 0.385988 -0.580044
C330  C     C_3   0.082375 0.173380 0.342336 -0.253285
H316  H     H_    0.050220 0.149315 0.334105 0.179742
H317  H     H_    0.066574 0.182389 0.283840 0.187722
H318  H     H_    0.076914 0.198922 0.369542 0.139005
O87   O     O_3   0.137114 0.840941 0.407254 -0.560979
C331  C     C_3   0.072718 0.838675 0.380623 -0.237644
H319  H     H_    0.055685 0.866484 0.388676 0.156323
H320  H     H_    0.066104 0.814580 0.409508 0.136953
H321  H     H_    0.041788 0.832542 0.317335 0.182610
O88   O     O_3   0.852909 0.161318 0.614011 -0.580044
C332  C     C_3   0.917625 0.173379 0.657663 -0.253288
H322  H     H_    0.949779 0.149313 0.665894 0.179744
H323  H     H_    0.933427 0.182388 0.716159 0.187722
H324  H     H_    0.923087 0.198920 0.630458 0.139005
O89   O     O_3   0.362885 0.340942 0.592747 -0.560977
C333  C     C_3   0.427281 0.338674 0.619378 -0.237646
H325  H     H_    0.444315 0.366482 0.611325 0.156319
H326  H     H_    0.433895 0.314578 0.590494 0.136952
H327  H     H_    0.458211 0.332541 0.682667 0.182611
O90   O     O_3   0.647090 0.661318 0.385988 -0.580043
C334  C     C_3   0.582375 0.673380 0.342335 -0.253286
H328  H     H_    0.550220 0.649315 0.334105 0.179742
H329  H     H_    0.566574 0.682389 0.283840 0.187722
H330  H     H_    0.576914 0.698922 0.369542 0.139005
O91   O     O_3   0.637114 0.340941 0.407253 -0.560979
C335  C     C_3   0.572718 0.338675 0.380623 -0.237646
H331  H     H_    0.555685 0.366484 0.388676 0.156323
H332  H     H_    0.566104 0.314580 0.409508 0.136953
H333  H     H_    0.541788 0.332542 0.317335 0.182611
O92   O     O_3   0.352909 0.661318 0.614011 -0.580044
C336  C     C_3   0.417625 0.673379 0.657663 -0.253286
H334  H     H_    0.449779 0.649313 0.665894 0.179743
H335  H     H_    0.433427 0.682388 0.716159 0.187722
H336  H     H_    0.423087 0.698920 0.630458 0.139004

loop_
_geom_bond_atom_site_label_1
_geom_bond_atom_site_label_2
_ccdc_geom_bond_type
C246  H66   S    
C334  H329  S    
C313  H265  S    
C198  C206  A    
O27   Zn15  S    
O73   C285  S    
O84   C328  S    
C107  C315  S    
C314  H268  S    
C81   C134  S    
C165  C166  A    
C207  C279  S    
C257  H97   S    
C266  H126  S    
C12   C23   A    
C45   C57   A    
C299  H223  S    
O1    Zn11  S    
C208  C280  S    
C247  H68   S    
C294  H209  S    
C157  O31   A    
C180  O40   A    
C17   C213  A    
C293  H207  S    
C6    C25   A    
C195  C203  A    
C115  C136  A    
C333  H326  S    
C184  C193  S    
C174  C270  S    
C153  C173  A    
C328  H312  S    
C183  O43   A    
O76   C288  S    
C30   C38   A    
C171  C267  S    
O2    Zn2   S    
C260  H106  S    
C177  O37   A    
C16   C212  A    
C214  C222  A    
C321  H291  S    
C3    O11   A    
C179  O39   A    
C5    C217  A    
C95   C103  A    
C96   C104  A    
C139  C259  S    
C177  C200  S    
O48   Zn2   S    
C233  H25   S    
C79   O19   A    
O44   Zn16  S    
C61   C105  A    
C314  H269  S    
C65   O81   S    
C243  H57   S    
C306  H246  S    
C97   C105  A    
C161  O35   A    
C333  H327  S    
C229  H14   S    
C251  H80   S    
C162  O36   A    
C299  H224  S    
C108  C316  S    
C119  C255  S    
O41   Zn13  S    
C68   O84   S    
C285  H182  S    
C160  O24   A    
C335  H333  S    
C9    C189  A    
C41   C49   A    
C300  H228  S    
C73   O89   S    
C302  H232  S    
C10   C21   A    
C12   C192  A    
C308  H252  S    
O20   Zn8   S    
C100  C108  A    
O54   C234  S    
O21   Zn9   S    
O75   C287  S    
O35   Zn5   S    
C202  C274  S    
O56   C236  S    
C309  H255  S    
C11   C223  A    
C112  C320  S    
C275  H152  S    
C288  H192  S    
C212  C220  A    
C265  H121  S    
C239  H45   S    
C7    C28   A    
C31   C37   A    
C285  H183  S    
C328  H310  S    
C231  H21   S    
O13   Zn1   S    
C291  H199  S    
C216  C224  A    
O90   C334  S    
C297  H218  S    
C275  H153  S    
C240  H47   S    
C1    O7    A    
O59   C239  S    
C298  H220  S    
C256  H96   S    
O25   Zn13  S    
C204  C212  A    
C233  H27   S    
C120  C128  A    
C13   C21   A    
C292  H202  S    
C229  H13   S    
C66   C110  A    
C312  H264  S    
C329  H314  S    
C304  H238  S    
C72   C84   A    
C162  O26   A    
C280  H167  S    
O23   Zn11  S    
C75   O91   S    
C313  H267  S    
C32   C300  S    
C332  H323  S    
C305  H241  S    
C33   C47   A    
C262  H114  S    
C301  H231  S    
C245  H63   S    
C33   C301  S    
C35   C45   A    
C314  H270  S    
C99   C107  A    
C124  C161  S    
C227  H9    S    
C44   C50   A    
C54   C306  S    
O74   C286  S    
C321  H290  S    
C4    O10   A    
C252  H82   S    
C235  H31   S    
C187  C227  S    
O63   C243  S    
C62   C106  A    
C269  H135  S    
C83   C91   A    
C300  H226  S    
C6    C186  A    
C98   C106  A    
C316  H274  S    
C170  C266  S    
C17   C25   A    
C283  H175  S    
C303  H236  S    
C36   C304  S    
C209  C217  A    
C284  H179  S    
C118  C129  A    
C55   C307  S    
C311  H259  S    
C3    O9    A    
C150  C170  A    
O52   Zn6   S    
C82   C133  S    
C163  O27   A    
C254  H90   S    
C63   O79   S    
C19   C215  A    
C61   C69   A    
C79   O17   A    
C144  C154  A    
O58   C238  S    
C70   C82   A    
C261  H111  S    
C158  O32   A    
C288  H191  S    
C141  C147  A    
C47   C59   A    
O55   C235  S    
C19   O75   S    
O47   Zn1   S    
C126  C134  A    
C268  H130  S    
C232  H22   S    
C40   C77   S    
O17   Zn5   S    
C276  H155  S    
C250  H76   S    
C301  H229  S    
O18   Zn6   S    
C16   O72   S    
C101  O65   S    
O64   C244  S    
C302  H233  S    
C87   C132  S    
C178  C199  S    
C102  O66   S    
C84   C135  S    
C253  H85   S    
C103  O67   S    
C259  H105  S    
C244  H60   S    
C89   O53   S    
C204  C276  S    
C238  H40   S    
C264  H120  S    
C181  O49   A    
C248  H70   S    
C230  H16   S    
C238  H42   S    
C193  C201  A    
C258  H100  S    
C116  C135  A    
C255  H91   S    
O88   C332  S    
C34   C302  S    
C62   C70   A    
C225  H1    S    
C173  C269  S    
O3    Zn15  S    
C31   C299  S    
C7    C187  A    
C164  O28   A    
O2    Zn12  S    
C237  H37   S    
C326  H305  S    
C152  C172  A    
C230  H17   S    
C170  C171  A    
C156  C168  A    
O46   Zn4   S    
C150  C166  A    
C111  C319  S    
C183  C194  S    
C151  C171  A    
C124  C132  A    
C289  H194  S    
C68   C112  A    
C329  H313  S    
C27   C295  S    
C181  C196  S    
C60   C312  S    
C304  H240  S    
C219  C224  A    
C85   C93   A    
C33   C39   A    
C105  C313  S    
C258  H102  S    
O92   C336  S    
C228  H11   S    
C281  H171  S    
C87   C95   A    
C305  H243  S    
C290  H196  S    
C36   C46   A    
C336  H334  S    
C189  C229  S    
C2    O8    A    
C242  H54   S    
C192  C200  A    
C273  H145  S    
C46   C58   A    
C282  H174  S    
C316  H275  S    
C203  C211  A    
C18   C214  A    
C205  C277  S    
C235  H33   S    
C18   O74   S    
C201  C209  A    
O60   C240  S    
C252  H83   S    
C243  H56   S    
C128  C157  S    
C64   C108  A    
C286  H186  S    
C71   C83   A    
C324  H299  S    
C149  C169  A    
C37   C80   S    
C274  H149  S    
C115  C123  A    
C154  C174  A    
O40   Zn12  S    
C39   C78   S    
C13   C209  A    
C149  C165  A    
C335  H332  S    
C178  O38   A    
C249  H75   S    
C155  C167  A    
C104  C112  A    
C10   C222  A    
C260  H107  S    
C2    C147  S    
C151  C165  A    
C14   O70   S    
C5    C26   A    
O81   C325  S    
C272  H143  S    
C71   O87   S    
C66   O82   S    
C291  H201  S    
C269  H133  S    
C117  C130  A    
C307  H248  S    
C278  H161  S    
C237  H38   S    
O71   C283  S    
C48   C52   A    
C318  H282  S    
C73   C85   A    
O16   Zn4   S    
C280  H166  S    
C13   O69   S    
O42   Zn14  S    
C250  H78   S    
C270  H137  S    
C241  H51   S    
C41   C53   A    
C83   C136  S    
C74   O90   S    
C115  C251  S    
C158  O22   A    
C29   C43   A    
C323  H296  S    
O38   Zn10  S    
C42   C50   A    
C318  H280  S    
C253  H87   S    
C325  H302  S    
C318  H281  S    
C330  H318  S    
C95   O59   S    
O22   Zn10  S    
C185  C225  S    
C29   C37   A    
C213  C221  A    
C206  C278  S    
C298  H222  S    
C218  C221  A    
C244  H59   S    
C4    O12   A    
C263  H117  S    
C43   C55   A    
C246  H65   S    
C262  H112  S    
C54   C55   A    
C317  H279  S    
C31   C41   A    
C281  H169  S    
C186  C194  A    
O2    Zn10  S    
O8    Zn10  S    
O68   C248  S    
O14   Zn2   S    
O3    Zn7   S    
C137  C257  S    
C152  C166  A    
C104  O68   S    
C287  H187  S    
C179  C198  S    
C179  O47   A    
C26   C294  S    
C325  H303  S    
C211  C219  A    
C163  O33   A    
C114  C250  S    
O26   Zn14  S    
C57   C309  S    
C142  C156  A    
C16   C24   A    
C14   C22   A    
C279  H164  S    
C296  H214  S    
C175  C271  S    
C303  H235  S    
C232  H24   S    
C161  O25   A    
C206  C214  A    
C141  C261  S    
C138  C146  A    
C4    C145  S    
C264  H119  S    
C11   C191  A    
O51   Zn5   S    
C234  H30   S    
C319  H285  S    
C336  H336  S    
C2    O6    A    
C113  C249  S    
C138  C258  S    
C67   C75   A    
C200  C208  A    
C49   C50   A    
C273  H147  S    
C282  H172  S    
O33   Zn7   S    
O1    Zn1   S    
O34   Zn8   S    
C182  C195  S    
C84   C92   A    
C88   C131  S    
C91   C99   A    
C332  H322  S    
C157  O21   A    
C220  C223  A    
O31   Zn1   S    
O91   C335  S    
C306  H245  S    
C119  C127  A    
C227  H8    S    
C120  C256  S    
C88   C96   A    
C251  H79   S    
C120  C131  A    
C292  H203  S    
C172  C268  S    
C23   C291  S    
C197  C205  A    
O87   C331  S    
C18   C26   A    
C5    C185  A    
C20   O76   S    
C154  C168  A    
C295  H213  S    
C310  H256  S    
C8    C188  A    
C35   C303  S    
C308  H251  S    
O70   C282  S    
C315  H271  S    
C237  H39   S    
C25   C293  S    
C20   C216  A    
C137  C145  A    
C127  C135  A    
C225  H3    S    
C309  H254  S    
C275  H151  S    
C143  C153  A    
C96   O60   S    
C287  H189  S    
C38   C79   S    
C101  C109  A    
C242  H52   S    
C194  C202  A    
C143  C263  S    
C280  H168  S    
O45   Zn3   S    
C103  C111  A    
C70   O86   S    
C106  C314  S    
C160  O30   A    
C261  H110  S    
C241  H49   S    
C12   C224  A    
C188  C196  A    
C189  C197  A    
O29   Zn3   S    
C310  H257  S    
C6    C218  A    
O30   Zn4   S    
C290  H197  S    
O15   Zn3   S    
C307  H247  S    
C330  H316  S    
O9    Zn15  S    
C126  C159  S    
C28   C296  S    
O10   Zn16  S    
C312  H263  S    
O37   Zn9   S    
C277  H157  S    
C182  O50   A    
C322  H294  S    
C81   C89   A    
C297  H219  S    
C234  H29   S    
C17   O73   S    
C265  H122  S    
O78   C322  S    
C76   O92   S    
C334  H330  S    
C205  C213  A    
O79   C323  S    
C313  H266  S    
C254  H88   S    
O3    Zn13  S    
O69   C281  S    
C153  C167  A    
C77   O13   A    
C254  H89   S    
C30   C44   A    
C270  H138  S    
C271  H141  S    
O3    Zn5   S    
C327  H308  S    
C240  H48   S    
C231  H20   S    
O62   C242  S    
C257  H98   S    
C125  C160  S    
O11   Zn13  S    
C186  C226  S    
O39   Zn11  S    
C247  H67   S    
C235  H32   S    
C303  H237  S    
C140  C146  A    
C167  C168  A    
C141  C155  A    
C57   C60   A    
C47   C51   A    
C138  C152  A    
C58   C59   A    
C263  H115  S    
C139  C149  A    
C51   C52   A    
C177  O45   A    
C176  C272  S    
C236  H36   S    
C283  H176  S    
C35   C39   A    
C234  H28   S    
C22   C290  S    
O85   C329  S    
C69   O85   S    
C85   C130  S    
C44   C56   A    
O36   Zn6   S    
C260  H108  S    
C207  C215  A    
O89   C333  S    
C86   C129  S    
C226  H5    S    
C10   C190  A    
C127  C158  S    
C65   C109  A    
C180  O48   A    
C53   C305  S    
C181  O41   A    
C67   C111  A    
C128  C136  A    
O43   Zn15  S    
C319  H284  S    
C113  C134  A    
C281  H170  S    
C102  C110  A    
C266  H125  S    
C285  H181  S    
C159  O29   A    
C93   C101  A    
O83   C327  S    
C310  H258  S    
C255  H93   S    
C277  H158  S    
O65   C245  S    
C240  H46   S    
C155  C175  A    
C217  C222  A    
C94   O58   S    
C251  H81   S    
C267  H128  S    
C116  C124  A    
C123  C131  A    
C248  H71   S    
C227  H7    S    
C121  C129  A    
C90   O54   S    
C293  H206  S    
C119  C132  A    
C277  H159  S    
O61   C241  S    
O67   C247  S    
C238  H41   S    
C173  C176  A    
C15   O71   S    
O66   C246  S    
C284  H180  S    
C20   C28   A    
C140  C260  S    
C295  H212  S    
C82   C90   A    
C315  H273  S    
C276  H156  S    
C259  H103  S    
C67   O83   S    
C245  H61   S    
C333  H325  S    
C42   C54   A    
C56   C308  S    
C320  H286  S    
C144  C264  S    
C80   O18   A    
C331  H321  S    
C287  H188  S    
O53   C233  S    
C9    C22   A    
C53   C56   A    
C304  H239  S    
C320  H287  S    
C322  H292  S    
C142  C262  S    
C9    C221  A    
C225  H2    S    
C228  H10   S    
C332  H324  S    
O6    Zn12  S    
C77   O15   A    
C8    C27   A    
C32   C42   A    
O7    Zn9   S    
O4    Zn14  S    
C118  C254  S    
O28   Zn16  S    
C188  C228  S    
C317  H278  S    
O12   Zn14  S    
C63   C71   A    
C75   C87   A    
C178  O46   A    
C66   C74   A    
C184  O52   A    
C321  H289  S    
C289  H195  S    
C164  O34   A    
C282  H173  S    
C226  H4    S    
C72   O88   S    
C245  H62   S    
C247  H69   S    
C144  C148  A    
C283  H177  S    
C192  C232  S    
C294  H208  S    
C78   O14   A    
C58   C310  S    
C246  H64   S    
C286  H185  S    
C326  H304  S    
C182  O42   A    
C324  H298  S    
C143  C147  A    
C300  H227  S    
C30   C298  S    
C274  H148  S    
C284  H178  S    
C231  H19   S    
C34   C40   A    
O32   Zn2   S    
O72   C284  S    
C229  H15   S    
C191  C199  A    
C272  H142  S    
C267  H129  S    
C311  H260  S    
C109  C317  S    
C24   C292  S    
C249  H74   S    
C45   C51   A    
C46   C52   A    
C11   C24   A    
C65   C73   A    
C329  H315  S    
C259  H104  S    
C276  H154  S    
C262  H113  S    
C291  H200  S    
C239  H43   S    
C15   C211  A    
C180  C197  S    
C86   C94   A    
C263  H116  S    
C268  H131  S    
C174  C175  A    
C236  H35   S    
C114  C133  A    
C201  C273  S    
C323  H295  S    
C242  H53   S    
C185  C193  A    
C97   O61   S    
C32   C38   A    
C252  H84   S    
C250  H77   S    
C169  C265  S    
C278  H160  S    
C76   C88   A    
C190  C198  A    
C302  H234  S    
O19   Zn7   S    
O4    Zn8   S    
C15   C23   A    
C64   O80   S    
C208  C216  A    
C61   O77   S    
C316  H276  S    
C330  H317  S    
C261  H109  S    
C202  C210  A    
C319  H283  S    
C327  H307  S    
C298  H221  S    
C48   C60   A    
C59   C311  S    
O1    Zn3   S    
C296  H216  S    
C301  H230  S    
C92   O56   S    
C14   C210  A    
C255  H92   S    
C99   O63   S    
O49   Zn7   S    
C69   C81   A    
C142  C148  A    
C36   C40   A    
O50   Zn8   S    
C267  H127  S    
C93   O57   S    
C326  H306  S    
O24   Zn12  S    
C123  C162  S    
O82   C326  S    
C43   C49   A    
C230  H18   S    
C226  H6    S    
C110  C318  S    
C232  H23   S    
C266  H124  S    
C191  C231  S    
C121  C164  S    
C268  H132  S    
C293  H205  S    
C122  C163  S    
C80   O20   A    
C89   C97   A    
C203  C275  S    
C258  H101  S    
O1    Zn9   S    
C239  H44   S    
C91   O55   S    
C295  H211  S    
C8    C220  A    
O77   C321  S    
O4    Zn6   S    
C307  H249  S    
C196  C204  A    
C315  H272  S    
C183  O51   A    
C286  H184  S    
C228  H12   S    
C199  C207  A    
C264  H118  S    
C113  C121  A    
O4    Zn16  S    
O2    Zn4   S    
C68   C76   A    
C74   C86   A    
C248  H72   S    
C336  H335  S    
C159  O23   A    
C190  C230  S    
C290  H198  S    
C256  H94   S    
C273  H146  S    
C184  O44   A    
C169  C172  A    
C279  H165  S    
C296  H215  S    
C62   O78   S    
C63   C107  A    
C334  H328  S    
C140  C150  A    
C294  H210  S    
C19   C27   A    
C243  H55   S    
C92   C100  A    
C306  H244  S    
C270  H136  S    
C324  H300  S    
C125  C133  A    
C317  H277  S    
C139  C145  A    
C274  H150  S    
C78   O16   A    
C187  C195  A    
C156  C176  A    
C21   C289  S    
C117  C253  S    
C335  H331  S    
C215  C223  A    
C331  H320  S    
C233  H26   S    
C297  H217  S    
C328  H311  S    
C305  H242  S    
C299  H225  S    
C256  H95   S    
C308  H250  S    
C210  C218  A    
C311  H261  S    
C272  H144  S    
C271  H139  S    
C271  H140  S    
O57   C237  S    
C7    C219  A    
C269  H134  S    
C309  H253  S    
C29   C297  S    
C288  H190  S    
C244  H58   S    
C117  C125  A    
C323  H297  S    
C331  H319  S    
C292  H204  S    
C257  H99   S    
C122  C130  A    
C249  H73   S    
C64   C72   A    
C289  H193  S    
C278  H162  S    
C241  H50   S    
C265  H123  S    
C98   O62   S    
C114  C122  A    
C1    O5    A    
C116  C252  S    
C320  H288  S    
C34   C48   A    
O80   C324  S    
O5    Zn11  S    
C3    C146  S    
C253  H86   S    
C325  H301  S    
O86   C330  S    
C236  H34   S    
C137  C151  A    
C1    C148  S    
C118  C126  A    
C100  O64   S    
C312  H262  S    
C279  H163  S    
C90   C98   A    
C327  H309  S    
C94   C102  A    
C322  H293  S    
