data_mof_unit_50116.cif
_audit_creation_date              2013-03-05T16:30:59-0500
_audit_creation_method            fapswitch 2.2
_symmetry_space_group_name_H-M    P1
_symmetry_Int_Tables_number       1
_space_group_crystal_system       triclinic
_cell_length_a                    12.968257
_cell_length_b                    10.862531
_cell_length_c                    9.539479
_cell_angle_alpha                 89.161083
_cell_angle_beta                  95.464378
_cell_angle_gamma                 90.676469
_cell_volume                      1337.48484003

loop_
_atom_site_label
_atom_site_type_symbol
_atom_site_description
_atom_site_fract_x
_atom_site_fract_y
_atom_site_fract_z
_atom_type_partial_charge
O1    O     O_R   0.500000 0.319640 0.618810 -0.540938
O2    O     O_R   0.500010 0.319680 0.381230 -0.590682
C1    C     C_R   0.500407 0.262565 0.500784 0.907227
O3    O     O_R   0.348990 0.499960 0.599490 -0.547450
O4    O     O_R   0.349000 0.500000 0.361910 -0.592619
C2    C     C_R   0.301084 0.501062 0.474840 0.909796
Cu1   Cu    Cu3+1 0.499990 0.499980 0.640670 1.012060
Cu2   Cu    Cu3+1 0.500010 0.500020 0.359330 1.022355
O5    O     O_R   0.499990 0.680320 0.618770 -0.593001
O6    O     O_R   0.500000 0.680360 0.381190 -0.538076
O7    O     O_R   0.651000 0.500000 0.638090 -0.595130
O8    O     O_R   0.651010 0.500040 0.400510 -0.569659
C3    C     C_R   0.501272 0.737783 0.498686 0.829478
C4    C     C_R   0.698921 0.499478 0.525493 0.852576
C5    C     C_R   0.810896 0.505289 0.538901 -0.139959
C6    C     C_R   0.189705 0.487988 0.464373 -0.184898
C7    C     C_R   0.041855 0.353457 0.409137 0.358066
C8    C     C_R   0.145704 0.383109 0.400281 -0.300062
C9    C     C_R   0.130958 0.566853 0.538976 0.442161
C10   C     C_R   0.024020 0.543993 0.539729 -0.021554
C11   C     C_R   0.977613 0.437814 0.471869 -0.127949
C12   C     C_R   0.868675 0.422171 0.466877 0.311634
C13   C     C_R   0.858338 0.604239 0.611277 -0.252838
C14   C     C_R   0.963134 0.625856 0.607896 -0.099195
H1    H     H_    0.812803 0.669430 0.663614 0.164123
H2    H     H_    0.995770 0.707867 0.658510 0.200450
H3    H     H_    0.194736 0.318497 0.352797 0.208881
C15   C     C_R   0.499786 0.060218 0.623830 0.026822
C16   C     C_R   0.507269 0.129895 0.501458 -0.098897
C17   C     C_R   0.526579 0.069217 0.377898 -0.173178
H4    H     H_    0.536673 0.120932 0.282042 0.202270
C18   C     C_R   0.524734 0.940829 0.372615 0.347677
C19   C     C_R   0.508957 0.871349 0.496558 -0.180128
C20   C     C_R   0.505586 0.934119 0.622834 0.003570
C21   C     C_3   0.435063 0.918010 0.736923 -0.449228
C22   C     C_3   0.424906 0.057719 0.735196 0.209603
H5    H     H_    0.362711 0.866895 0.700963 0.234784
H6    H     H_    0.476668 0.881612 0.835933 0.213382
H7    H     H_    0.455648 0.101967 0.835189 0.139019
C23   C     C_R   0.557639 0.584764 0.079627 0.330455
N1    N     N_R   0.500660 0.500930 0.148010 -0.212737
C24   C     C_R   0.435177 0.424932 0.067949 -0.169154
H8    H     H_    0.386541 0.361466 0.120902 0.156891
C25   C     C_R   0.432520 0.426670 0.917170 0.535206
N2    N     N_R   0.500660 0.500890 0.852110 -0.234335
C26   C     C_R   0.557781 0.584597 0.932427 0.163767
C27   C     C_3   0.672337 0.602185 0.940711 -0.469093
C28   C     C_3   0.672392 0.601821 0.099710 -0.437979
H9    H     H_    0.713049 0.521755 0.902073 0.234745
H10   H     H_    0.694503 0.692838 0.896344 0.213802
H11   H     H_    0.712667 0.521057 0.150892 0.246319
H12   H     H_    0.695587 0.691751 0.147491 0.242258
N3    N     N_R   0.815136 0.328607 0.382331 0.146018
O9    O     O_R   0.820120 0.328777 0.246740 -0.332738
O10   O     O_R   0.752756 0.251482 0.438217 -0.343085
N4    N     N_R   0.318642 0.094186 0.687065 0.169492
O11   O     O_R   0.244415 0.066879 0.765110 -0.333530
O12   O     O_R   0.296457 0.153109 0.568514 -0.363213
O13   O     O_3   0.367783 0.348696 0.834166 -0.549696
C29   C     C_3   0.266946 0.343806 0.878713 -0.219630
H13   H     H_    0.211437 0.320734 0.786856 0.233850
H14   H     H_    0.242081 0.433145 0.919584 0.104215
H15   H     H_    0.261709 0.269832 0.959392 0.191640
N5    N     N_R   0.007180 0.232353 0.367423 0.186754
O14   O     O_R   0.033114 0.187342 0.250217 -0.298644
O15   O     O_R   0.970505 0.158306 0.459444 -0.265293
O16   O     O_3   0.176395 0.673554 0.596283 -0.571290
C30   C     C_3   0.195213 0.660912 0.744376 -0.285460
H16   H     H_    0.141509 0.595740 0.793069 0.134943
H17   H     H_    0.186015 0.752333 0.791723 0.216759
H18   H     H_    0.276251 0.632387 0.773649 0.194461
N6    N     N_R   0.531555 0.885153 0.238632 0.114197
O17   O     O_R   0.448053 0.839721 0.171217 -0.360509
O18   O     O_R   0.610204 0.912152 0.168382 -0.369881

loop_
_geom_bond_atom_site_label_1
_geom_bond_atom_site_label_2
_geom_bond_distance
_ccdc_geom_bond_type
N1    C24   1.365409 A    
C21   C22   1.524551 S    
Cu1   Cu2   2.683855 S    
C27   H9    1.111443 S    
N2    C26   1.363429 A    
C23   C26   1.404421 A    
C29   H15   1.110496 S    
Cu1   N2    2.016388 S    
C15   C16   1.392471 A    
C21   H5    1.112797 S    
C14   H2    1.081955 S    
C6    C9    1.399040 A    
C7    N5    1.434702 S    
C17   H4    1.083921 S    
O7    C4    1.291255 A    
C25   O13   1.387590 S    
N4    O11   1.300830 A    
C29   H14   1.113625 S    
C20   C21   1.493909 S    
C5    C12   1.407439 A    
C1    C16   1.444801 S    
O5    C3    1.297916 A    
C28   H11   1.109303 S    
C10   C14   1.402981 A    
C30   H16   1.114593 S    
C13   C14   1.379751 A    
C9    O16   1.389429 S    
C27   H10   1.111627 S    
C5    C13   1.391304 A    
C15   C20   1.372934 A    
O13   C29   1.413145 S    
C11   C12   1.417290 A    
C24   C25   1.435328 A    
O3    Cu1   1.960199 S    
C7    C8    1.391123 A    
C12   N3    1.437414 S    
N3    O10   1.301373 A    
O16   C30   1.415505 S    
C21   H6    1.112008 S    
Cu2   N1    2.016581 S    
N6    O18   1.301045 A    
N3    O9    1.301191 A    
C7    C11   1.421579 A    
C29   H13   1.109451 S    
O1    C1    1.293725 A    
N5    O15   1.301364 A    
Cu1   O7    1.960832 S    
C3    C19   1.453086 S    
C16   C17   1.403339 A    
C22   N4    1.467599 S    
C27   C28   1.516648 S    
Cu2   O8    1.960199 S    
C19   C20   1.397384 A    
Cu2   O6    1.973052 S    
C23   N1    1.363579 A    
O8    C4    1.290888 A    
O3    C2    1.288066 A    
C24   H8    1.080956 S    
C25   N2    1.374417 A    
Cu1   O5    1.967013 S    
C26   C27   1.490337 S    
O1    Cu1   1.973054 S    
C22   H7    1.111894 S    
O2    Cu2   1.967013 S    
C8    H3    1.084808 S    
N6    O17   1.301453 A    
O6    C3    1.289332 A    
O4    Cu2   1.960829 S    
N5    O14   1.301462 A    
C9    C10   1.406644 A    
O2    C1    1.289914 A    
C18   C19   1.423278 A    
C17   C18   1.396106 A    
O4    C2    1.294153 A    
C30   H18   1.108009 S    
N4    O12   1.300995 A    
C13   H1    1.084344 S    
C2    C6    1.443782 S    
C28   H12   1.110180 S    
C10   C11   1.429259 A    
C15   C22   1.505773 S    
C6    C8    1.391371 A    
C30   H17   1.109335 S    
C4    C5    1.446273 S    
C23   C28   1.491922 S    
C18   N6    1.432702 S    
