data_mof_unit_9869.cif
_audit_creation_date              2012-10-26T20:06:14-0400
_audit_creation_method            fapswitch 2.2
_symmetry_space_group_name_H-M    P1
_symmetry_Int_Tables_number       1
_space_group_crystal_system       triclinic
_cell_length_a                    9.529431
_cell_length_b                    10.831903
_cell_length_c                    13.446993
_cell_angle_alpha                 90.411392
_cell_angle_beta                  72.639629
_cell_angle_gamma                 90.150287
_cell_volume                      1324.76073626

loop_
_atom_site_label
_atom_site_type_symbol
_atom_type_description
_atom_site_fract_x
_atom_site_fract_y
_atom_site_fract_z
_atom_type_partial_charge
C1    C     C_R   0.500048 0.737894 0.500228 0.560798
C2    C     C_R   0.373977 0.491965 0.814852 -0.030842
C3    C     C_R   0.627596 0.936478 0.500068 -0.127436
C4    C     C_R   0.421498 0.494358 0.700089 0.544895
C5    C     C_R   0.627485 0.064197 0.500001 -0.140896
C6    C     C_R   0.499766 0.128240 0.500278 0.018711
C7    C     C_R   0.372093 0.063530 0.500817 -0.139428
C8    C     C_R   0.372172 0.935812 0.500964 -0.141009
C9    C     C_R   0.499976 0.871764 0.500468 0.022580
C10   C     C_R   0.899379 0.576201 0.565971 0.094954
C11   C     C_R   0.047940 0.575481 0.565851 0.000763
C12   C     C_R   0.434753 0.486553 0.979095 0.010712
C13   C     C_R   0.101730 0.424374 0.434014 0.002983
C14   C     C_R   0.952949 0.424343 0.434072 -0.010312
C15   C     C_R   0.499856 0.262103 0.500033 0.544082
C16   C     C_R   0.578523 0.497918 0.300109 0.543706
C17   C     C_R   0.783756 0.389080 0.030480 -0.108289
C18   C     C_R   0.622838 0.480776 0.187190 -0.006050
C19   C     C_R   0.233398 0.536838 0.867961 -0.098140
C20   C     C_R   0.190685 0.555392 0.975697 0.136884
C21   C     C_R   0.291536 0.531287 0.030323 -0.113363
C22   C     C_1   0.799774 0.659174 0.636854 0.226257
C23   C     C_R   0.470677 0.456273 0.871761 0.021855
C24   C     C_3   0.994762 0.707127 0.993190 -0.294318
C25   C     C_R   0.542538 0.468328 0.031562 0.032300
C26   C     C_R   0.677442 0.409114 0.979213 0.050552
C27   C     C_R   0.703147 0.367349 0.877298 -0.139566
C28   C     C_R   0.600628 0.388794 0.824854 -0.110111
C29   C     C_R   0.520812 0.507734 0.134577 -0.135812
C30   C     C_R   0.755856 0.423506 0.134495 -0.122991
Cu1   Cu    Cu3+1 0.359340 0.499980 0.500000 0.929264
Cu2   Cu    Cu3+1 0.640660 0.500020 0.500000 0.947366
H1    H     H_    0.835697 0.401460 0.174549 0.121260
H2    H     H_    0.424361 0.558775 0.176771 0.118179
H3    H     H_    0.157063 0.558216 0.824993 0.131990
H4    H     H_    0.252992 0.545241 0.113421 0.092252
H5    H     H_    0.623274 0.347947 0.748213 0.145676
H6    H     H_    0.727493 0.888732 0.499679 0.138532
H7    H     H_    0.019868 0.593772 0.110613 0.247071
H8    H     H_    0.883560 0.731256 0.044918 0.148218
H9    H     H_    0.985596 0.693393 0.913567 0.152118
H10   H     H_    0.070746 0.784954 0.993736 0.145283
H11   H     H_    0.727333 0.112487 0.499623 0.126542
H12   H     H_    0.272244 0.111293 0.501093 0.128325
H13   H     H_    0.272303 0.887528 0.501384 0.128438
H14   H     H_    0.083607 0.635667 0.618304 0.106409
H15   H     H_    0.179669 0.363648 0.381165 0.113003
H16   H     H_    0.918891 0.363722 0.381272 0.105937
H17   H     H_    0.802887 0.317351 0.837895 0.106912
H18   H     H_    0.886707 0.343624 0.990958 0.119436
N1    N     N_R   0.147940 0.499970 0.499970 -0.232358
N2    N     N_R   0.852060 0.500060 0.499990 -0.239646
N3    N     N_1   0.720458 0.726173 0.694231 -0.312660
N4    N     N_2   0.045425 0.595741 0.030475 -0.519618
O1    O     O_R   0.381250 0.680340 0.500010 -0.509945
O2    O     O_R   0.618820 0.680370 0.500010 -0.492704
O3    O     O_R   0.323240 0.499950 0.650980 -0.509033
O4    O     O_R   0.560810 0.499980 0.650980 -0.490349
O5    O     O_R   0.381180 0.319630 0.499990 -0.507252
O6    O     O_R   0.618750 0.319660 0.499990 -0.518390
O7    O     O_R   0.439190 0.500020 0.349020 -0.506065
O8    O     O_R   0.676760 0.500050 0.349020 -0.507660

loop_
_geom_bond_atom_site_label_1
_geom_bond_atom_site_label_2
_ccdc_geom_bond_type
C17   H18   S    
C4    O3    A    
C2    C4    S    
C6    C7    A    
C3    C9    A    
C13   C14   A    
C24   H10   S    
C15   O6    A    
Cu1   O7    S    
C19   C20   A    
Cu2   O4    S    
C12   C25   A    
C25   C26   A    
C10   N2    A    
Cu1   O3    S    
C5    H11   S    
Cu2   O8    S    
C7    C8    A    
C18   C29   A    
C19   H3    S    
C23   C28   A    
C10   C22   S    
C21   H4    S    
C17   C30   A    
C12   C23   A    
C26   C27   A    
C20   C21   A    
C24   H9    S    
C28   H5    S    
C18   C30   A    
C17   C26   A    
C12   C21   A    
C20   N4    S    
C24   H8    S    
C1    O2    A    
Cu2   O2    S    
C1    O1    A    
C22   N3    T    
C2    C23   A    
C25   C29   A    
C5    C6    A    
H7    N4    S    
C11   N1    A    
C10   C11   A    
Cu2   O6    S    
C24   N4    S    
C27   H17   S    
C27   C28   A    
C1    C9    S    
C13   N1    A    
C16   C18   S    
C16   O7    A    
C4    O4    A    
C2    C19   A    
C13   H15   S    
C8    H13   S    
Cu2   N2    S    
C11   H14   S    
C14   H16   S    
C30   H1    S    
Cu1   O1    S    
C6    C15   S    
C7    H12   S    
C15   O5    A    
C29   H2    S    
C16   O8    A    
C14   N2    A    
Cu1   Cu2   S    
C3    H6    S    
Cu1   N1    S    
C8    C9    A    
C3    C5    A    
Cu1   O5    S    
