data_mof_unit_38504.cif
_audit_creation_date              2012-12-10T16:47:20-0500
_audit_creation_method            fapswitch 2.2
_symmetry_space_group_name_H-M    P1
_symmetry_Int_Tables_number       1
_space_group_crystal_system       triclinic
_cell_length_a                    12.152204
_cell_length_b                    12.113653
_cell_length_c                    7.770058
_cell_angle_alpha                 90.308264
_cell_angle_beta                  94.661733
_cell_angle_gamma                 90.273056
_cell_volume                      1139.99556579

loop_
_atom_site_label
_atom_site_type_symbol
_atom_type_description
_atom_site_fract_x
_atom_site_fract_y
_atom_site_fract_z
_atom_type_partial_charge
C1    C     C_R   0.353747 0.851780 0.455327 0.904311
C2    C     C_2   0.741669 0.786152 0.564719 -0.270998
C3    C     C_2   0.688562 0.265553 0.552562 -0.331383
C4    C     C_2   0.258434 0.785564 0.434833 -0.285044
C5    C     C_2   0.757926 0.713357 0.435451 -0.265814
C6    C     C_2   0.241661 0.286094 0.564931 -0.280309
C7    C     C_2   0.241645 0.714355 0.565133 -0.285442
C8    C     C_2   0.743529 0.300535 0.417212 -0.205880
C9    C     C_2   0.669774 0.676520 0.300378 0.489522
C10   C     C_2   0.328989 0.321453 0.702255 0.494475
C11   C     C_2   0.329329 0.679205 0.700894 0.498774
C12   C     C_R   0.634917 0.158973 0.540734 0.852633
C13   C     C_2   0.703700 0.278713 0.232716 0.469537
C14   C     C_2   0.171331 0.178847 0.297287 0.494722
C15   C     C_2   0.829626 0.822538 0.700409 0.488284
C16   C     C_2   0.675849 0.332942 0.711010 0.476195
C17   C     C_2   0.170794 0.820664 0.298969 0.494257
C18   C     C_R   0.646401 0.852049 0.544330 0.914501
C19   C     C_R   0.353546 0.147903 0.455597 0.906594
C20   C     C_R   0.845592 0.360301 0.451611 0.958429
C21   C     C_R   0.146289 0.648187 0.544678 0.897063
C22   C     C_R   0.146465 0.352108 0.544382 0.917433
C23   C     C_R   0.853472 0.647827 0.455666 0.894252
C24   C     C_2   0.258506 0.214064 0.434927 -0.289597
H1    H     H_    0.616613 0.000325 0.003505 0.233679
H2    H     H_    0.916106 0.805913 0.686226 0.063978
H3    H     H_    0.655840 0.293136 0.829092 0.118371
H4    H     H_    0.084056 0.805877 0.314907 0.061811
H5    H     H_    0.383391 0.999792 0.996511 0.251819
H6    H     H_    0.116610 0.500210 0.003492 0.247404
H7    H     H_    0.883376 0.499718 0.996486 0.247780
H8    H     H_    0.583432 0.694247 0.313789 0.069732
H9    H     H_    0.415677 0.306272 0.687591 0.047724
H10   H     H_    0.416058 0.694022 0.684914 0.069667
H11   H     H_    0.615699 0.274255 0.195371 0.084694
H12   H     H_    0.084598 0.193906 0.311800 0.079863
N1    N     N_2   0.541470 0.000000 0.055820 -0.172087
N2    N     N_2   0.458530 0.000000 0.944180 -0.162921
N3    N     N_2   0.041470 0.500000 0.055820 -0.158782
N4    N     N_2   0.958530 0.500000 0.944180 -0.147293
O1    O     O_R   0.375700 0.885870 0.609240 -0.634196
O2    O     O_R   0.597720 0.114130 0.675960 -0.627858
O3    O     O_R   0.597720 0.885870 0.675960 -0.570626
O4    O     O_R   0.402280 0.114130 0.324040 -0.580548
O5    O     O_R   0.902280 0.385870 0.324040 -0.593195
O6    O     O_R   0.097720 0.614130 0.675960 -0.580512
O7    O     O_R   0.097720 0.385870 0.675960 -0.567928
O8    O     O_R   0.902280 0.614130 0.324040 -0.591173
O9    O     O_2   0.692737 0.623542 0.174088 -0.538353
O10   O     O_2   0.304837 0.369788 0.832180 -0.517862
O11   O     O_2   0.305374 0.631572 0.830967 -0.511752
O12   O     O_R   0.624300 0.114130 0.390760 -0.619987
O13   O     O_2   0.768292 0.264144 0.122417 -0.571788
O14   O     O_2   0.195660 0.130780 0.167224 -0.511608
O15   O     O_2   0.806285 0.873663 0.828272 -0.537063
O16   O     O_2   0.679549 0.433704 0.707419 -0.548507
O17   O     O_2   0.194796 0.868211 0.168847 -0.511671
O18   O     O_R   0.624300 0.885870 0.390760 -0.634216
O19   O     O_R   0.375700 0.114130 0.609240 -0.637537
O20   O     O_R   0.875700 0.385870 0.609240 -0.587870
O21   O     O_R   0.124300 0.614130 0.390760 -0.638004
O22   O     O_R   0.124300 0.385870 0.390760 -0.637572
O23   O     O_R   0.875700 0.614130 0.609240 -0.618161
O24   O     O_R   0.402280 0.885870 0.324040 -0.572411
Zn1   Zn    Zn3+2 0.482250 0.000000 0.690430 0.996978
Zn2   Zn    Zn3+2 0.517750 0.000000 0.309570 1.008459
Zn3   Zn    Zn3+2 0.982250 0.500000 0.690430 1.049081
Zn4   Zn    Zn3+2 0.017750 0.500000 0.309570 1.013923

loop_
_geom_bond_atom_site_label_1
_geom_bond_atom_site_label_2
_ccdc_geom_bond_type
H5    N2    S    
C6    C10   S    
O2    Zn1   S    
O1    Zn1   S    
C16   O16   D    
C5    C9    S    
C8    C13   S    
C23   O8    A    
C6    C22   S    
C22   O22   A    
N3    Zn4   S    
O4    Zn2   S    
C20   O5    A    
C5    C23   S    
N2    Zn1   S    
O22   Zn4   S    
O3    Zn1   S    
C1    C4    S    
C6    C24   D    
N1    Zn2   S    
C16   H3    S    
C23   O23   A    
C22   O7    A    
C9    O9    D    
O6    Zn3   S    
C14   O14   D    
O24   Zn2   S    
C18   O3    A    
C19   O4    A    
C7    C11   S    
C2    C15   S    
O21   Zn4   S    
O18   Zn2   S    
C8    C20   S    
O5    Zn4   S    
C4    C7    D    
C4    C17   S    
O7    Zn3   S    
C12   O12   A    
N1    N2    D    
C19   C24   S    
H6    N3    S    
C13   H11   S    
C10   H9    S    
C13   O13   D    
C11   O11   D    
C14   H12   S    
O23   Zn3   S    
C3    C8    D    
C2    C5    D    
C20   O20   A    
C10   O10   D    
C1    O24   A    
O12   Zn2   S    
H7    N4    S    
C19   O19   A    
C21   O6    A    
C14   C24   S    
N3    N4    D    
C15   H2    S    
C12   O2    A    
C3    C12   S    
C9    H8    S    
H1    N1    S    
C7    C21   S    
C17   H4    S    
C21   O21   A    
C18   O18   A    
C11   H10   S    
O19   Zn1   S    
C3    C16   S    
C1    O1    A    
O20   Zn3   S    
C17   O17   D    
C2    C18   S    
O8    Zn4   S    
N4    Zn3   S    
C15   O15   D    
