data_mof_unit_62123.cif
_audit_creation_date              2012-12-10T19:11:05-0500
_audit_creation_method            fapswitch 2.2
_symmetry_space_group_name_H-M    P1
_symmetry_Int_Tables_number       1
_space_group_crystal_system       monoclinic
_cell_length_a                    24.425486
_cell_length_b                    24.425487
_cell_length_c                    42.808405
_cell_angle_alpha                 90.0
_cell_angle_beta                  90.0
_cell_angle_gamma                 90.011021
_cell_volume                      25539.681912

loop_
_atom_site_label
_atom_site_type_symbol
_atom_type_description
_atom_site_fract_x
_atom_site_fract_y
_atom_site_fract_z
_atom_type_partial_charge
C1    C     C_R   0.770854 0.270854 0.250000 0.010606
C2    C     C_R   0.771806 0.728194 0.250000 0.012086
C3    C     C_R   0.394794 0.105206 0.250000 0.891786
C4    C     C_R   0.895020 0.395020 0.750000 0.955090
C5    C     C_R   0.105221 0.605221 0.250000 0.934013
C6    C     C_R   0.395013 0.104987 0.750000 0.954922
C7    C     C_R   0.605206 0.894794 0.250000 0.891786
C8    C     C_R   1.000000 0.500000 0.131607 -0.390843
C9    C     C_R   1.000000 0.500000 0.868317 -0.389035
C10   C     C_R   0.500000 1.000000 0.131683 -0.389035
C11   C     C_R   0.500000 1.000000 0.868393 -0.390843
C12   C     C_R   0.500000 0.000000 0.631607 -0.390843
C13   C     C_R   0.270854 0.770854 0.750000 0.010606
C14   C     C_R   0.500000 1.000000 0.368317 -0.389035
C15   C     C_R   1.000000 0.500000 0.631683 -0.389035
C16   C     C_R   0.000000 0.500000 0.368393 -0.390843
C17   C     C_R   0.826275 0.256324 0.251584 -0.169081
C18   C     C_R   0.180033 0.735348 0.767447 -0.160746
C19   C     C_R   0.743604 0.826353 0.251640 -0.160354
C20   C     C_R   0.264103 0.179511 0.766875 -0.157627
C21   C     C_R   0.173725 0.743676 0.251584 -0.169081
C22   C     C_R   0.819967 0.264652 0.767447 -0.160746
C23   C     C_R   0.256396 0.173647 0.251640 -0.160354
C24   C     C_R   0.728162 0.228162 0.250000 0.007842
C25   C     C_R   0.735896 0.820489 0.766875 -0.157629
C26   C     C_R   0.173647 0.256396 0.748360 -0.160354
C27   C     C_R   0.820489 0.735896 0.233125 -0.157629
C28   C     C_R   0.256324 0.826275 0.748416 -0.169081
C29   C     C_R   0.735348 0.180033 0.232552 -0.160746
C30   C     C_R   0.826353 0.743604 0.748360 -0.160354
C31   C     C_R   0.179511 0.264103 0.233125 -0.157629
C32   C     C_R   0.743676 0.173725 0.748416 -0.169081
C33   C     C_R   0.264652 0.819967 0.232552 -0.160746
C34   C     C_R   0.326275 0.756324 0.751583 -0.169081
C35   C     C_R   0.770909 0.729091 0.750000 0.009282
C36   C     C_R   0.680033 0.235348 0.267448 -0.160746
C37   C     C_R   0.243604 0.326353 0.751640 -0.160354
C38   C     C_R   0.764103 0.679511 0.266875 -0.157628
C39   C     C_R   0.673725 0.243676 0.751583 -0.169081
C40   C     C_R   0.319967 0.764652 0.267448 -0.160746
C41   C     C_R   0.756396 0.673647 0.751640 -0.160354
C42   C     C_R   0.235896 0.320489 0.266875 -0.157629
C43   C     C_R   0.673647 0.756396 0.248360 -0.160354
C44   C     C_R   0.320489 0.235896 0.733124 -0.157628
C45   C     C_R   0.756324 0.326275 0.248416 -0.169081
C46   C     C_R   0.228194 0.271805 0.250000 0.012086
C47   C     C_R   0.235348 0.680033 0.732552 -0.160746
C48   C     C_R   0.326353 0.243604 0.248360 -0.160354
C49   C     C_R   0.679511 0.764104 0.733124 -0.157629
C50   C     C_R   0.243676 0.673725 0.248416 -0.169081
C51   C     C_R   0.764652 0.319967 0.732552 -0.160746
C52   C     C_R   0.866894 0.296391 0.251458 0.361793
C53   C     C_R   0.139471 0.695218 0.767415 0.352047
C54   C     C_R   0.703548 0.866959 0.251448 0.362651
C55   C     C_R   0.304165 0.138905 0.766776 0.333101
C56   C     C_R   0.133106 0.703609 0.251458 0.361793
C57   C     C_R   0.729146 0.229146 0.750000 0.010606
C58   C     C_R   0.860529 0.304782 0.767415 0.352048
C59   C     C_R   0.296452 0.133041 0.251448 0.362651
C60   C     C_R   0.695834 0.861095 0.766776 0.333102
C61   C     C_R   0.133041 0.296451 0.748552 0.362651
C62   C     C_R   0.861095 0.695835 0.233224 0.333102
C63   C     C_R   0.296391 0.866894 0.748542 0.361793
C64   C     C_R   0.695218 0.139471 0.232585 0.352047
C65   C     C_R   0.866959 0.703548 0.748552 0.362651
C66   C     C_R   0.138905 0.304165 0.233224 0.333102
C67   C     C_R   0.703609 0.133106 0.748542 0.361793
C68   C     C_R   0.271838 0.771838 0.250000 0.007842
C69   C     C_R   0.304782 0.860529 0.232585 0.352047
C70   C     C_R   0.366894 0.796391 0.751458 0.361793
C71   C     C_R   0.639471 0.195218 0.267415 0.352048
C72   C     C_R   0.203548 0.366959 0.751448 0.362651
C73   C     C_R   0.804165 0.638905 0.266776 0.333102
C74   C     C_R   0.633106 0.203609 0.751458 0.361793
C75   C     C_R   0.360529 0.804782 0.267415 0.352048
C76   C     C_R   0.796451 0.633041 0.751448 0.362651
C77   C     C_R   0.195834 0.361095 0.266776 0.333102
C78   C     C_R   0.633041 0.796451 0.248552 0.362651
C79   C     C_R   0.852267 0.352267 0.250000 -0.222826
C80   C     C_R   0.361095 0.195834 0.733224 0.333103
C81   C     C_R   0.796391 0.366894 0.248542 0.361793
C82   C     C_R   0.195218 0.639471 0.732585 0.352047
C83   C     C_R   0.366959 0.203548 0.248552 0.362651
C84   C     C_R   0.638905 0.804165 0.733224 0.333102
C85   C     C_R   0.203609 0.633106 0.248542 0.361793
C86   C     C_R   0.804782 0.360529 0.732585 0.352047
C87   C     C_R   0.147073 0.647073 0.750000 -0.202642
C88   C     C_R   0.647687 0.852313 0.250000 -0.214854
C89   C     C_R   0.228162 0.728162 0.750000 0.007842
C90   C     C_R   0.352914 0.147086 0.750000 -0.211915
C91   C     C_R   0.147732 0.647732 0.250000 -0.222825
C92   C     C_R   0.852927 0.352927 0.750000 -0.202642
C93   C     C_R   0.352313 0.147687 0.250000 -0.214854
C94   C     C_R   0.647086 0.852914 0.750000 -0.211914
C95   C     C_R   0.147687 0.352313 0.750000 -0.214854
C96   C     C_R   0.852914 0.647086 0.250000 -0.211914
C97   C     C_R   0.352268 0.852267 0.750000 -0.222826
C98   C     C_R   0.647073 0.147073 0.250000 -0.202642
C99   C     C_R   0.852313 0.647687 0.750000 -0.214854
C100  C     C_R   0.729091 0.770909 0.250000 0.009282
C101  C     C_R   0.147086 0.352914 0.250000 -0.211914
C102  C     C_R   0.647732 0.147732 0.750000 -0.222825
C103  C     C_R   0.352927 0.852927 0.250000 -0.202643
C104  C     C_R   0.500000 1.000000 0.468349 0.445875
C105  C     C_R   0.500000 1.000000 0.531588 0.447205
C106  C     C_R   1.000000 0.500000 0.468412 0.447205
C107  C     C_R   1.000000 0.500000 0.531651 0.445876
C108  C     C_R   1.000000 0.500000 0.968349 0.445875
C109  C     C_R   1.000000 0.500000 0.031588 0.447205
C110  C     C_R   0.500000 1.000000 0.968412 0.447205
C111  C     C_R   0.271805 0.228194 0.750000 0.012086
C112  C     C_R   0.500000 1.000000 0.031650 0.445876
C113  C     C_R   0.977182 0.545030 0.115232 0.302340
C114  C     C_R   0.022619 0.454889 0.884684 0.295732
C115  C     C_R   0.545111 0.977380 0.115316 0.295732
C116  C     C_R   0.454970 0.022818 0.884768 0.302340
C117  C     C_R   0.022818 0.454969 0.115232 0.302341
C118  C     C_R   0.977380 0.545111 0.884684 0.295732
C119  C     C_R   0.454889 0.022619 0.115316 0.295731
C120  C     C_R   0.545030 0.977182 0.884768 0.302341
C121  C     C_R   0.477182 0.045030 0.615232 0.302341
C122  C     C_R   0.229146 0.729146 0.250000 0.010606
C123  C     C_R   0.522619 0.954889 0.384684 0.295732
C124  C     C_R   0.045111 0.477380 0.615316 0.295732
C125  C     C_R   0.954969 0.522818 0.384768 0.302340
C126  C     C_R   0.522818 0.954969 0.615232 0.302341
C127  C     C_R   0.477380 0.045111 0.384684 0.295732
C128  C     C_R   0.954889 0.522619 0.615316 0.295732
C129  C     C_R   0.045030 0.477182 0.384768 0.302340
C130  C     C_R   0.974243 0.542867 0.082355 0.305523
C131  C     C_R   0.025390 0.456928 0.917566 0.304658
C132  C     C_R   0.543072 0.974610 0.082434 0.304658
C133  C     C_R   0.771838 0.271838 0.750000 0.007842
C134  C     C_R   0.457133 0.025757 0.917645 0.305523
C135  C     C_R   0.025756 0.457133 0.082355 0.305522
C136  C     C_R   0.974610 0.543072 0.917566 0.304658
C137  C     C_R   0.456927 0.025390 0.082434 0.304659
C138  C     C_R   0.542867 0.974243 0.917645 0.305523
C139  C     C_R   0.474243 0.042867 0.582355 0.305522
C140  C     C_R   0.525390 0.956928 0.417566 0.304658
C141  C     C_R   0.043072 0.474610 0.582434 0.304658
C142  C     C_R   0.957133 0.525756 0.417645 0.305523
C143  C     C_R   0.525756 0.957133 0.582355 0.305522
C144  C     C_R   0.270909 0.229091 0.250000 0.009282
C145  C     C_R   0.474610 0.043072 0.417566 0.304659
C146  C     C_R   0.956928 0.525390 0.582434 0.304658
C147  C     C_R   0.042867 0.474243 0.417645 0.305523
C148  C     C_R   1.000000 0.500000 0.066000 -0.253566
C149  C     C_R   1.000000 0.500000 0.933933 -0.250342
C150  C     C_R   0.500000 1.000000 0.066067 -0.250343
C151  C     C_R   0.500000 1.000000 0.934000 -0.253566
C152  C     C_R   0.500000 1.000000 0.566000 -0.253566
C153  C     C_R   0.500000 1.000000 0.433933 -0.250343
C154  C     C_R   1.000000 0.500000 0.566067 -0.250342
C155  C     C_R   0.728194 0.771806 0.750000 0.012086
C156  C     C_R   1.000000 0.500000 0.434000 -0.253566
C157  C     C_R   0.000000 0.500000 0.334129 1.028775
C158  C     C_R   1.000000 0.500000 0.665883 1.068424
C159  C     C_R   0.500000 1.000000 0.334117 1.068424
C160  C     C_R   0.500000 0.000000 0.665871 1.028775
C161  C     C_R   0.500000 1.000000 0.834129 1.028775
C162  C     C_R   0.500000 1.000000 0.165883 1.068424
C163  C     C_R   0.000000 0.500000 0.834117 1.068424
C164  C     C_R   1.000000 0.500000 0.165871 1.028775
C165  C     C_R   0.895013 0.604987 0.250000 0.954923
C166  C     C_R   0.229091 0.270909 0.750000 0.009282
C167  C     C_R   0.105206 0.394794 0.750000 0.891786
C168  C     C_R   0.395020 0.895020 0.250000 0.955090
C169  C     C_R   0.605221 0.105221 0.750000 0.934013
C170  C     C_R   0.104987 0.395013 0.250000 0.954922
C171  C     C_R   0.894794 0.605206 0.750000 0.891786
C172  C     C_R   0.604980 0.104980 0.250000 0.955091
C173  C     C_R   0.394779 0.894779 0.750000 0.934012
C174  C     C_R   0.104980 0.604980 0.750000 0.955092
C175  C     C_R   0.894779 0.394779 0.250000 0.934012
C176  C     C_R   0.604987 0.895013 0.750000 0.954922
Cl1   Cl    Cl    0.935308 0.591585 0.061192 -0.362063
Cl2   Cl    Cl    0.563626 0.907578 0.438683 -0.360695
Cl3   Cl    Cl    0.092422 0.436374 0.561317 -0.360695
Cl4   Cl    Cl    0.908414 0.564692 0.438808 -0.362063
Cl5   Cl    Cl    0.564692 0.908414 0.561192 -0.362063
Cl6   Cl    Cl    0.436374 0.092422 0.438683 -0.360696
Cl7   Cl    Cl    0.907578 0.563626 0.561317 -0.360695
Cl8   Cl    Cl    0.091585 0.435308 0.438808 -0.362063
Cl9   Cl    Cl    0.935637 0.274304 0.251789 -0.440034
Cl10  Cl    Cl    0.079866 0.706053 0.789770 -0.456381
Cl11  Cl    Cl    0.725619 0.935721 0.251665 -0.456952
Cl12  Cl    Cl    0.063626 0.407578 0.938683 -0.360695
Cl13  Cl    Cl    0.292395 0.078516 0.788253 -0.443197
Cl14  Cl    Cl    0.064363 0.725696 0.251789 -0.440034
Cl15  Cl    Cl    0.920134 0.293947 0.789770 -0.456381
Cl16  Cl    Cl    0.274381 0.064279 0.251665 -0.456952
Cl17  Cl    Cl    0.707605 0.921483 0.788253 -0.443196
Cl18  Cl    Cl    0.064279 0.274381 0.748335 -0.456952
Cl19  Cl    Cl    0.921483 0.707605 0.211747 -0.443196
Cl20  Cl    Cl    0.274304 0.935637 0.748211 -0.440034
Cl21  Cl    Cl    0.706053 0.079866 0.210230 -0.456381
Cl22  Cl    Cl    0.935721 0.725619 0.748335 -0.456952
Cl23  Cl    Cl    0.592422 0.936374 0.061317 -0.360695
Cl24  Cl    Cl    0.078516 0.292395 0.211747 -0.443196
Cl25  Cl    Cl    0.725696 0.064363 0.748211 -0.440034
Cl26  Cl    Cl    0.293947 0.920134 0.210230 -0.456381
Cl27  Cl    Cl    0.435637 0.774304 0.751789 -0.440034
Cl28  Cl    Cl    0.579866 0.206053 0.289770 -0.456381
Cl29  Cl    Cl    0.225619 0.435721 0.751665 -0.456952
Cl30  Cl    Cl    0.792395 0.578516 0.288253 -0.443196
Cl31  Cl    Cl    0.564363 0.225696 0.751789 -0.440034
Cl32  Cl    Cl    0.420134 0.793947 0.289770 -0.456381
Cl33  Cl    Cl    0.774381 0.564279 0.751665 -0.456952
Cl34  Cl    Cl    0.408415 0.064692 0.938808 -0.362063
Cl35  Cl    Cl    0.207605 0.421483 0.288253 -0.443196
Cl36  Cl    Cl    0.564279 0.774381 0.248335 -0.456952
Cl37  Cl    Cl    0.421483 0.207605 0.711747 -0.443196
Cl38  Cl    Cl    0.774304 0.435637 0.248211 -0.440034
Cl39  Cl    Cl    0.206053 0.579866 0.710230 -0.456381
Cl40  Cl    Cl    0.435721 0.225619 0.248335 -0.456952
Cl41  Cl    Cl    0.578516 0.792395 0.711747 -0.443196
Cl42  Cl    Cl    0.225696 0.564363 0.248211 -0.440034
Cl43  Cl    Cl    0.793947 0.420134 0.710230 -0.456381
Cl44  Cl    Cl    0.064692 0.408414 0.061192 -0.362063
Cl45  Cl    Cl    0.936374 0.592422 0.938683 -0.360696
Cl46  Cl    Cl    0.407578 0.063626 0.061317 -0.360696
Cl47  Cl    Cl    0.591585 0.935308 0.938808 -0.362063
Cl48  Cl    Cl    0.435308 0.091585 0.561192 -0.362063
H1    H     H_    0.838125 0.213671 0.253090 0.198205
H2    H     H_    0.826788 0.772773 0.219543 0.199529
H3    H     H_    0.213671 0.838125 0.746910 0.198205
H4    H     H_    0.771847 0.174197 0.218575 0.199137
H5    H     H_    0.838267 0.786229 0.746773 0.197787
H6    H     H_    0.173212 0.227227 0.219543 0.199529
H7    H     H_    0.786328 0.161875 0.746910 0.198205
H8    H     H_    0.228153 0.825803 0.218575 0.199137
H9    H     H_    0.338125 0.713671 0.753090 0.198205
H10   H     H_    0.674197 0.271847 0.281425 0.199137
H11   H     H_    0.286229 0.338266 0.753227 0.197787
H12   H     H_    0.174197 0.771847 0.781425 0.199137
H13   H     H_    0.727227 0.673212 0.280456 0.199529
H14   H     H_    0.661875 0.286328 0.753090 0.198205
H15   H     H_    0.325803 0.728153 0.281425 0.199137
H16   H     H_    0.713770 0.661733 0.753227 0.197787
H17   H     H_    0.272773 0.326788 0.280456 0.199529
H18   H     H_    0.661733 0.713770 0.246773 0.197787
H19   H     H_    0.326788 0.272773 0.719543 0.199529
H20   H     H_    0.713671 0.338125 0.246910 0.198205
H21   H     H_    0.271847 0.674197 0.718575 0.199137
H22   H     H_    0.338266 0.286229 0.246773 0.197787
H23   H     H_    0.786229 0.838266 0.253227 0.197787
H24   H     H_    0.673212 0.727227 0.719543 0.199529
H25   H     H_    0.286328 0.661875 0.246910 0.198205
H26   H     H_    0.728153 0.325803 0.718575 0.199137
H27   H     H_    0.876608 0.623653 0.159303 0.399581
H28   H     H_    0.038027 0.360388 0.818237 0.393583
H29   H     H_    0.639612 0.961973 0.181763 0.393584
H30   H     H_    0.376348 0.123391 0.840695 0.399579
H31   H     H_    0.123392 0.376347 0.159304 0.399580
H32   H     H_    0.961973 0.639612 0.818237 0.393583
H33   H     H_    0.360388 0.038027 0.181763 0.393584
H34   H     H_    0.227226 0.173212 0.780456 0.199529
H35   H     H_    0.623653 0.876608 0.840696 0.399580
H36   H     H_    0.376608 0.123653 0.659304 0.399581
H37   H     H_    0.538027 0.860388 0.318237 0.393583
H38   H     H_    0.139612 0.461973 0.681763 0.393584
H39   H     H_    0.876347 0.623392 0.340696 0.399580
H40   H     H_    0.623392 0.876347 0.659303 0.399581
H41   H     H_    0.461973 0.139612 0.318237 0.393583
H42   H     H_    0.860388 0.538027 0.681763 0.393584
H43   H     H_    0.123653 0.376608 0.340696 0.399580
H44   H     H_    0.161875 0.786328 0.253090 0.198205
H45   H     H_    0.825803 0.228153 0.781425 0.199137
H46   H     H_    0.213771 0.161733 0.253227 0.197787
H47   H     H_    0.772773 0.826788 0.780456 0.199529
H48   H     H_    0.161733 0.213770 0.746773 0.197787
N1    N     N_R   0.979131 0.456899 0.015516 -0.077539
N2    N     N_R   0.520876 0.043097 0.484425 -0.076991
N3    N     N_R   0.956903 0.479124 0.515575 -0.076991
N4    N     N_R   0.043101 0.520869 0.484484 -0.077540
N5    N     N_R   0.520869 0.043101 0.515516 -0.077540
N6    N     N_R   0.479124 0.956903 0.484425 -0.076991
N7    N     N_R   0.043097 0.520876 0.515575 -0.076991
N8    N     N_R   0.956899 0.479130 0.484484 -0.077539
N9    N     N_R   0.020876 0.543097 0.984425 -0.076991
N10   N     N_R   0.456903 0.979124 0.015575 -0.076991
N11   N     N_R   0.543101 0.020869 0.984484 -0.077539
N12   N     N_R   0.020869 0.543101 0.015516 -0.077540
N13   N     N_R   0.979124 0.456903 0.984425 -0.076991
N14   N     N_R   0.543097 0.020876 0.015575 -0.076991
N15   N     N_R   0.456899 0.979131 0.984484 -0.077540
N16   N     N_R   0.479130 0.956899 0.515516 -0.077539
O1    O     O_3   1.000000 0.500000 0.250000 -0.571521
O2    O     O_R   1.000000 0.454510 0.680680 -0.596376
O3    O     O_3   0.093077 0.386442 0.354825 -0.478062
O4    O     O_R   0.454510 1.000000 0.319320 -0.596376
O5    O     O_R   0.545490 0.000000 0.680680 -0.599427
O6    O     O_R   0.500000 0.954510 0.819320 -0.599426
O7    O     O_R   0.500000 0.045490 0.180680 -0.596376
O8    O     O_R   0.045490 0.500000 0.819320 -0.596376
O9    O     O_R   0.954510 0.500000 0.180680 -0.599427
O10   O     O_R   0.500000 0.045490 0.819320 -0.599428
O11   O     O_R   0.500000 0.954510 0.180680 -0.596376
O12   O     O_R   0.954510 0.500000 0.819320 -0.596376
O13   O     O_3   1.000000 0.500000 0.750000 -0.568205
O14   O     O_R   0.045490 0.500000 0.180680 -0.599427
O15   O     O_R   0.936000 0.609460 0.268180 -0.598898
O16   O     O_R   0.064000 0.390540 0.731820 -0.589041
O17   O     O_R   0.390540 0.936000 0.268180 -0.599651
O18   O     O_R   0.609460 0.064000 0.731820 -0.596163
O19   O     O_R   0.064000 0.390540 0.268180 -0.598899
O20   O     O_R   0.936000 0.609460 0.731820 -0.589041
O21   O     O_R   0.609460 0.064000 0.268180 -0.599652
O22   O     O_R   0.390540 0.936000 0.731820 -0.596163
O23   O     O_R   0.064000 0.609460 0.731820 -0.599651
O24   O     O_3   0.500000 1.000000 0.250000 -0.568205
O25   O     O_R   0.936000 0.390540 0.268180 -0.596163
O26   O     O_R   0.609460 0.936000 0.731820 -0.598899
O27   O     O_R   0.390540 0.064000 0.268180 -0.589042
O28   O     O_R   0.936000 0.390540 0.731820 -0.599652
O29   O     O_R   0.064000 0.609460 0.268180 -0.596164
O30   O     O_R   0.390540 0.064000 0.731820 -0.598898
O31   O     O_R   0.609460 0.936000 0.268180 -0.589041
O32   O     O_R   0.436000 0.109460 0.768180 -0.598900
O33   O     O_R   0.564000 0.890540 0.231820 -0.589041
O34   O     O_R   0.890540 0.436000 0.768180 -0.599651
O35   O     O_3   0.500000 1.000000 0.750000 -0.571521
O36   O     O_R   0.109460 0.564000 0.231820 -0.596163
O37   O     O_R   0.564000 0.890540 0.768180 -0.598899
O38   O     O_R   0.436000 0.109460 0.231820 -0.589041
O39   O     O_R   0.109460 0.564000 0.768180 -0.599652
O40   O     O_R   0.890540 0.436000 0.231820 -0.596163
O41   O     O_R   0.564000 0.109460 0.231820 -0.599651
O42   O     O_R   0.436000 0.890540 0.768180 -0.596163
O43   O     O_R   0.109460 0.436000 0.231820 -0.598899
O44   O     O_R   0.890540 0.564000 0.768180 -0.589042
O45   O     O_R   0.436000 0.890540 0.231820 -0.599651
O46   O     O_R   1.000000 0.454510 0.319320 -0.599426
O47   O     O_R   0.564000 0.109460 0.768180 -0.596164
O48   O     O_R   0.890540 0.564000 0.231820 -0.598899
O49   O     O_R   0.109460 0.436000 0.768180 -0.589041
O50   O     O_2   0.984753 0.613080 0.165263 -0.308024
O51   O     O_2   0.956626 0.654661 0.116178 -0.144693
O52   O     O_3   0.886442 0.593077 0.145175 -0.478062
O53   O     O_2   0.107774 0.403540 0.858433 -0.227304
O54   O     O_2   0.039022 0.344978 0.883272 -0.147414
O55   O     O_3   0.015377 0.387204 0.829829 -0.567241
O56   O     O_2   0.596460 0.892226 0.141567 -0.227304
O57   O     O_R   0.000000 0.545490 0.680680 -0.596376
O58   O     O_2   0.655022 0.960978 0.116728 -0.147414
O59   O     O_3   0.612796 0.984623 0.170171 -0.567241
O60   O     O_2   0.386920 0.015247 0.834737 -0.308026
O61   O     O_2   0.345339 0.043374 0.883822 -0.144691
O62   O     O_3   0.406923 0.113558 0.854825 -0.478060
O63   O     O_2   0.015247 0.386920 0.165263 -0.308025
O64   O     O_2   0.043374 0.345339 0.116178 -0.144693
O65   O     O_3   0.113558 0.406923 0.145175 -0.478062
O66   O     O_2   0.892226 0.596460 0.858433 -0.227304
O67   O     O_2   0.960978 0.655022 0.883272 -0.147414
O68   O     O_R   0.545490 1.000000 0.319320 -0.596376
O69   O     O_3   0.984623 0.612796 0.829829 -0.567241
O70   O     O_2   0.403540 0.107774 0.141567 -0.227304
O71   O     O_2   0.344978 0.039022 0.116728 -0.147414
O72   O     O_3   0.387204 0.015377 0.170171 -0.567241
O73   O     O_2   0.613080 0.984752 0.834737 -0.308025
O74   O     O_2   0.654661 0.956626 0.883822 -0.144693
O75   O     O_3   0.593077 0.886442 0.854825 -0.478061
O76   O     O_2   0.484752 0.113080 0.665263 -0.308025
O77   O     O_2   0.456626 0.154661 0.616178 -0.144693
O78   O     O_3   0.386442 0.093077 0.645175 -0.478062
O79   O     O_R   0.454510 0.000000 0.680680 -0.599427
O80   O     O_2   0.607774 0.903540 0.358433 -0.227304
O81   O     O_2   0.539022 0.844978 0.383272 -0.147414
O82   O     O_3   0.515377 0.887204 0.329829 -0.567241
O83   O     O_2   0.096460 0.392226 0.641567 -0.227304
O84   O     O_2   0.155022 0.460978 0.616728 -0.147414
O85   O     O_3   0.112796 0.484623 0.670171 -0.567241
O86   O     O_2   0.886920 0.515247 0.334737 -0.308025
O87   O     O_2   0.845339 0.543374 0.383822 -0.144693
O88   O     O_3   0.906923 0.613558 0.354825 -0.478061
O89   O     O_2   0.515247 0.886920 0.665263 -0.308025
O90   O     O_R   1.000000 0.545490 0.319320 -0.599427
O91   O     O_2   0.543374 0.845339 0.616178 -0.144694
O92   O     O_3   0.613558 0.906922 0.645175 -0.478062
O93   O     O_2   0.392226 0.096460 0.358433 -0.227304
O94   O     O_2   0.460978 0.155022 0.383272 -0.147414
O95   O     O_3   0.484623 0.112796 0.329829 -0.567241
O96   O     O_2   0.903540 0.607774 0.641567 -0.227304
O97   O     O_2   0.844978 0.539022 0.616728 -0.147414
O98   O     O_3   0.887204 0.515377 0.670171 -0.567241
O99   O     O_2   0.113080 0.484752 0.334737 -0.308025
O100  O     O_2   0.154661 0.456626 0.383822 -0.144693
S1    S     S_3+6 0.952430 0.603855 0.135833 0.134981
S2    S     S_3+6 0.547557 0.895982 0.364245 0.130153
S3    S     S_3+6 0.104017 0.452443 0.635755 0.130153
S4    S     S_3+6 0.896145 0.547570 0.364167 0.134981
S5    S     S_3+6 0.547569 0.896145 0.635833 0.134981
S6    S     S_3+6 0.452443 0.104017 0.364245 0.130153
S7    S     S_3+6 0.895982 0.547557 0.635755 0.130153
S8    S     S_3+6 0.103855 0.452430 0.364167 0.134981
S9    S     S_3+6 0.047557 0.395982 0.864245 0.130153
S10   S     S_3+6 0.604017 0.952443 0.135755 0.130153
S11   S     S_3+6 0.396145 0.047570 0.864167 0.134981
S12   S     S_3+6 0.047570 0.396145 0.135833 0.134981
S13   S     S_3+6 0.952443 0.604017 0.864245 0.130153
S14   S     S_3+6 0.395982 0.047557 0.135755 0.130153
S15   S     S_3+6 0.603855 0.952430 0.864167 0.134981
S16   S     S_3+6 0.452431 0.103855 0.635833 0.134981
Zn1   Zn    Zn3+2 0.935020 0.500000 0.224040 1.141381
Zn2   Zn    Zn3+2 0.564980 1.000000 0.275960 1.131763
Zn3   Zn    Zn3+2 0.000000 0.435020 0.724040 1.131763
Zn4   Zn    Zn3+2 0.000000 0.564980 0.275960 1.141380
Zn5   Zn    Zn3+2 0.564980 1.000000 0.724040 1.141381
Zn6   Zn    Zn3+2 0.435020 1.000000 0.275960 1.131763
Zn7   Zn    Zn3+2 0.000000 0.564980 0.724040 1.131763
Zn8   Zn    Zn3+2 0.000000 0.435020 0.275960 1.141381
Zn9   Zn    Zn3+2 0.064980 0.500000 0.775960 1.131763
Zn10  Zn    Zn3+2 0.500000 0.935020 0.224040 1.131763
Zn11  Zn    Zn3+2 0.500000 0.064980 0.775960 1.141379
Zn12  Zn    Zn3+2 0.064980 0.500000 0.224040 1.141380
Zn13  Zn    Zn3+2 0.935020 0.500000 0.775960 1.131763
Zn14  Zn    Zn3+2 0.500000 0.064980 0.224040 1.131763
Zn15  Zn    Zn3+2 0.500000 0.935020 0.775960 1.141380
Zn16  Zn    Zn3+2 0.435020 1.000000 0.724040 1.141380

loop_
_geom_bond_atom_site_label_1
_geom_bond_atom_site_label_2
_ccdc_geom_bond_type
O43   Zn12  S    
C169  O47   A    
C73   Cl30  S    
C134  Cl34  S    
C104  N2    A    
H37   O82   S    
C132  C150  A    
C77   C101  A    
C4    O28   A    
C163  O8    A    
O4    Zn6   S    
O20   Zn7   S    
C7    O31   A    
H41   O95   S    
C146  Cl7   S    
C9    C114  A    
C125  S4    S    
C40   H15   S    
O42   Zn15  S    
C18   H12   S    
C141  C154  A    
C12   C126  A    
C161  O10   A    
O18   Zn5   S    
C82   C87   A    
O73   S15   D    
C139  C152  A    
N1    N13   A    
C48   C144  A    
C39   C74   A    
O60   S11   D    
O24   Zn10  S    
C60   Cl17  S    
C140  Cl2   S    
C25   C60   A    
C33   H8    S    
C107  N3    A    
C36   C71   A    
C33   C69   A    
O45   Zn10  S    
C74   Cl31  S    
C29   C64   A    
C10   C162  S    
C75   C103  A    
C57   C133  S    
C170  O43   A    
C32   C57   A    
O98   S7    S    
C17   C52   A    
O56   S10   D    
O27   Zn6   S    
O19   Zn8   S    
C105  N16   A    
C97   C173  S    
C5    O29   A    
C65   C99   A    
C120  S15   S    
C113  C130  A    
H40   O92   S    
C137  Cl46  S    
N9    N12   A    
H42   O98   S    
C164  O14   A    
H32   O69   S    
C130  Cl1   S    
C79   C175  S    
O3    S8    S    
C165  O15   A    
C20   C111  A    
O8    Zn9   S    
C7    C88   S    
C146  C154  A    
C101  C170  S    
C112  N10   A    
C16   C129  A    
C127  C145  A    
H29   O59   S    
C54   Cl11  S    
C165  O48   A    
C131  C149  A    
C120  C138  A    
C158  O2    A    
O53   S9    D    
C117  C135  A    
C78   Cl36  S    
C47   H21   S    
C118  C136  A    
C6    O32   A    
C87   C174  S    
C18   C89   A    
C49   C155  A    
C45   C81   A    
C173  O42   A    
C22   C58   A    
H30   O62   S    
C138  C151  A    
C50   C85   A    
O35   Zn5   S    
N3    N8    A    
C115  S10   S    
C159  O68   A    
C41   C76   A    
C54   C88   A    
C5    O36   A    
C134  C151  A    
C145  Cl6   S    
N2    N5    A    
C129  C147  A    
C49   H24   S    
C82   Cl39  S    
C28   C63   A    
O40   Zn1   S    
C63   Cl20  S    
C113  S1    S    
C142  C156  A    
C66   Cl24  S    
C41   H16   S    
C83   C93   A    
C23   H46   S    
C7    O33   A    
C126  C143  A    
C161  O6    A    
O100  S8    D    
C53   Cl10  S    
H27   O52   S    
C83   Cl40  S    
C121  S16   S    
C23   C59   A    
C24   C36   A    
O62   S11   S    
C55   Cl13  S    
C49   C84   A    
C35   C155  S    
C55   C90   A    
O57   Zn7   S    
O9    Zn1   S    
C36   H10   S    
O24   Zn14  S    
C168  O45   A    
C10   C119  A    
C17   H1    S    
C142  Cl4   S    
C12   C121  A    
C31   C46   A    
C48   H22   S    
O13   Zn7   S    
C160  O79   A    
C104  C153  S    
C52   C79   A    
C16   C125  A    
C125  C142  A    
C18   C53   A    
O59   S10   S    
C98   C172  S    
C6    O30   A    
C69   Cl26  S    
N11   N14   A    
C9    C118  A    
C66   C101  A    
C11   C120  A    
C8    C117  A    
C37   H11   S    
C115  C132  A    
C69   C103  A    
C43   H18   S    
C71   Cl28  S    
O39   Zn9   S    
C56   Cl14  S    
C171  O20   A    
O51   S1    D    
C15   C124  A    
C22   C133  A    
C168  O17   A    
O92   S5    S    
C15   C158  S    
O24   Zn6   S    
C8    C164  S    
H31   O65   S    
C46   C144  S    
H35   O75   S    
C6    C90   S    
C3    C93   S    
O34   Zn13  S    
H28   O55   S    
C3    O27   A    
C85   Cl42  S    
C67   Cl25  S    
C27   C62   A    
O64   S12   D    
C2    C38   A    
O14   Zn12  S    
C3    O38   A    
C53   C87   A    
C25   H47   S    
O55   S9    S    
H33   O72   S    
C164  O9    A    
C5    C91   S    
C32   C67   A    
C26   H48   S    
C19   C54   A    
O95   S6    S    
C128  S7    S    
C106  C156  S    
O21   Zn2   S    
C112  C150  S    
C137  C150  A    
O77   S16   D    
C44   H19   S    
C162  O7    A    
C171  O44   A    
C22   H45   S    
O94   S6    D    
O37   Zn15  S    
O80   S2    D    
O33   Zn10  S    
O1    Zn4   S    
C95   C167  S    
O2    Zn3   S    
C80   Cl37  S    
C175  O25   A    
C1    C17   A    
C48   C83   A    
C14   C159  S    
C121  C139  A    
C63   C97   A    
C160  O5    A    
O70   S14   D    
C128  C146  A    
C174  O39   A    
C135  Cl44  S    
O32   Zn11  S    
C35   C41   A    
O29   Zn4   S    
C30   C65   A    
C65   Cl22  S    
O15   Zn4   S    
C1    C24   S    
O16   Zn3   S    
C94   C176  S    
C96   C165  S    
C29   H4    S    
C34   H9    S    
C58   C92   A    
C162  O11   A    
C33   C68   A    
O76   S16   D    
C60   C94   A    
C147  Cl8   S    
C76   Cl33  S    
C62   C96   A    
C116  S11   S    
C114  C131  A    
O10   Zn11  S    
C50   C122  A    
O11   Zn10  S    
C136  C149  A    
O1    Zn8   S    
O84   S3    D    
C43   C78   A    
O23   Zn7   S    
N6    N16   A    
C30   H5    S    
C26   C61   A    
C172  O41   A    
C116  C134  A    
C11   C161  S    
C51   C86   A    
C42   C46   A    
O89   S5    D    
C21   C122  A    
C9    C163  S    
C51   H26   S    
O13   Zn13  S    
C24   C29   A    
O99   S8    D    
C21   H44   S    
O35   Zn16  S    
C56   C91   A    
C26   C166  A    
C110  N15   A    
C13   C28   A    
C2    C27   A    
C34   C70   A    
C70   C97   A    
C140  C153  A    
C74   C102  A    
C64   C98   A    
O67   S13   D    
C107  N7    A    
O63   S12   D    
C64   Cl21  S    
C59   Cl16  S    
C129  S8    S    
C62   Cl19  S    
O38   Zn14  S    
C28   H3    S    
O48   Zn1   S    
O25   Zn8   S    
O52   S1    S    
O72   S14   S    
C44   C80   A    
C106  N4    A    
C43   C100  A    
C110  C151  S    
C68   C122  S    
O68   Zn2   S    
C14   C127  A    
O13   Zn3   S    
O28   Zn3   S    
O90   Zn4   S    
O65   S12   S    
O26   Zn5   S    
C75   Cl32  S    
O97   S7    D    
N4    N7    A    
O82   S2    S    
C84   C94   A    
C12   C160  S    
O7    Zn14  S    
C11   C116  A    
C45   H20   S    
C8    C113  A    
C143  C152  A    
C15   C128  A    
C23   C144  A    
O12   Zn13  S    
O24   Zn2   S    
O85   S3    S    
O86   S4    D    
C78   C88   A    
C70   Cl27  S    
C105  C152  S    
C16   C157  S    
C141  Cl3   S    
C21   C56   A    
C19   C100  A    
C61   C95   A    
C72   Cl29  S    
O66   S13   D    
O93   S6    D    
O91   S5    D    
C42   H17   S    
O87   S4    D    
C172  O21   A    
C40   C75   A    
H43   O3    S    
C13   C34   A    
O1    Zn1   S    
C163  O12   A    
O83   S3    D    
C138  Cl47  S    
C173  O22   A    
C86   Cl43  S    
C84   Cl41  S    
O74   S15   D    
C123  S2    S    
C44   C111  A    
C169  O18   A    
C117  S12   S    
C40   C68   A    
C37   C72   A    
C58   Cl15  S    
O35   Zn11  S    
C73   C96   A    
O88   S4    S    
O36   Zn12  S    
C109  N1    A    
O54   S9    D    
C20   H34   S    
C4    C92   S    
C139  Cl48  S    
C31   C66   A    
C176  O26   A    
C124  C141  A    
C25   C155  A    
C105  N5    A    
C1    C45   A    
C85   C91   A    
C19   H23   S    
O31   Zn2   S    
C76   C99   A    
O69   S13   S    
C30   C35   A    
C108  N9    A    
C143  Cl5   S    
O47   Zn11  S    
C175  O40   A    
C99   C171  S    
C39   C57   A    
C31   H6    S    
C47   C82   A    
C108  N13   A    
C124  S3    S    
C159  O4    A    
C72   C95   A    
C118  S13   S    
O30   Zn16  S    
C136  Cl45  S    
C167  O16   A    
H38   O85   S    
O1    Zn12  S    
C176  O37   A    
C145  C153  A    
C131  Cl12  S    
C102  C169  S    
C32   H7    S    
C2    C100  S    
C103  C168  S    
C4    O34   A    
C47   C89   A    
O44   Zn13  S    
C112  N14   A    
C20   C55   A    
O78   S16   S    
C71   C98   A    
O49   Zn9   S    
C130  C148  A    
C119  C137  A    
O5    Zn5   S    
O17   Zn6   S    
O13   Zn9   S    
C104  N6    A    
C79   C81   A    
C109  N12   A    
C110  N11   A    
C123  C140  A    
C132  Cl23  S    
C157  O46   A    
C119  S14   S    
C174  O23   A    
C126  S5    S    
O41   Zn14  S    
C147  C156  A    
O75   S15   S    
C81   Cl38  S    
C170  O19   A    
C111  C166  S    
O58   S10   D    
C50   H25   S    
C42   C77   A    
C158  O57   A    
O81   S2    D    
C109  C148  S    
C106  N8    A    
C52   Cl9   S    
C167  O49   A    
H36   O78   S    
O6    Zn15  S    
C14   C123  A    
C13   C89   S    
H39   O88   S    
O79   Zn16  S    
O61   S11   D    
C27   H2    S    
C37   C166  A    
C127  S6    S    
C157  O90   A    
O50   S1    D    
C86   C92   A    
C38   H13   S    
C51   C133  A    
O46   Zn8   S    
C80   C90   A    
C107  C154  S    
C77   Cl35  S    
C108  C149  S    
C114  S9    S    
O35   Zn15  S    
N10   N15   A    
O71   S14   D    
C135  C148  A    
O96   S7    D    
C59   C93   A    
O22   Zn16  S    
C61   Cl18  S    
C39   H14   S    
C10   C115  A    
C67   C102  A    
C38   C73   A    
