data_mof_unit_24366.cif
_audit_creation_date              2012-12-11T15:22:23-0500
_audit_creation_method            fapswitch 2.2
_symmetry_space_group_name_H-M    P1
_symmetry_Int_Tables_number       1
_space_group_crystal_system       triclinic
_cell_length_a                    22.428231
_cell_length_b                    12.967927
_cell_length_c                    26.988504
_cell_angle_alpha                 89.876298
_cell_angle_beta                  90.610536
_cell_angle_gamma                 89.863463
_cell_volume                      7849.05663993

loop_
_atom_site_label
_atom_site_type_symbol
_atom_type_description
_atom_site_fract_x
_atom_site_fract_y
_atom_site_fract_z
_atom_type_partial_charge
C1    C     C_R   0.720672 0.345055 0.178192 0.545339
C2    C     C_R   0.279149 0.345446 0.821603 0.545051
C3    C     C_R   0.205029 0.806056 0.173034 0.560427
C4    C     C_R   0.779293 0.844940 0.821782 0.545091
C5    C     C_R   0.475934 0.163437 0.871092 -0.005587
C6    C     C_R   0.528057 0.162129 0.127108 -0.002992
C7    C     C_R   0.975032 0.661871 0.871581 -0.003920
C8    C     C_R   0.027154 0.663524 0.127579 -0.004051
C9    C     C_R   0.520460 0.256735 0.102269 -0.133904
C10   C     C_R   0.479623 0.257881 0.896492 -0.134504
C11   C     C_R   0.024457 0.757812 0.101767 -0.137866
C12   C     C_R   0.983468 0.756468 0.896009 -0.135974
C13   C     C_R   0.509774 0.258391 0.050971 0.014983
C14   C     C_R   0.492074 0.259213 0.947462 0.013453
C15   C     C_R   0.013746 0.758938 0.050525 0.015701
C16   C     C_R   0.995935 0.758069 0.947031 0.012917
C17   C     C_R   0.507940 0.164501 0.024580 0.064279
C18   C     C_R   0.500487 0.165030 0.972881 0.064041
C19   C     C_R   0.006336 0.664674 0.025196 0.065513
C20   C     C_R   0.998862 0.664132 0.973507 0.064910
C21   C     C_R   0.502844 0.351938 0.025271 -0.137444
C22   C     C_R   0.493471 0.352297 0.973919 -0.138106
C23   C     C_R   0.012415 0.851972 0.023838 -0.141083
C24   C     C_R   0.002948 0.851602 0.972496 -0.143462
C25   C     C_R   0.738989 0.958001 0.129717 0.024833
C26   C     C_R   0.256433 0.943172 0.866440 0.022880
C27   C     C_R   0.237922 0.461453 0.128835 0.023911
C28   C     C_R   0.760977 0.456914 0.870104 0.024615
C29   C     C_R   0.793935 0.965791 0.105689 -0.129526
C30   C     C_R   0.197924 0.931858 0.883486 -0.129273
C31   C     C_R   0.292761 0.468612 0.104608 -0.134420
C32   C     C_R   0.705810 0.463717 0.893862 -0.129780
C33   C     C_R   0.797469 0.947173 0.054976 -0.119551
C34   C     C_R   0.187491 0.892209 0.930751 -0.119644
C35   C     C_R   0.295710 0.452470 0.053656 -0.121465
C36   C     C_R   0.702113 0.444802 0.944564 -0.119642
C37   C     C_R   0.745953 0.921935 0.027492 0.036484
C38   C     C_R   0.235459 0.865282 0.962312 0.034508
C39   C     C_R   0.243728 0.430256 0.026143 0.036637
C40   C     C_R   0.753684 0.420301 0.972265 0.036299
C41   C     C_R   0.691794 0.908415 0.052138 -0.121136
C42   C     C_R   0.293782 0.870716 0.943933 -0.119626
C43   C     C_R   0.189489 0.418415 0.050833 -0.119377
C44   C     C_R   0.808079 0.407519 0.947861 -0.121549
C45   C     C_R   0.554091 0.157226 0.177229 0.544059
C46   C     C_R   0.446653 0.157248 0.822294 0.543179
C47   C     C_R   0.053959 0.657418 0.177340 0.535093
C48   C     C_R   0.946509 0.657046 0.822409 0.543333
C49   C     C_R   0.688472 0.925238 0.102844 -0.124521
C50   C     C_R   0.304119 0.908636 0.896360 -0.125441
C51   C     C_R   0.186722 0.432805 0.101732 -0.122538
C52   C     C_R   0.811569 0.424590 0.897169 -0.124757
C53   C     C_R   0.715482 0.834182 0.949100 -0.118609
C54   C     C_R   0.261707 0.773161 0.042075 -0.114490
C55   C     C_R   0.212508 0.342367 0.948012 -0.118049
C56   C     C_R   0.784528 0.333580 0.051005 -0.118653
C57   C     C_R   0.721381 0.819006 0.898426 -0.125216
C58   C     C_R   0.255725 0.761729 0.093364 -0.127818
C59   C     C_R   0.219210 0.324828 0.897584 -0.125875
C60   C     C_R   0.778775 0.319007 0.101737 -0.124789
C61   C     C_R   0.791322 0.960999 0.894505 -0.123029
C62   C     C_R   0.175437 0.886805 0.092268 -0.119855
C63   C     C_R   0.290797 0.464286 0.893337 -0.122515
C64   C     C_R   0.707864 0.460222 0.104984 -0.123397
C65   C     C_R   0.784695 0.977209 0.945148 -0.115559
C66   C     C_R   0.181774 0.898970 0.041351 -0.113104
C67   C     C_R   0.283438 0.482796 0.943720 -0.115788
C68   C     C_R   0.714361 0.475866 0.054268 -0.115793
C69   C     C_R   0.748438 0.911435 0.973182 0.038374
C70   C     C_R   0.225364 0.843256 0.015608 0.038160
C71   C     C_R   0.246072 0.419201 0.971858 0.037967
C72   C     C_R   0.751068 0.410173 0.026572 0.038343
C73   C     C_R   0.761184 0.879603 0.871096 0.024292
C74   C     C_R   0.213217 0.819918 0.119117 0.019705
C75   C     C_R   0.260353 0.382678 0.870315 0.023740
C76   C     C_R   0.738579 0.379491 0.128772 0.024377
C77   C     C_R   0.521128 0.170003 0.368830 0.019033
C78   C     C_R   0.478932 0.170093 0.631187 0.018645
C79   C     C_R   0.021125 0.670003 0.368828 0.018160
C80   C     C_R   0.978934 0.670090 0.631188 0.018596
C81   C     C_R   0.517161 0.265714 0.394242 0.016826
C82   C     C_R   0.482626 0.265798 0.605567 0.016791
C83   C     C_R   0.017156 0.765716 0.394239 0.016543
C84   C     C_R   0.982638 0.765797 0.605570 0.016826
C85   C     C_R   0.514041 0.264154 0.446103 -0.089297
C86   C     C_R   0.485790 0.264198 0.553710 -0.089149
C87   C     C_R   0.014035 0.764158 0.446100 -0.089253
C88   C     C_R   0.985804 0.764203 0.553713 -0.089177
C89   C     C_R   0.731146 0.002136 0.179259 0.541762
C90   C     C_R   0.268422 0.000479 0.820338 0.541047
C91   C     C_R   0.230953 0.502779 0.179028 0.532287
C92   C     C_R   0.768837 0.501733 0.820670 0.542119
C93   C     C_R   0.502453 0.172562 0.472365 0.019454
C94   C     C_R   0.497695 0.172596 0.527663 0.019542
C95   C     C_R   0.002450 0.672567 0.472363 0.019526
C96   C     C_R   0.997696 0.672600 0.527662 0.019488
C97   C     C_R   0.494634 0.081327 0.444994 -0.116308
C98   C     C_R   0.505816 0.081407 0.555246 -0.116303
C99   C     C_R   0.994630 0.581331 0.444993 -0.116407
C100  C     C_R   0.005807 0.581405 0.555244 -0.116336
C101  C     C_R   0.505869 0.079450 0.394368 -0.124620
C102  C     C_R   0.494541 0.079555 0.605867 -0.125112
C103  C     C_R   0.005864 0.579453 0.394366 -0.125430
C104  C     C_R   0.994534 0.579551 0.605865 -0.125102
C105  C     C_R   0.743502 0.948435 0.369863 0.033732
C106  C     C_R   0.256711 0.948948 0.630067 0.033801
C107  C     C_R   0.243486 0.448465 0.369874 0.033552
C108  C     C_R   0.756736 0.449004 0.630048 0.033716
C109  C     C_R   0.699062 0.889277 0.393445 0.083300
C110  C     C_R   0.301264 0.889769 0.606535 0.083544
C111  C     C_R   0.199028 0.389362 0.393464 0.083585
C112  C     C_R   0.801312 0.389888 0.606508 0.083545
C113  C     C_R   0.702948 0.873763 0.444236 -0.096306
C114  C     C_R   0.297306 0.874124 0.555774 -0.096100
C115  C     C_R   0.202908 0.373878 0.444256 -0.096433
C116  C     C_R   0.797379 0.374313 0.555742 -0.096123
C117  C     C_R   0.752062 0.910289 0.471478 0.016100
C118  C     C_R   0.248079 0.910689 0.528483 0.015925
C119  C     C_R   0.252031 0.410376 0.471493 0.016102
C120  C     C_R   0.748151 0.410866 0.528450 0.015926
C121  C     C_R   0.799891 0.955460 0.446727 -0.135678
C122  C     C_R   0.200248 0.956182 0.553186 -0.135721
C123  C     C_R   0.299871 0.455501 0.446739 -0.135612
C124  C     C_R   0.700302 0.456305 0.553154 -0.135703
C125  C     C_R   0.795444 0.975149 0.396405 -0.159244
C126  C     C_R   0.204719 0.975885 0.603482 -0.159300
C127  C     C_R   0.295432 0.475162 0.396414 -0.159238
C128  C     C_R   0.704750 0.475948 0.603456 -0.159305
C129  C     C_R   0.780020 0.978513 0.554969 -0.114039
C130  C     C_R   0.219879 0.978616 0.444776 -0.113869
C131  C     C_R   0.280012 0.478569 0.554985 -0.114082
C132  C     C_R   0.719921 0.478747 0.444739 -0.113863
C133  C     C_R   0.721038 0.346425 0.321971 0.546325
C134  C     C_R   0.278967 0.346472 0.678029 0.545852
C135  C     C_R   0.221031 0.846406 0.321978 0.557273
C136  C     C_R   0.778970 0.846464 0.678025 0.545879
C137  C     C_R   0.785317 0.965036 0.605974 -0.128126
C138  C     C_R   0.214568 0.965019 0.393802 -0.127130
C139  C     C_R   0.285315 0.465071 0.605988 -0.128093
C140  C     C_R   0.714591 0.465106 0.393768 -0.127703
C141  C     C_R   0.730868 0.804014 0.599017 -0.121124
C142  C     C_R   0.269139 0.803701 0.401150 -0.121885
C143  C     C_R   0.230830 0.304087 0.599028 -0.121131
C144  C     C_R   0.769220 0.303850 0.401125 -0.121167
C145  C     C_R   0.727698 0.815320 0.548251 -0.121842
C146  C     C_R   0.272376 0.815188 0.451908 -0.121351
C147  C     C_R   0.227653 0.315412 0.548264 -0.121805
C148  C     C_R   0.772477 0.315375 0.451880 -0.121669
C149  C     C_R   0.753104 0.901636 0.525609 0.036421
C150  C     C_R   0.246925 0.901737 0.474347 0.036281
C151  C     C_R   0.253074 0.401716 0.525624 0.036436
C152  C     C_R   0.747002 0.401910 0.474314 0.036240
C153  C     C_R   0.761858 0.876439 0.627969 0.025502
C154  C     C_R   0.238106 0.876252 0.372008 0.024116
C155  C     C_R   0.261845 0.376480 0.627980 0.025540
C156  C     C_R   0.738141 0.376340 0.371983 0.025488
C157  C     C_R   0.552568 0.159425 0.320917 0.538632
C158  C     C_R   0.447441 0.159433 0.679084 0.537463
C159  C     C_R   0.052567 0.659425 0.320915 0.539922
C160  C     C_R   0.947441 0.659432 0.679084 0.537598
C161  C     C_R   0.732223 0.000150 0.322410 0.558002
C162  C     C_R   0.267840 0.000261 0.677552 0.557777
C163  C     C_R   0.232220 0.500156 0.322413 0.560211
C164  C     C_R   0.767844 0.500271 0.677547 0.558341
C165  C     C_R   0.521739 0.069251 0.100837 -0.129825
C166  C     C_R   0.489720 0.071143 0.895969 -0.132884
C167  C     C_R   0.015348 0.570995 0.102464 -0.132809
C168  C     C_R   0.983461 0.568970 0.897626 -0.131105
C169  C     C_R   0.513728 0.069741 0.049805 0.011489
C170  C     C_R   0.500244 0.070907 0.946778 0.012461
C171  C     C_R   0.006748 0.570560 0.051458 0.011403
C172  C     C_R   0.993303 0.569360 0.948456 0.012070
C173  C     C_R   0.507425 0.977363 0.972187 -0.136773
C174  C     C_R   0.513619 0.976729 0.023501 -0.139319
C175  C     C_R   0.994768 0.476258 0.974851 -0.140393
C176  C     C_R   0.000939 0.476900 0.026156 -0.140883
Cr1   Cr    Cr6+3 0.756570 0.170940 0.251190 1.014889
Cr2   Cr    Cr6+3 0.243430 0.170940 0.748810 1.014672
Cr3   Cr    Cr6+3 0.256570 0.670940 0.251190 1.015930
Cr4   Cr    Cr6+3 0.743430 0.670940 0.748810 1.014678
Cr5   Cr    Cr6+3 0.623740 0.299110 0.249580 1.012626
Cr6   Cr    Cr6+3 0.376260 0.299110 0.750420 1.011128
Cr7   Cr    Cr6+3 0.123740 0.799110 0.249580 1.006016
Cr8   Cr    Cr6+3 0.876260 0.799110 0.750420 1.011478
Cr9   Cr    Cr6+3 0.625990 0.036240 0.250480 1.057412
Cr10  Cr    Cr6+3 0.374010 0.036240 0.749520 1.057739
Cr11  Cr    Cr6+3 0.125990 0.536240 0.250480 1.051908
Cr12  Cr    Cr6+3 0.874010 0.536240 0.749520 1.056172
H1    H     H_    0.487583 0.998033 0.876599 0.129606
H2    H     H_    0.527409 0.995664 0.119482 0.129807
H3    H     H_    0.977586 0.495450 0.879154 0.129029
H4    H     H_    0.017144 0.497865 0.122001 0.129531
H5    H     H_    0.822077 0.009011 0.874169 0.126416
H6    H     H_    0.141181 0.931093 0.110616 0.127832
H7    H     H_    0.322452 0.510483 0.872994 0.127038
H8    H     H_    0.676776 0.508088 0.125088 0.126298
H9    H     H_    0.651281 0.889698 0.031945 0.105104
H10   H     H_    0.331811 0.851733 0.967279 0.104377
H11   H     H_    0.148623 0.402255 0.030599 0.108020
H12   H     H_    0.848632 0.389378 0.968238 0.105473
H13   H     H_    0.645276 0.919505 0.120199 0.129719
H14   H     H_    0.349766 0.916892 0.884257 0.128941
H15   H     H_    0.143531 0.428166 0.119177 0.133758
H16   H     H_    0.854916 0.419608 0.879996 0.130536
H17   H     H_    0.518613 0.009833 0.537861 0.114525
H18   H     H_    0.482098 0.009743 0.462552 0.114713
H19   H     H_    0.018598 0.509829 0.537857 0.114497
H20   H     H_    0.982092 0.509748 0.462550 0.114555
H21   H     H_    0.495405 0.005753 0.624742 0.158071
H22   H     H_    0.505246 0.005633 0.375662 0.158803
H23   H     H_    0.995392 0.505747 0.624738 0.158143
H24   H     H_    0.005240 0.505636 0.375661 0.158205
H25   H     H_    0.521236 0.335869 0.465350 0.099675
H26   H     H_    0.478367 0.335882 0.534293 0.099659
H27   H     H_    0.021229 0.835875 0.465346 0.099643
H28   H     H_    0.978392 0.835894 0.534300 0.099630
H29   H     H_    0.798353 0.047521 0.538455 0.110328
H30   H     H_    0.201488 0.047774 0.461105 0.110727
H31   H     H_    0.298357 0.547568 0.538473 0.110290
H32   H     H_    0.701512 0.547895 0.461064 0.110688
H33   H     H_    0.809490 0.021391 0.627857 0.140016
H34   H     H_    0.190338 0.021467 0.371780 0.141796
H35   H     H_    0.309506 0.521403 0.627873 0.140086
H36   H     H_    0.690330 0.521513 0.371745 0.140480
H37   H     H_    0.507103 0.904637 0.952473 0.101550
H38   H     H_    0.518762 0.903575 0.042590 0.098887
H39   H     H_    0.990121 0.403074 0.955894 0.099413
H40   H     H_    0.001749 0.404153 0.046001 0.101099
H41   H     H_    0.666060 0.836458 0.462474 0.123828
H42   H     H_    0.334215 0.836638 0.537580 0.124049
H43   H     H_    0.166007 0.336616 0.462498 0.123613
H44   H     H_    0.834303 0.336876 0.537548 0.123998
H45   H     H_    0.707831 0.753650 0.526791 0.102838
H46   H     H_    0.292357 0.753521 0.473537 0.102752
H47   H     H_    0.207770 0.253759 0.526802 0.102889
H48   H     H_    0.792483 0.253737 0.473510 0.102696
H49   H     H_    0.713256 0.733768 0.614945 0.140342
H50   H     H_    0.286778 0.733320 0.385377 0.139530
H51   H     H_    0.213206 0.233847 0.614952 0.140355
H52   H     H_    0.786876 0.233474 0.385359 0.139893
H53   H     H_    0.839768 0.979365 0.466506 0.107221
H54   H     H_    0.160308 0.980211 0.533389 0.107268
H55   H     H_    0.339753 0.479388 0.466516 0.107271
H56   H     H_    0.660361 0.480324 0.533354 0.107323
H57   H     H_    0.831190 0.017612 0.379100 0.130130
H58   H     H_    0.168901 0.018395 0.620739 0.129940
H59   H     H_    0.331189 0.517589 0.379103 0.130305
H60   H     H_    0.668917 0.518414 0.620717 0.129987
H61   H     H_    0.469301 0.329461 0.877391 0.125523
H62   H     H_    0.525459 0.328607 0.122312 0.122552
H63   H     H_    0.977294 0.828371 0.876021 0.122002
H64   H     H_    0.033696 0.829477 0.120942 0.118575
H65   H     H_    0.487077 0.425261 0.954936 0.101759
H66   H     H_    0.504278 0.424690 0.044910 0.101819
H67   H     H_    0.001016 0.924368 0.952735 0.101383
H68   H     H_    0.018401 0.924954 0.042696 0.099166
H69   H     H_    0.833523 0.990700 0.125593 0.123456
H70   H     H_    0.160334 0.956685 0.860890 0.122431
H71   H     H_    0.332793 0.490861 0.124637 0.123598
H72   H     H_    0.666166 0.488204 0.873764 0.122961
H73   H     H_    0.687433 0.781959 0.969736 0.099346
H74   H     H_    0.294919 0.727479 0.023209 0.098645
H75   H     H_    0.183516 0.291907 0.968744 0.103042
H76   H     H_    0.812922 0.281438 0.030619 0.099468
H77   H     H_    0.697980 0.754925 0.881487 0.133514
H78   H     H_    0.284227 0.707259 0.112815 0.134460
H79   H     H_    0.195381 0.260944 0.880892 0.133627
H80   H     H_    0.802627 0.255417 0.118976 0.133646
H81   H     H_    0.840211 0.954988 0.037072 0.106959
H82   H     H_    0.141904 0.886232 0.943246 0.111662
H83   H     H_    0.338464 0.459176 0.035671 0.106124
H84   H     H_    0.659220 0.451983 0.962303 0.107072
H85   H     H_    0.809149 0.039487 0.962584 0.101212
H86   H     H_    0.153530 0.954693 0.022494 0.101002
H87   H     H_    0.308361 0.544773 0.960955 0.097796
H88   H     H_    0.689498 0.537652 0.036523 0.100833
O1    O     O_R   0.769900 0.064540 0.196060 -0.523907
O2    O     O_R   0.230100 0.064540 0.803940 -0.522961
O3    O     O_R   0.269900 0.564540 0.196060 -0.533087
O4    O     O_R   0.730100 0.564540 0.803940 -0.523794
O5    O     O_R   0.574760 0.239320 0.300850 -0.514963
O6    O     O_R   0.425240 0.239320 0.699150 -0.514885
O7    O     O_R   0.074760 0.739320 0.300850 -0.513777
O8    O     O_R   0.925240 0.739320 0.699150 -0.514985
O9    O     O_R   0.566290 0.069580 0.305400 -0.490093
O10   O     O_R   0.433710 0.069580 0.694600 -0.491274
O11   O     O_R   0.066290 0.569580 0.305400 -0.489022
O12   O     O_R   0.933710 0.569580 0.694600 -0.490984
O13   O     O_R   0.680760 0.993330 0.302620 -0.458052
O14   O     O_R   0.319240 0.993330 0.697380 -0.458315
O15   O     O_R   0.180760 0.493330 0.302620 -0.455512
O16   O     O_R   0.819240 0.493330 0.697380 -0.458116
O17   O     O_3   0.668770 0.168760 0.250420 -0.243056
O18   O     O_3   0.331230 0.168760 0.749580 -0.242133
O19   O     O_3   0.168770 0.668760 0.250420 -0.264193
O20   O     O_3   0.831230 0.668760 0.749580 -0.242291
O21   O     O_R   0.750800 0.274080 0.199250 -0.504838
O22   O     O_R   0.249200 0.274080 0.800750 -0.504023
O23   O     O_R   0.250800 0.774080 0.199250 -0.496157
O24   O     O_R   0.749200 0.774080 0.800750 -0.504950
O25   O     O_R   0.669990 0.371670 0.194150 -0.517282
O26   O     O_R   0.330010 0.371670 0.805850 -0.518056
O27   O     O_R   0.169990 0.871670 0.194150 -0.515705
O28   O     O_R   0.830010 0.871670 0.805850 -0.516856
O29   O     O_R   0.574600 0.238480 0.197800 -0.503773
O30   O     O_R   0.425400 0.238480 0.802200 -0.504639
O31   O     O_R   0.074600 0.738480 0.197800 -0.522973
O32   O     O_R   0.925400 0.738480 0.802200 -0.503466
O33   O     O_R   0.566130 0.068680 0.194240 -0.522836
O34   O     O_R   0.433870 0.068680 0.805760 -0.521835
O35   O     O_R   0.066130 0.568680 0.194240 -0.522001
O36   O     O_R   0.933870 0.568680 0.805760 -0.523815
O37   O     O_R   0.680610 0.992490 0.199570 -0.501457
O38   O     O_R   0.319390 0.992490 0.800430 -0.498457
O39   O     O_R   0.180610 0.492490 0.199570 -0.501460
O40   O     O_R   0.819390 0.492490 0.800430 -0.501179
O41   O     O_R   0.770060 0.065440 0.307230 -0.535411
O42   O     O_R   0.229940 0.065440 0.692770 -0.536271
O43   O     O_R   0.270060 0.565440 0.307230 -0.534159
O44   O     O_R   0.729940 0.565440 0.692770 -0.535689
O45   O     O_R   0.750960 0.274920 0.302300 -0.505877
O46   O     O_R   0.249040 0.274920 0.697700 -0.506351
O47   O     O_R   0.250960 0.774920 0.302300 -0.500171
O48   O     O_R   0.749040 0.774920 0.697700 -0.506272
O49   O     O_R   0.670160 0.372580 0.305320 -0.517036
O50   O     O_R   0.329840 0.372580 0.694680 -0.516789
O51   O     O_R   0.170160 0.872580 0.305320 -0.511821
O52   O     O_R   0.829840 0.872580 0.694680 -0.516824
C177  C     C_3   0.516431 0.370166 0.368332 -0.258469
C178  C     C_3   0.464206 0.437663 0.384902 -0.459820
H89   H     H_    0.421684 0.394428 0.381335 0.163922
H90   H     H_    0.470211 0.463491 0.423798 0.140962
H91   H     H_    0.461328 0.507532 0.361111 0.146819
H92   H     H_    0.559127 0.410863 0.375825 0.163920
H93   H     H_    0.510167 0.362414 0.327816 0.172858
C179  C     C_3   0.482992 0.370268 0.631243 -0.258595
C180  C     C_3   0.534963 0.437919 0.614511 -0.460155
H94   H     H_    0.577669 0.394863 0.618171 0.163310
H95   H     H_    0.528849 0.463704 0.575558 0.141180
H96   H     H_    0.537566 0.507820 0.638140 0.146525
H97   H     H_    0.440142 0.410847 0.623671 0.164007
H98   H     H_    0.489298 0.362549 0.671772 0.172603
C181  C     C_3   0.016421 0.870165 0.368327 -0.258463
C182  C     C_3   0.964191 0.937653 0.384893 -0.459989
H99   H     H_    0.921672 0.894410 0.381325 0.163522
H100  H     H_    0.970191 0.963486 0.423789 0.141011
H101  H     H_    0.961311 0.007521 0.361101 0.146643
H102  H     H_    0.059116 0.910871 0.375823 0.163918
H103  H     H_    0.010162 0.862410 0.327811 0.173135
C183  C     C_3   0.983020 0.870263 0.631249 -0.258652
C184  C     C_3   0.035017 0.937869 0.614535 -0.460305
H104  H     H_    0.077709 0.894780 0.618214 0.163243
H105  H     H_    0.028932 0.963647 0.575578 0.141233
H106  H     H_    0.037625 0.007774 0.638160 0.146337
H107  H     H_    0.940185 0.910878 0.623664 0.163995
H108  H     H_    0.989305 0.862539 0.671781 0.172338
I1    I     I_    0.623504 0.821199 0.357898 -0.420311
I2    I     I_    0.377091 0.821740 0.642125 -0.421218
I3    I     I_    0.123446 0.321325 0.357932 -0.416433
I4    I     I_    0.877141 0.321851 0.642093 -0.421598

loop_
_geom_bond_atom_site_label_1
_geom_bond_atom_site_label_2
_ccdc_geom_bond_type
C99   C103  A    
C7    C168  A    
C92   O40   A    
C55   C59   A    
C126  H58   S    
C142  C146  A    
C131  C151  A    
C19   C20   A    
C45   O29   A    
C53   C69   A    
C146  H46   S    
C180  H94   S    
C84   C183  S    
C108  C164  S    
C37   C69   S    
C26   C50   A    
C95   C99   A    
C29   C33   A    
C100  C104  A    
C3    C74   S    
C9    C13   A    
C163  O43   A    
C21   H66   S    
C146  C150  A    
C77   C101  A    
Cr7   O51   S    
C12   C16   A    
C56   C72   A    
C169  C174  A    
Cr2   O2    S    
C124  H56   S    
C172  C175  A    
C141  C145  A    
C138  C154  A    
C6    C165  A    
C21   C22   A    
C135  O51   A    
C41   C49   A    
Cr12  O16   S    
C18   C170  A    
C25   C29   A    
C178  H89   S    
C27   C31   A    
C143  H51   S    
C28   C32   A    
Cr9   O13   S    
Cr10  O10   S    
C62   C66   A    
C167  C171  A    
C98   C102  A    
C109  I1    S    
C60   C76   A    
C29   H69   S    
Cr6   O30   S    
Cr8   O52   S    
C44   H12   S    
C128  H60   S    
C83   C181  S    
C78   C82   A    
C134  C155  S    
C54   C70   A    
C36   C40   A    
C16   C20   A    
C165  H2    S    
C137  C153  A    
C2    O26   A    
C3    O23   A    
Cr8   O28   S    
C20   C172  A    
C132  C152  A    
C62   H6    S    
C130  C138  A    
C180  H96   S    
C139  H35   S    
C160  O8    A    
C84   C88   A    
C179  C180  S    
Cr6   O6    S    
C119  C123  A    
C26   C90   S    
C5    C46   S    
C105  C125  A    
C7    C48   S    
Cr6   O26   S    
Cr3   O23   S    
C8    C47   S    
C107  C127  A    
C173  H37   S    
C136  C153  S    
C66   C70   A    
C183  C184  S    
C61   C65   A    
C158  O6    A    
C129  C137  A    
C39   C71   S    
C34   H82   S    
C47   O31   A    
C4    O24   A    
C148  H48   S    
C89   O37   A    
C55   C71   A    
C2    C75   S    
C92   O4    A    
Cr10  O38   S    
C147  C151  A    
C184  H104  S    
C134  O46   A    
Cr4   O4    S    
C46   O34   A    
C6    C9    A    
C123  H55   S    
C184  H106  S    
C121  H53   S    
C12   H63   S    
C64   C68   A    
Cr5   O17   S    
C138  H34   S    
C53   H73   S    
C144  H52   S    
C161  O41   A    
Cr8   O32   S    
C57   C73   A    
C130  H30   S    
C179  H98   S    
C123  C127  A    
C78   C158  S    
C87   C95   A    
C130  C150  A    
C23   C24   A    
C27   C91   S    
C97   H18   S    
C110  C114  A    
C44   C52   A    
C164  O44   A    
C116  H44   S    
C79   C103  A    
C11   C15   A    
C27   C51   A    
C7    C12   A    
C176  H40   S    
C49   H13   S    
C30   C34   A    
C65   H85   S    
C32   H72   S    
C41   H9    S    
C10   C14   A    
C164  O16   A    
C140  H36   S    
C133  O49   A    
C108  C128  A    
C116  C120  A    
C132  H32   S    
C144  C156  A    
C161  O13   A    
C86   H26   S    
C129  C149  A    
C143  C155  A    
C139  C155  A    
C177  H92   S    
C89   O1    A    
C17   C18   A    
C36   H84   S    
C5    C166  A    
C142  C154  A    
C91   O3    A    
C4    C73   S    
Cr12  O20   S    
C42   C50   A    
C113  C117  A    
C107  C163  S    
C26   C30   A    
C115  C119  A    
C105  C161  S    
Cr9   O17   S    
Cr10  O14   S    
C61   H5    S    
C112  C116  A    
Cr11  O19   S    
C58   C74   A    
Cr4   O44   S    
C105  C109  A    
C81   C177  S    
C40   C72   S    
C30   H70   S    
C1    C76   S    
C107  C111  A    
C148  C152  A    
C182  H100  S    
C23   H68   S    
C117  C149  S    
C102  H21   S    
C113  H41   S    
C111  I3    S    
C171  C176  A    
C11   H64   S    
C13   C17   A    
C166  H1    S    
C14   C22   A    
C9    H62   S    
Cr3   O47   S    
C141  C153  A    
C63   C75   A    
C183  H107  S    
C64   H8    S    
C37   C41   A    
C163  O15   A    
C131  C139  A    
C40   C44   A    
C182  H99   S    
C81   C85   A    
C83   C87   A    
C88   C96   A    
Cr1   O17   S    
C6    C45   S    
C145  H45   S    
C78   C102  A    
C133  C156  S    
C125  H57   S    
C112  I4    S    
Cr7   O19   S    
C80   C84   A    
C15   C19   A    
C135  C154  S    
C178  H90   S    
C80   C104  A    
C1    O21   A    
Cr6   O18   S    
C79   C159  S    
C80   C160  S    
C94   C98   A    
C135  O47   A    
C137  H33   S    
C175  H39   S    
C47   O35   A    
C4    O28   A    
C118  C150  S    
C22   H65   S    
C129  H29   S    
C90   O38   A    
Cr1   O21   S    
Cr12  O12   S    
C178  H91   S    
C159  O7    A    
Cr11  O39   S    
Cr2   O22   S    
C46   O30   A    
C124  C128  A    
C50   H14   S    
Cr4   O20   S    
C165  C169  A    
Cr7   O31   S    
C60   H80   S    
C180  H95   S    
C100  H19   S    
C51   H15   S    
C162  O42   A    
C53   C57   A    
C157  O9    A    
C110  I2    S    
C61   C73   A    
C82   C86   A    
C33   C37   A    
C56   C60   A    
C52   H16   S    
C48   O36   A    
Cr12  O36   S    
C35   C39   A    
C8    C167  A    
C93   C97   A    
Cr4   O48   S    
C182  H101  S    
C42   H10   S    
Cr9   O33   S    
C177  H93   S    
Cr11  O35   S    
C38   C70   S    
C63   H7    S    
C136  O52   A    
Cr1   O41   S    
C32   C36   A    
Cr3   O43   S    
C133  O45   A    
C142  H50   S    
Cr8   O8    S    
C162  O14   A    
C184  H105  S    
C132  C140  A    
C106  C126  A    
C25   C89   S    
C99   H20   S    
C90   O2    A    
C82   C179  S    
C174  H38   S    
C45   O33   A    
Cr4   O24   S    
Cr12  O40   S    
C79   C83   A    
C43   C51   A    
C65   C69   A    
C181  H103  S    
C67   C71   A    
C106  C162  S    
C67   H87   S    
Cr10  O18   S    
C25   C49   A    
Cr11  O15   S    
C108  C112  A    
C168  C172  A    
Cr3   O19   S    
Cr7   O7    S    
C134  O50   A    
C87   H27   S    
C62   C74   A    
C31   H71   S    
C145  C149  A    
C170  C173  A    
C147  H47   S    
C181  C182  S    
C93   C94   S    
Cr2   O46   S    
C177  C178  S    
C14   C18   A    
C95   C96   S    
C144  C148  A    
Cr8   O20   S    
C122  H54   S    
C173  C174  A    
C143  C147  A    
C167  H4    S    
C168  H3    S    
C55   H75   S    
C56   H76   S    
C19   C171  A    
C38   C42   A    
C118  C122  A    
C17   C169  A    
C96   C100  A    
C131  H31   S    
Cr9   O9    S    
C117  C121  A    
C86   C94   A    
C121  C125  A    
Cr11  O11   S    
C175  C176  A    
Cr5   O29   S    
Cr2   O18   S    
C59   H79   S    
C98   H17   S    
C77   C81   A    
C115  H43   S    
C68   C72   A    
Cr5   O49   S    
C15   C23   A    
Cr3   O3    S    
C16   C24   A    
C181  H102  S    
C1    O25   A    
Cr1   O45   S    
C2    O22   A    
C3    O27   A    
C119  C151  S    
C63   C67   A    
C120  C152  S    
C13   C21   A    
C54   H74   S    
C48   O32   A    
C91   O39   A    
C39   C43   A    
C159  O11   A    
C160  O12   A    
C122  C126  A    
C24   H67   S    
Cr5   O5    S    
C179  H97   S    
C85   H25   S    
C85   C93   A    
C68   H88   S    
C183  H108  S    
C58   H78   S    
C64   C76   A    
Cr5   O25   S    
C28   C92   S    
C109  C113  A    
Cr7   O27   S    
C114  C118  A    
C140  C156  A    
C59   C75   A    
C157  O5    A    
C54   C58   A    
C158  O10   A    
C141  H49   S    
C88   H28   S    
C33   H81   S    
C34   C38   A    
C35   H83   S    
C103  H24   S    
C114  H42   S    
C43   H11   S    
Cr1   O1    S    
C101  H22   S    
Cr9   O37   S    
Cr6   O50   S    
Cr10  O34   S    
C10   H61   S    
C5    C10   A    
C28   C52   A    
C8    C11   A    
C166  C170  A    
C136  O48   A    
C31   C35   A    
Cr2   O42   S    
C66   H86   S    
C57   H77   S    
C127  H59   S    
C106  C110  A    
C111  C115  A    
C104  H23   S    
C97   C101  A    
C120  C124  A    
C77   C157  S    
