data_mof_unit_37946.cif
_audit_creation_date              2013-03-05T15:48:55-0500
_audit_creation_method            fapswitch 2.2
_symmetry_space_group_name_H-M    P1
_symmetry_Int_Tables_number       1
_space_group_crystal_system       triclinic
_cell_length_a                    6.945268
_cell_length_b                    13.51628
_cell_length_c                    20.118291
_cell_angle_alpha                 104.149059
_cell_angle_beta                  90.1435
_cell_angle_gamma                 90.44266
_cell_volume                      1831.22078713

loop_
_atom_site_label
_atom_site_type_symbol
_atom_site_description
_atom_site_fract_x
_atom_site_fract_y
_atom_site_fract_z
_atom_type_partial_charge
O1    O     O_R   0.506780 0.600060 0.449950 -0.587356
O2    O     O_R   0.179840 0.597110 0.589410 -0.605164
O3    O     O_R   0.004570 0.399940 0.550050 -0.598889
C1    C     C_R   0.348644 0.618980 0.616922 0.887139
O4    O     O_R   0.177380 0.612160 0.452890 -0.578673
O5    O     O_R   0.002100 0.415100 0.412560 -0.565626
C2    C     C_R   0.346981 0.640047 0.437259 1.041072
O6    O     O_R   0.509250 0.584900 0.587440 -0.602097
O7    O     O_3   0.337570 0.435330 0.486930 -0.272084
V1    V     V_3+5 0.064650 0.512000 0.502430 1.194367
O8    O     O_R   0.672090 0.402890 0.410590 -0.592549
C3    C     C_R   0.840123 0.380489 0.383184 0.945681
O9    O     O_R   0.674540 0.387840 0.547110 -0.599486
C4    C     C_R   0.843092 0.361018 0.563611 0.913367
V2    V     V_3+5 0.564040 0.488000 0.497570 1.186125
O10   O     O_3   0.840990 0.564670 0.513070 -0.281448
C5    C     C_R   0.861996 0.106869 0.607423 -0.173758
H1    H     H_    0.855056 0.156528 0.513972 0.101622
H2    H     H_    0.873421 0.980819 0.689659 0.128795
H3    H     H_    0.866136 0.026986 0.580462 0.116038
C6    C     C_R   0.850846 0.283537 0.602975 -0.076870
C7    C     C_R   0.855032 0.318805 0.932854 -0.168975
C8    C     C_R   0.848628 0.395525 0.897924 -0.091341
C9    C     C_R   0.848971 0.371456 0.826509 -0.188895
C10   C     C_R   0.855738 0.268671 0.787815 0.094998
C11   C     C_R   0.861841 0.190277 0.824073 0.106646
C12   C     C_R   0.856473 0.241077 0.714521 0.084818
C13   C     C_R   0.862407 0.136099 0.679389 0.194684
C14   C     C_R   0.868555 0.060923 0.716137 -0.256412
C15   C     C_R   0.868464 0.087366 0.787263 -0.226711
C16   C     C_R   0.851352 0.313893 0.674594 -0.247609
C17   C     C_R   0.855835 0.180232 0.569464 -0.180774
C18   C     C_R   0.861503 0.216556 0.896720 -0.166279
H4    H     H_    0.847211 0.394787 0.697230 0.099234
H5    H     H_    0.854973 0.339201 0.988415 0.104458
H6    H     H_    0.843696 0.435307 0.803407 0.107458
H7    H     H_    0.843463 0.474555 0.926447 0.116296
H8    H     H_    0.873419 0.026021 0.813190 0.127222
C19   C     C_3   0.794464 0.154103 0.252285 -0.154980
C20   C     C_3   0.968318 0.211508 0.293215 -0.138859
H9    H     H_    0.061334 0.181773 0.328780 0.108372
H10   H     H_    0.744849 0.076198 0.253203 0.118860
C21   C     C_3   0.847134 0.309232 0.312757 -0.099954
C22   C     C_3   0.672919 0.252541 0.272752 -0.083465
C23   C     C_3   0.742726 0.284110 0.207760 -0.153997
C24   C     C_3   0.916405 0.341308 0.248452 -0.072373
C25   C     C_3   0.038207 0.243175 0.228221 -0.083739
C26   C     C_3   0.864334 0.186785 0.188167 -0.102604
H11   H     H_    0.521983 0.256453 0.291254 0.124903
H12   H     H_    0.649889 0.313911 0.172176 0.121678
H13   H     H_    0.963648 0.418267 0.245612 0.204241
H14   H     H_    0.189184 0.239395 0.209768 0.121716
C27   C     C_3   0.538261 0.724915 0.730674 -0.104439
C28   C     C_3   0.458535 0.834978 0.749833 -0.132977
H15   H     H_    0.542525 0.905348 0.750245 0.112860
H16   H     H_    0.688289 0.703810 0.714594 0.110360
C29   C     C_3   0.356834 0.811528 0.812268 -0.079924
C30   C     C_3   0.436632 0.702306 0.793915 -0.140042
C31   C     C_3   0.254225 0.665795 0.749987 -0.128936
C32   C     C_3   0.174527 0.775864 0.769133 -0.099503
C33   C     C_3   0.276147 0.798438 0.705877 -0.137805
C34   C     C_3   0.355971 0.689176 0.687540 -0.073336
H17   H     H_    0.502347 0.663003 0.830705 0.101871
H18   H     H_    0.170119 0.595455 0.749602 0.101309
H19   H     H_    0.024555 0.797152 0.785204 0.109246
H20   H     H_    0.210345 0.837810 0.669138 0.101879
C35   C     C_R   0.434964 0.888628 0.390872 -0.155374
H21   H     H_    0.453692 0.836026 0.482841 0.120220
H22   H     H_    0.439741 0.016594 0.309730 0.120551
H23   H     H_    0.473671 0.966185 0.417206 0.117872
C36   C     C_R   0.360416 0.716116 0.396678 -0.252537
C37   C     C_R   0.354056 0.681565 0.067117 -0.171411
C38   C     C_R   0.363820 0.604927 0.101996 -0.113870
C39   C     C_R   0.370889 0.629483 0.173336 -0.085273
C40   C     C_R   0.360215 0.732026 0.212004 0.120822
C41   C     C_R   0.366394 0.810323 0.175858 0.104150
C42   C     C_R   0.359623 0.759383 0.285342 -0.061077
C43   C     C_R   0.402921 0.862072 0.319881 0.173350
C44   C     C_R   0.413467 0.937546 0.283362 -0.222798
C45   C     C_R   0.388366 0.912719 0.212696 -0.217299
C46   C     C_R   0.318474 0.689065 0.325949 0.289987
C47   C     C_R   0.422085 0.814998 0.428394 -0.225233
C48   C     C_R   0.358461 0.783925 0.103281 -0.168422
H24   H     H_    0.350481 0.661128 0.011563 0.102560
H25   H     H_    0.394475 0.567064 0.196886 0.154913
H26   H     H_    0.370009 0.525893 0.073537 0.120238
H27   H     H_    0.395006 0.974216 0.186907 0.125494
O11   O     O_R   0.203580 0.914920 0.912610 -0.597381
O12   O     O_R   0.535710 0.887810 0.047120 -0.594446
O13   O     O_R   0.710730 0.084950 0.087430 -0.595645
C49   C     C_R   0.366901 0.861531 0.063975 0.931625
O14   O     O_R   0.533010 0.902850 0.910600 -0.599468
O15   O     O_R   0.708010 0.100090 0.949930 -0.592568
C50   C     C_R   0.364227 0.881284 0.883000 0.909315
O16   O     O_R   0.206300 0.899780 0.050100 -0.591562
O17   O     O_3   0.375170 0.064580 0.013100 -0.275056
V3    V     V_3+5 0.648200 0.988020 0.997570 1.158638
O18   O     O_R   0.038030 0.112330 0.952840 -0.593152
C51   C     C_R   0.869460 0.138678 0.936068 0.927007
O19   O     O_R   0.040730 0.097300 0.089360 -0.601669
C52   C     C_R   0.872623 0.117904 0.117219 0.920851
V4    V     V_3+5 0.148780 0.012220 0.002360 1.160259
O20   O     O_3   0.871930 0.935430 0.986900 -0.275410
N1    N     N_R   0.209732 0.597498 0.298444 0.204446
O21   O     O_R   0.270039 0.509726 0.305626 -0.466289
O22   O     O_R   0.047739 0.602508 0.266828 -0.445741

loop_
_geom_bond_atom_site_label_1
_geom_bond_atom_site_label_2
_geom_bond_distance
_ccdc_geom_bond_type
C22   H11   1.110610 S    
C20   C25   1.549873 S    
O17   V4    1.710597 S    
C38   C39   1.392489 A    
C1    O6    1.298428 A    
N1    O22   1.301398 A    
C42   C43   1.421529 A    
C7    H5    1.083893 S    
C6    C16   1.398334 A    
C31   H18   1.110387 S    
C9    H6    1.076411 S    
C4    C6    1.460458 S    
C13   C14   1.395940 A    
C3    C21   1.507115 S    
C2    C36   1.463450 S    
C27   H16   1.110370 S    
V2    O10   2.163139 S    
C1    C34   1.503695 S    
C5    H3    1.084005 S    
C15   H8    1.082852 S    
C24   C25   1.547811 S    
O8    V2    1.996095 S    
C33   H20   1.110275 S    
C20   C21   1.540332 S    
C8    C9    1.393410 A    
O1    V2    2.021611 S    
O12   C49   1.292350 A    
O7    V1    2.153927 S    
O15   C51   1.292590 A    
O13   V3    2.000660 S    
O16   V4    2.028011 S    
C36   C47   1.396330 A    
C31   C32   1.549742 S    
O9    C4    1.294401 A    
V4    O20   2.163215 S    
C35   C43   1.401669 A    
C41   C48   1.416644 A    
O19   V4    1.996242 S    
N1    O21   1.301886 A    
O14   V3    2.005165 S    
C19   H10   1.109866 S    
C6    C17   1.394999 A    
O11   C50   1.298147 A    
C39   C40   1.416481 A    
C12   C16   1.414932 A    
C9    C10   1.418004 A    
C19   C20   1.551201 S    
O4    C2    1.296697 A    
C43   C44   1.396905 A    
C29   C32   1.539209 S    
C10   C11   1.426552 A    
O18   V4    2.021484 S    
C24   H13   1.103092 S    
O12   V3    2.021473 S    
C32   C33   1.549765 S    
C18   C51   1.464850 S    
C25   H14   1.110607 S    
O2    C1    1.296009 A    
C40   C41   1.423493 A    
O13   C52   1.296231 A    
C14   C15   1.387542 A    
C8    H7    1.082875 S    
C27   C34   1.539278 S    
C11   C18   1.417205 A    
C25   C26   1.539219 S    
C42   C46   1.424425 A    
C27   C30   1.549706 S    
O17   V3    2.153948 S    
O14   C50   1.296061 A    
C16   H4    1.077412 S    
C37   H24   1.083925 S    
C40   C42   1.430723 A    
V3    O20   1.705867 S    
O3    C4    1.292888 A    
C20   H9    1.110454 S    
C32   H19   1.110445 S    
C11   C15   1.408155 A    
O6    V2    1.995645 S    
C29   C50   1.503166 S    
O9    V2    2.021617 S    
C21   C22   1.542154 S    
C10   C12   1.429916 A    
H22   C44   1.084281 S    
H1    C17   1.083566 S    
O2    V1    2.005024 S    
O15   V3    2.021813 S    
C22   C23   1.549021 S    
C23   C26   1.537691 S    
C30   H17   1.110234 S    
C7    C18   1.396566 A    
C28   H15   1.110202 S    
C31   C34   1.540345 S    
O1    C2    1.290103 A    
C5    C13   1.404489 A    
C41   C45   1.408093 A    
C37   C38   1.387873 A    
O5    V1    2.000665 S    
O11   V4    1.996229 S    
O8    C3    1.297968 A    
C27   C28   1.549746 S    
C19   C22   1.550375 S    
C28   C33   1.549755 S    
C45   H27   1.082880 S    
C48   C49   1.460769 S    
C35   H23   1.084099 S    
H21   C47   1.083721 S    
C30   C31   1.549526 S    
O4    V1    2.021448 S    
O3    V1    2.021810 S    
V1    O10   1.705831 S    
O5    C3    1.298869 A    
C29   C30   1.539498 S    
C23   H12   1.110481 S    
C26   C52   1.502989 S    
O19   C52   1.298789 A    
C39   H25   1.077145 S    
O7    V2    1.712640 S    
C33   C34   1.540055 S    
C21   C24   1.538577 S    
C38   H26   1.082869 S    
C37   C48   1.396983 A    
C49   O16   1.291224 A    
C44   C45   1.388806 A    
C23   C24   1.547297 S    
C35   C47   1.390882 A    
O18   C51   1.294056 A    
C12   C13   1.423145 A    
C5    C17   1.392478 A    
C7    C8    1.388504 A    
C28   C29   1.540370 S    
C19   C26   1.540443 S    
C36   C46   1.408973 A    
C46   N1    1.434230 S    
H2    C14   1.084357 S    
