data_mof_unit_5310.cif
_audit_creation_date              2012-12-10T17:56:46-0500
_audit_creation_method            fapswitch 2.2
_symmetry_space_group_name_H-M    P1
_symmetry_Int_Tables_number       1
_space_group_crystal_system       triclinic
_cell_length_a                    10.932729
_cell_length_b                    9.49084
_cell_length_c                    10.835253
_cell_angle_alpha                 93.019487
_cell_angle_beta                  92.242809
_cell_angle_gamma                 89.822873
_cell_volume                      1121.85281932

loop_
_atom_site_label
_atom_site_type_symbol
_atom_type_description
_atom_site_fract_x
_atom_site_fract_y
_atom_site_fract_z
_atom_type_partial_charge
C1    C     C_R   0.261499 0.500360 0.498852 0.802788
C2    C     C_R   0.737723 0.499957 0.500836 0.800062
C3    C     C_R   0.933397 0.615011 0.450551 0.043896
C4    C     C_R   0.058252 0.628863 0.483609 0.037038
C5    C     C_R   0.423291 0.070157 0.421128 -0.045300
C6    C     C_R   0.580144 0.078554 0.575143 -0.026922
C7    C     C_R   0.422041 0.921311 0.422266 -0.018024
C8    C     C_R   0.584353 0.929640 0.570287 -0.070514
C9    C     C_R   0.491659 0.495963 0.262063 0.804516
C10   C     C_R   0.504599 0.504450 0.739321 0.790918
C11   C     C_R   0.313713 0.668268 0.113569 0.189706
C12   C     C_R   0.441270 0.767231 0.917209 0.205073
C13   C     C_R   0.283091 0.798088 0.066200 -0.218391
C14   C     C_R   0.353066 0.851896 0.975675 -0.205904
C15   C     C_R   0.456008 0.624698 0.948901 0.041785
C16   C     C_R   0.414044 0.591522 0.064876 0.069217
C17   C     C_R   0.477055 0.485890 0.127723 -0.096416
C18   C     C_R   0.510319 0.512988 0.875900 -0.119510
C19   C     C_R   0.543291 0.383647 0.061141 -0.226432
C20   C     C_R   0.551400 0.391942 0.934399 -0.211777
C21   C     C_R   0.060802 0.374150 0.505601 0.051502
C22   C     C_R   0.940227 0.386015 0.542077 0.046571
C23   C     C_R   0.870992 0.500401 0.498323 -0.120902
C24   C     C_R   0.126697 0.501554 0.495995 -0.128644
Cu1   Cu    Cu3+1 0.500000 0.640660 0.500000 0.927514
Cu2   Cu    Cu3+1 0.500000 0.359340 0.500000 0.928490
H1    H     H_    0.588369 0.297732 0.106844 0.159662
H2    H     H_    0.592884 0.305144 0.882452 0.168226
H3    H     H_    0.208357 0.859664 0.103039 0.156042
H4    H     H_    0.340392 0.960845 0.952874 0.152675
H5    H     H_    0.363820 0.122997 0.356755 0.134720
H6    H     H_    0.640545 0.137876 0.639232 0.120822
H7    H     H_    0.360785 0.861912 0.358940 0.115702
H8    H     H_    0.652381 0.876755 0.626309 0.125018
N1    N     N_R   0.500000 0.852070 0.500000 -0.153255
N2    N     N_R   0.500000 0.147940 0.500000 -0.155576
O1    O     O_R   0.319640 0.618740 0.499990 -0.587064
O2    O     O_R   0.680360 0.618740 0.500010 -0.588285
O3    O     O_R   0.319620 0.381170 0.499990 -0.586310
O4    O     O_R   0.680380 0.381170 0.500010 -0.586353
O5    O     O_R   0.500000 0.618810 0.319650 -0.564963
O6    O     O_R   0.500000 0.618810 0.680350 -0.574433
O7    O     O_R   0.499970 0.381240 0.319640 -0.592422
O8    O     O_R   0.500030 0.381240 0.680360 -0.578876
C25   C     C_3   0.228267 0.608081 0.202227 -0.880850
H9    H     H_    0.133843 0.605051 0.160500 0.225405
H10   H     H_    0.252692 0.498984 0.224517 0.205369
H11   H     H_    0.228212 0.676348 0.287534 0.233415
C26   C     C_3   0.533965 0.843583 0.848662 -0.851946
H12   H     H_    0.571890 0.933396 0.907923 0.212488
H13   H     H_    0.612904 0.775951 0.823158 0.231009
H14   H     H_    0.485702 0.886651 0.767738 0.249849
C27   C     C_3   0.102354 0.229968 0.453990 -0.392248
C28   C     C_3   0.117710 0.232263 0.313615 -0.315971
C29   C     C_3   0.107605 0.084807 0.250803 -0.914918
H15   H     H_    0.173382 0.011528 0.294524 0.240169
H16   H     H_    0.013460 0.042996 0.257719 0.254236
H17   H     H_    0.127350 0.090376 0.151460 0.244627
H18   H     H_    0.045588 0.299304 0.271026 0.220380
H19   H     H_    0.207875 0.277813 0.294872 0.215605
H20   H     H_    0.185795 0.191768 0.502890 0.214951
H21   H     H_    0.031680 0.149139 0.468131 0.188809
C30   C     C_3   0.894377 0.281810 0.631573 -0.402003
C31   C     C_3   0.855387 0.356524 0.753133 -0.331610
C32   C     C_3   0.847341 0.252942 0.855793 -0.881519
H22   H     H_    0.780343 0.168121 0.828618 0.242645
H23   H     H_    0.938273 0.204629 0.875352 0.257306
H24   H     H_    0.817898 0.309773 0.941822 0.245279
H25   H     H_    0.923387 0.439331 0.783803 0.216649
H26   H     H_    0.765085 0.408148 0.739357 0.210037
H27   H     H_    0.820737 0.215472 0.587253 0.202464
H28   H     H_    0.969170 0.208011 0.656582 0.191366
C33   C     C_3   0.873910 0.714996 0.359566 -0.396645
C34   C     C_3   0.821791 0.634642 0.242147 -0.322891
C35   C     C_3   0.758991 0.734599 0.153638 -0.827969
H29   H     H_    0.680909 0.788956 0.198495 0.270505
H30   H     H_    0.824927 0.814522 0.125371 0.241541
H31   H     H_    0.723446 0.673601 0.069588 0.246416
H32   H     H_    0.897443 0.578906 0.194152 0.203178
H33   H     H_    0.754252 0.554242 0.265089 0.217726
H34   H     H_    0.803262 0.781828 0.404427 0.223015
H35   H     H_    0.942923 0.788838 0.327168 0.182440
C36   C     C_3   0.107254 0.776639 0.518816 -0.391463
C37   C     C_3   0.139373 0.794446 0.657976 -0.298312
C38   C     C_3   0.183086 0.944222 0.693164 -0.855699
H36   H     H_    0.273001 0.963503 0.652902 0.263694
H37   H     H_    0.115629 0.022365 0.659948 0.232926
H38   H     H_    0.192059 0.959374 0.795036 0.239923
H39   H     H_    0.056476 0.773173 0.710319 0.202800
H40   H     H_    0.211640 0.718976 0.686238 0.237005
H41   H     H_    0.184750 0.804666 0.462861 0.205615
H42   H     H_    0.036552 0.857788 0.500297 0.179534

loop_
_geom_bond_atom_site_label_1
_geom_bond_atom_site_label_2
_ccdc_geom_bond_type
C15   C18   A    
C6    H6    S    
C29   H15   S    
C10   O6    A    
C33   C34   S    
C3    C23   A    
C19   C20   A    
C12   C26   S    
Cu2   O8    S    
C28   H19   S    
C27   C28   S    
C36   H42   S    
C13   H3    S    
C4    C24   A    
Cu2   O3    S    
C25   H11   S    
C15   C16   A    
C5    N2    A    
C11   C16   A    
Cu1   O1    S    
C22   C30   S    
C27   H20   S    
C16   C17   A    
C32   H23   S    
C31   H26   S    
C19   H1    S    
C1    O1    A    
C32   H24   S    
C25   H10   S    
C34   H33   S    
C21   C22   A    
C7    H7    S    
C37   H40   S    
C14   H4    S    
C33   H34   S    
Cu2   O7    S    
C28   H18   S    
C38   H37   S    
C9    O7    A    
C34   C35   S    
C10   O8    A    
C37   C38   S    
Cu1   O5    S    
C5    C7    A    
C6    C8    A    
C20   H2    S    
C26   H13   S    
Cu1   Cu2   S    
C38   H36   S    
C8    N1    A    
C35   H29   S    
C2    O4    A    
Cu1   O2    S    
C27   H21   S    
C2    O2    A    
C36   C37   S    
C12   C15   A    
C26   H14   S    
C8    H8    S    
C31   H25   S    
C35   H30   S    
Cu1   N1    S    
C9    C17   S    
C30   H27   S    
C26   H12   S    
C34   H32   S    
C29   H16   S    
C11   C25   S    
C37   H39   S    
C21   C24   A    
C3    C4    A    
C33   H35   S    
C38   H38   S    
Cu2   N2    S    
C28   C29   S    
C7    N1    A    
C12   C14   A    
Cu1   O6    S    
C36   H41   S    
C9    O5    A    
C31   C32   S    
C21   C27   S    
C11   C13   A    
Cu2   O4    S    
C4    C36   S    
C10   C18   S    
C17   C19   A    
C6    N2    A    
C18   C20   A    
C3    C33   S    
C35   H31   S    
C1    O3    A    
C30   C31   S    
C25   H9    S    
C30   H28   S    
C1    C24   S    
C32   H22   S    
C29   H17   S    
C2    C23   S    
C22   C23   A    
C13   C14   A    
C5    H5    S    
