data_mof_unit_10403.cif
_audit_creation_date              2012-12-11T15:52:41-0500
_audit_creation_method            fapswitch 2.2
_symmetry_space_group_name_H-M    P1
_symmetry_Int_Tables_number       1
_space_group_crystal_system       triclinic
_cell_length_a                    6.927284
_cell_length_b                    14.542509
_cell_length_c                    16.034935
_cell_angle_alpha                 90.254689
_cell_angle_beta                  89.783121
_cell_angle_gamma                 90.149944
_cell_volume                      1615.32780115

loop_
_atom_site_label
_atom_site_type_symbol
_atom_type_description
_atom_site_fract_x
_atom_site_fract_y
_atom_site_fract_z
_atom_type_partial_charge
O1    O     O_R   0.494400 0.415640 0.412830 -0.539214
O2    O     O_R   0.823920 0.405510 0.586560 -0.545055
O3    O     O_R   0.994250 0.584360 0.587170 -0.542221
C1    C     C_R   0.654540 0.383716 0.615604 0.706683
O4    O     O_R   0.824110 0.404610 0.413450 -0.543324
O5    O     O_R   0.994440 0.583460 0.412820 -0.542485
C2    C     C_R   0.655090 0.382016 0.384465 0.696408
O6    O     O_R   0.494210 0.416540 0.587180 -0.540116
O7    O     O_3   0.660810 0.558680 0.500000 -0.370924
V1    V     V_3+5 0.935650 0.489110 0.500000 1.395786
O8    O     O_R   0.324150 0.594490 0.413440 -0.517821
C3    C     C_R   0.155766 0.617140 0.384610 0.710696
O9    O     O_R   0.323970 0.595390 0.586550 -0.548388
C4    C     C_R   0.155126 0.617606 0.615675 0.663454
V2    V     V_3+5 0.435660 0.510890 0.500000 1.415323
O10   O     O_3   0.160630 0.441320 0.500000 -0.371144
C5    C     C_3   0.028763 0.648205 0.761465 -0.327554
H1    H     H_    0.880559 0.628733 0.741309 0.146605
H2    H     H_    0.099676 0.584665 0.784498 0.151436
C6    C     C_3   0.014673 0.719685 0.833507 -0.416866
H3    H     H_    0.076630 0.689953 0.891326 0.155762
H4    H     H_    0.860004 0.734761 0.846535 0.145822
H5    H     H_    0.895168 0.760760 0.635481 0.098163
H6    H     H_    0.875494 0.861750 0.742701 0.023224
C7    C     C_3   0.043644 0.777038 0.657512 -0.347089
C8    C     C_3   0.349452 0.714029 0.718196 -0.322280
C9    C     C_3   0.144733 0.687567 0.686470 0.066516
H7    H     H_    0.435406 0.744947 0.666578 0.141759
H8    H     H_    0.427364 0.651421 0.739102 0.139711
C10   C     C_3   0.123459 0.809720 0.810687 0.055455
C11   C     C_3   0.032042 0.849298 0.729691 0.345104
C12   C     C_3   0.337225 0.783335 0.791306 -0.289631
H9    H     H_    0.404412 0.752547 0.847585 0.129648
H10   H     H_    0.423182 0.845640 0.775362 0.166119
H11   H     H_    0.123115 0.806166 0.603191 0.142001
C13   C     C_R   0.957167 0.764619 0.209171 -0.164800
H12   H     H_    0.818540 0.775088 0.179737 0.141475
C14   C     C_R   0.970061 0.701744 0.274828 -0.200697
H13   H     H_    0.841310 0.664624 0.293079 0.190345
C15   C     C_R   0.146476 0.685916 0.315711 -0.157621
C16   C     C_R   0.311512 0.735575 0.288777 0.433697
C17   C     C_R   0.298404 0.795634 0.220825 -0.222408
H14   H     H_    0.428329 0.830169 0.199776 0.129157
C18   C     C_R   0.121299 0.812534 0.181472 -0.107622
C19   C     C_R   0.803685 0.302074 0.736398 -0.202439
H15   H     H_    0.935501 0.340806 0.726291 0.151390
C20   C     C_R   0.795118 0.239606 0.802564 0.374335
C21   C     C_R   0.624654 0.187605 0.817127 -0.130650
C22   C     C_R   0.463676 0.203856 0.766099 -0.171217
H16   H     H_    0.331452 0.165557 0.775263 0.174128
C23   C     C_R   0.472258 0.267868 0.701292 -0.145656
H17   H     H_    0.345724 0.277740 0.662908 0.135001
C24   C     C_R   0.643466 0.316628 0.684921 -0.107736
C25   C     C_R   0.812011 0.273162 0.281934 -0.156204
H18   H     H_    0.952784 0.291336 0.306156 0.116958
C26   C     C_R   0.800860 0.209300 0.216414 -0.137188
H19   H     H_    0.933634 0.180125 0.192385 0.121023
C27   C     C_R   0.621269 0.183491 0.182482 -0.043924
C28   C     C_R   0.453101 0.223122 0.216238 -0.149010
H20   H     H_    0.312325 0.204907 0.192042 0.120905
C29   C     C_R   0.464251 0.286990 0.281757 -0.146990
H21   H     H_    0.331473 0.316132 0.305813 0.119732
C30   C     C_R   0.643891 0.313051 0.315487 -0.050261
O11   O     O_R   0.771300 0.080930 0.910090 -0.513031
O12   O     O_R   0.441270 0.092800 0.083770 -0.543883
O13   O     O_R   0.271080 0.913920 0.084380 -0.547878
C31   C     C_R   0.610204 0.115083 0.113054 0.690922
O14   O     O_R   0.441580 0.091910 0.910670 -0.525025
O15   O     O_R   0.271390 0.913020 0.910040 -0.540895
C32   C     C_R   0.611729 0.116316 0.883553 0.749299
O16   O     O_R   0.770990 0.081830 0.084440 -0.537135
O17   O     O_3   0.604750 0.938760 0.997250 -0.385796
V3    V     V_3+5 0.329850 0.008280 0.997210 1.475721
O18   O     O_R   0.941680 0.901940 0.910610 -0.556361
C33   C     C_R   0.111127 0.879315 0.881861 0.674030
O19   O     O_R   0.941370 0.902830 0.083720 -0.549832
C34   C     C_R   0.110095 0.880389 0.112458 0.688759
V4    V     V_3+5 0.829860 0.986420 0.997150 1.440756
O20   O     O_3   0.104830 0.056030 0.997180 -0.332151
O21   O     O_3   0.134565 0.929970 0.705743 -0.584028
C35   C     C_3   0.012520 0.007418 0.699353 0.076482
H22   H     H_    0.105099 0.069632 0.703306 0.151041
H23   H     H_    0.907934 0.012504 0.752137 0.113763
C36   C     C_3   0.909331 0.007909 0.615085 -0.346080
H24   H     H_    0.017846 0.002374 0.564075 0.207168
H25   H     H_    0.810024 0.948002 0.611098 0.186554
C37   C     C_3   0.793071 0.095763 0.603704 -0.813546
H26   H     H_    0.676244 0.098935 0.651014 0.240143
H27   H     H_    0.726496 0.096466 0.540933 0.230977
H28   H     H_    0.887853 0.157125 0.609740 0.232702
O22   O     O_3   0.490581 0.721399 0.324095 -0.581280
C38   C     C_3   0.516966 0.782303 0.392240 0.105960
H29   H     H_    0.625522 0.750494 0.433948 0.153172
H30   H     H_    0.383440 0.791528 0.430575 0.077599
C39   C     C_3   0.594092 0.875774 0.362823 -0.351522
H31   H     H_    0.709374 0.865436 0.315499 0.211186
H32   H     H_    0.475529 0.915711 0.333971 0.181132
C40   C     C_3   0.676581 0.931444 0.435017 -0.843863
H33   H     H_    0.564361 0.942646 0.483669 0.238130
H34   H     H_    0.727019 0.999232 0.411808 0.237115
H35   H     H_    0.801393 0.894797 0.462550 0.224475
Cl1   Cl    Cl    0.998882 0.234394 0.867820 -0.680065

loop_
_geom_bond_atom_site_label_1
_geom_bond_atom_site_label_2
_ccdc_geom_bond_type
C7    C11   S    
C10   C12   S    
C37   H26   S    
C8    C12   S    
C1    C24   S    
C16   C17   A    
C39   H31   S    
C36   C37   S    
C1    O6    A    
C35   H22   S    
C39   C40   S    
C11   O21   S    
C6    C10   S    
C19   H15   S    
C8    C9    S    
C13   H12   S    
O19   V4    S    
O5    C3    A    
C10   C11   S    
C25   C30   A    
V2    O10   S    
C5    C6    S    
O12   V3    S    
C26   H19   S    
C29   C30   A    
O17   V4    S    
O8    V2    S    
C22   C23   A    
O15   V3    S    
O1    V2    S    
O11   C32   A    
C4    C9    S    
O7    V1    S    
C19   C24   A    
C28   H20   S    
C20   Cl1   S    
O9    C4    A    
C17   C18   A    
C35   H23   S    
C19   C20   A    
C25   C26   A    
C28   C29   A    
O18   C33   A    
C23   H17   S    
C5    C9    S    
O19   C34   A    
O22   C38   S    
O4    C2    A    
V4    O20   S    
O17   V3    S    
O12   C31   A    
O14   V3    S    
O13   V3    S    
C38   C39   S    
C23   C24   A    
C12   H10   S    
C3    C15   S    
O2    C1    A    
C20   C21   A    
C38   H30   S    
C5    H1    S    
V3    O20   S    
C36   H24   S    
C2    C30   S    
O3    C4    A    
C7    H11   S    
C15   C16   A    
C16   O22   S    
C6    H4    S    
C40   H33   S    
O6    V2    S    
C40   H34   S    
C37   H27   S    
C13   C18   A    
C17   H14   S    
O2    V1    S    
C35   C36   S    
O13   C34   A    
C25   H18   S    
C21   C22   A    
O1    C2    A    
O11   V4    S    
C21   C32   S    
O21   C35   S    
O5    V1    S    
O8    C3    A    
C39   H32   S    
C7    C9    S    
C40   H35   S    
C18   C34   S    
C8    H7    S    
C12   H9    S    
O9    V2    S    
O7    V2    S    
H6    C11   S    
O4    V1    S    
O3    V1    S    
V1    O10   S    
C14   C15   A    
C10   C33   S    
C14   H13   S    
C13   C14   A    
C38   H29   S    
C5    H2    S    
C26   C27   A    
O15   C33   A    
C31   O16   A    
H5    C7    S    
C29   H21   S    
C27   C28   A    
C27   C31   S    
C6    H3    S    
C8    H8    S    
O14   C32   A    
C22   H16   S    
O18   V4    S    
C37   H28   S    
C36   H25   S    
O16   V4    S    
