data_mof_unit_17047.cif
_audit_creation_date              2012-12-10T17:40:59-0500
_audit_creation_method            fapswitch 2.2
_symmetry_space_group_name_H-M    P1
_symmetry_Int_Tables_number       1
_space_group_crystal_system       triclinic
_cell_length_a                    15.080278
_cell_length_b                    13.704524
_cell_length_c                    11.722841
_cell_angle_alpha                 90.0
_cell_angle_beta                  90.385086
_cell_angle_gamma                 89.999949
_cell_volume                      2422.68175648

loop_
_atom_site_label
_atom_site_type_symbol
_atom_type_description
_atom_site_fract_x
_atom_site_fract_y
_atom_site_fract_z
_atom_type_partial_charge
C1    C     C_R   0.328975 0.499980 0.498793 0.853420
C2    C     C_R   0.671024 0.499980 0.501207 0.853414
C3    C     C_R   0.905139 0.501964 0.397239 0.072269
C4    C     C_R   0.094860 0.501965 0.602761 0.072274
C5    C     C_R   0.956970 0.485775 0.710482 -0.086262
C6    C     C_R   0.043030 0.485776 0.289518 -0.086258
C7    C     C_R   0.050412 0.490103 0.708218 -0.046280
C8    C     C_R   0.949588 0.490104 0.291781 -0.046280
C9    C     C_R   0.442659 0.793350 0.568963 0.034932
C10   C     C_R   0.557309 0.206630 0.431011 0.032216
C11   C     C_R   0.557341 0.793350 0.431037 0.034933
C12   C     C_R   0.442691 0.206630 0.568989 0.032216
C13   C     C_R   0.558721 0.896393 0.429416 -0.009301
C14   C     C_R   0.441296 0.103581 0.570596 -0.009688
C15   C     C_R   0.441279 0.896393 0.570583 -0.009300
C16   C     C_R   0.558704 0.103581 0.429404 -0.009688
C17   C     C_R   0.500000 0.948177 0.500000 0.088224
C18   C     C_R   0.500000 0.051796 0.500000 0.089871
C19   C     C_R   0.617159 0.948677 0.359193 -0.176834
C20   C     C_R   0.382855 0.051292 0.640820 -0.180573
C21   C     C_R   0.382841 0.948677 0.640806 -0.176835
C22   C     C_R   0.617145 0.051292 0.359180 -0.180573
C23   C     C_R   0.500997 0.500016 0.283826 0.871678
C24   C     C_R   0.499003 0.500016 0.716174 0.871677
C25   C     C_1   0.500880 0.500049 0.162215 -0.113309
C26   C     C_1   0.499120 0.500049 0.837785 -0.113304
C27   C     C_1   0.500381 0.500061 0.059845 0.037371
C28   C     C_1   0.499619 0.500061 0.940155 0.037373
C29   C     C_R   0.813587 0.524047 0.403185 -0.066824
C30   C     C_R   0.186413 0.524049 0.596814 -0.066825
C31   C     C_R   0.767685 0.499726 0.502865 -0.153863
C32   C     C_R   0.232314 0.499726 0.497135 -0.153864
C33   C     C_R   0.814159 0.472350 0.602499 -0.069315
C34   C     C_R   0.185841 0.472349 0.397501 -0.069321
C35   C     C_R   0.907705 0.484687 0.606279 -0.031671
C36   C     C_R   0.092294 0.484688 0.393720 -0.031678
C37   C     C_R   0.953296 0.492947 0.500928 0.031295
C38   C     C_R   0.046703 0.492947 0.499072 0.031296
Cu1   Cu    Cu3+1 0.500000 0.597420 0.500000 0.979619
Cu2   Cu    Cu3+1 0.500000 0.402580 0.500000 0.993883
H1    H     H_    0.397948 0.752496 0.622811 0.137474
H2    H     H_    0.601991 0.247469 0.377128 0.137371
H3    H     H_    0.602052 0.752496 0.377189 0.137477
H4    H     H_    0.398009 0.247469 0.622872 0.137372
H5    H     H_    0.662883 0.910230 0.304268 0.161804
H6    H     H_    0.337143 0.089733 0.695762 0.158112
H7    H     H_    0.337117 0.910230 0.695732 0.161803
H8    H     H_    0.662857 0.089733 0.304238 0.158112
N1    N     N_R   0.500000 0.743810 0.500000 -0.190582
N2    N     N_R   0.500000 0.256190 0.500000 -0.189782
O1    O     O_R   0.370260 0.582280 0.500020 -0.587619
O2    O     O_R   0.629740 0.417720 0.499980 -0.575540
O3    O     O_R   0.629740 0.582280 0.499980 -0.587612
O4    O     O_R   0.370260 0.417720 0.500020 -0.575529
O5    O     O_R   0.500010 0.582270 0.337200 -0.585599
O6    O     O_R   0.499990 0.417730 0.662800 -0.564524
O7    O     O_R   0.499990 0.582270 0.662800 -0.585596
O8    O     O_R   0.500010 0.417730 0.337200 -0.564516
C39   C     C_2   0.766348 0.578119 0.310557 0.397607
H9    H     H_    0.697342 0.562895 0.290940 0.053105
O9    O     O_2   0.803675 0.643088 0.258163 -0.559111
C40   C     C_2   0.233651 0.578123 0.689441 0.397607
H10   H     H_    0.302658 0.562904 0.709054 0.053105
O10   O     O_2   0.196320 0.643087 0.741841 -0.559112
C41   C     C_2   0.766071 0.424151 0.697543 0.363244
H11   H     H_    0.794519 0.360056 0.738003 0.120655
O11   O     O_2   0.696811 0.457334 0.734109 -0.554304
C42   C     C_2   0.233927 0.424145 0.302458 0.363251
H12   H     H_    0.205473 0.360057 0.261993 0.120659
O12   O     O_2   0.303193 0.457317 0.265899 -0.554302
C43   C     C_2   0.911576 0.492225 0.822467 0.285857
H13   H     H_    0.861265 0.547596 0.835910 0.116460
O13   O     O_2   0.927141 0.433228 0.898027 -0.505450
C44   C     C_2   0.088424 0.492230 0.177533 0.285849
H14   H     H_    0.138737 0.547603 0.164093 0.116452
O14   O     O_2   0.072860 0.433235 0.101971 -0.505452
C45   C     C_2   0.100810 0.473310 0.816081 0.541138
H15   H     H_    0.082646 0.511676 0.893357 0.123825
O15   O     O_2   0.161859 0.414797 0.819450 -0.539390
C46   C     C_2   0.899191 0.473311 0.183918 0.541132
H16   H     H_    0.917354 0.511679 0.106643 0.123821
O16   O     O_2   0.838143 0.414796 0.180547 -0.539388

loop_
_geom_bond_atom_site_label_1
_geom_bond_atom_site_label_2
_ccdc_geom_bond_type
C23   O8    A    
C22   H8    S    
C10   H2    S    
C14   C18   A    
Cu1   O1    S    
C33   C41   S    
C45   H15   S    
C37   C38   A    
C44   O14   D    
C35   C37   A    
C24   C26   S    
Cu1   O7    S    
C3    C29   A    
C40   O10   D    
Cu1   O5    S    
C29   C39   S    
C42   H12   S    
Cu2   O6    S    
C31   C33   A    
C11   H3    S    
C7    C45   S    
C39   H9    S    
C4    C7    A    
C6    C44   S    
C45   O15   D    
C39   O9    D    
Cu2   O8    S    
C44   H14   S    
C13   C19   A    
C14   C20   A    
C19   C22   A    
C9    N1    A    
C46   O16   D    
C3    C8    A    
C34   C42   S    
Cu1   Cu2   S    
C5    C7    A    
C24   O7    A    
C6    C8    A    
C41   O11   D    
Cu2   O2    S    
C1    C32   S    
C2    C31   S    
C32   C34   A    
C1    O4    A    
C40   H10   S    
C11   N1    A    
C17   C18   A    
C1    O1    A    
C2    O2    A    
C16   C18   A    
Cu1   N1    S    
C12   C14   A    
Cu2   O4    S    
C30   C40   S    
C25   C27   T    
C10   N2    A    
C43   O13   D    
C15   C17   A    
C16   C22   A    
C9    H1    S    
C4    C38   A    
C46   H16   S    
C2    O3    A    
C12   N2    A    
C19   H5    S    
C23   O5    A    
C24   O6    A    
C26   C28   T    
C13   C17   A    
C36   C38   A    
C9    C15   A    
C43   H13   S    
C29   C31   A    
C10   C16   A    
C30   C32   A    
C11   C13   A    
Cu1   O3    S    
Cu2   N2    S    
C5    C35   A    
C33   C35   A    
C6    C36   A    
C34   C36   A    
C23   C25   S    
C4    C30   A    
C15   C21   A    
C20   C21   A    
C3    C37   A    
C5    C43   S    
C41   H11   S    
C27   C28   S    
C8    C46   S    
C42   O12   D    
C12   H4    S    
C20   H6    S    
C21   H7    S    
