data_mof_unit_25024.cif
_audit_creation_date              2012-12-10T20:31:56-0500
_audit_creation_method            fapswitch 2.2
_symmetry_space_group_name_H-M    P1
_symmetry_Int_Tables_number       1
_space_group_crystal_system       triclinic
_cell_length_a                    9.950346
_cell_length_b                    10.733669
_cell_length_c                    15.125483
_cell_angle_alpha                 90.754995
_cell_angle_beta                  69.471952
_cell_angle_gamma                 89.484321
_cell_volume                      1512.58593467

loop_
_atom_site_label
_atom_site_type_symbol
_atom_type_description
_atom_site_fract_x
_atom_site_fract_y
_atom_site_fract_z
_atom_type_partial_charge
C1    C     C_R   0.498709 0.739438 0.501435 0.897841
C2    C     C_R   0.724335 0.439957 0.026788 -0.118108
C3    C     C_R   0.597122 0.385533 0.086321 -0.020541
C4    C     C_R   0.411348 0.496304 0.676334 0.890408
C5    C     C_R   0.788248 0.533454 0.064498 0.505621
C6    C     C_R   0.745157 0.549324 0.162533 -0.282821
C7    C     C_R   0.573043 0.382377 0.183706 -0.054414
C8    C     C_R   0.406203 0.939092 0.471056 -0.001698
C9    C     C_R   0.498270 0.871352 0.503792 -0.076137
C10   C     C_R   0.595646 0.932718 0.536737 -0.164466
C11   C     C_R   0.592940 0.061974 0.544459 -0.026617
C12   C     C_R   0.418223 0.383593 0.908748 0.139284
C13   C     C_R   0.496448 0.129020 0.511725 -0.189733
C14   C     C_R   0.407227 0.065815 0.473530 0.005054
C15   C     C_3   0.249195 0.077717 0.490663 -0.224238
C16   C     C_R   0.497503 0.261044 0.506224 0.819480
C17   C     C_3   0.247308 0.934076 0.488522 -0.082837
C18   C     C_R   0.897987 0.581184 0.556658 0.130041
C19   C     C_R   0.958924 0.421599 0.441418 0.611805
C20   C     C_R   0.104860 0.425365 0.439572 -0.157646
C21   C     C_R   0.039541 0.580133 0.557363 0.137473
C22   C     C_3   0.986998 0.582804 0.662547 -0.340058
C23   C     C_R   0.276123 0.410130 0.969632 -0.052296
C24   C     C_3   0.835394 0.586268 0.661700 -0.510941
C25   C     C_R   0.588773 0.495321 0.323934 0.871177
C26   C     C_R   0.361629 0.470093 0.777394 -0.221805
C27   C     C_R   0.640141 0.472658 0.222181 -0.188746
C28   C     C_R   0.183182 0.473442 0.933618 -0.259885
C29   C     C_R   0.229458 0.513225 0.840287 0.561593
C30   C     C_R   0.452104 0.400931 0.811451 -0.335523
C31   C     C_2   0.084759 0.402687 0.131511 0.411516
C32   C     C_3   0.786760 0.714689 0.989293 -0.237714
C33   C     C_2   0.680342 0.121638 0.595115 0.421985
C34   C     C_R   0.526229 0.361749 0.947911 0.012268
C35   C     C_2   0.164869 0.139459 0.584660 0.491198
C36   C     C_2   0.154993 0.876011 0.580124 0.402757
C37   C     C_2   0.218272 0.879901 0.404754 0.364950
C38   C     C_3   0.977913 0.222957 0.375140 -0.209636
C39   C     C_2   0.496565 0.275606 0.241505 0.353211
C40   C     C_3   0.979791 0.308470 0.843085 -0.299248
C41   C     C_3   0.169171 0.715409 0.834499 -0.195883
C42   C     C_R   0.488648 0.361976 0.047598 0.092436
C43   C     C_R   0.342470 0.366538 0.105244 -0.118823
C44   C     C_R   0.235883 0.389293 0.067146 -0.055714
C45   C     C_R   0.673077 0.365166 0.891761 -0.345074
C46   C     C_R   0.772598 0.408095 0.930477 0.548806
H1    H     H_    0.666767 0.879527 0.562790 0.196486
H2    H     H_    0.551436 0.366097 0.760858 0.162113
H3    H     H_    0.309992 0.367179 0.181271 0.179900
H4    H     H_    0.711716 0.350407 0.816494 0.161101
H5    H     H_    0.998066 0.375128 0.107935 0.064343
H6    H     H_    0.713464 0.758903 0.055985 0.152176
H7    H     H_    0.724139 0.676513 0.947187 0.166438
H8    H     H_    0.855970 0.788910 0.947371 0.177573
H9    H     H_    0.651911 0.213109 0.627846 0.073434
H10   H     H_    0.188195 0.116849 0.647601 0.067482
H11   H     H_    0.042603 0.859084 0.592281 0.103323
H12   H     H_    0.229987 0.121776 0.429873 0.176874
H13   H     H_    0.292136 0.811842 0.358542 0.095072
H14   H     H_    0.976053 0.188223 0.444513 0.206070
H15   H     H_    0.088623 0.220679 0.322367 0.165165
H16   H     H_    0.913394 0.157782 0.349336 0.205533
H17   H     H_    0.470797 0.275398 0.317117 0.092025
H18   H     H_    0.925994 0.253658 0.802518 0.180282
H19   H     H_    0.984781 0.254273 0.904110 0.150485
H20   H     H_    0.091207 0.322078 0.794361 0.196216
H21   H     H_    0.094356 0.779058 0.816841 0.206274
H22   H     H_    0.280662 0.743522 0.792894 0.153189
H23   H     H_    0.187160 0.366418 0.391002 0.135798
H24   H     H_    0.148037 0.727711 0.911459 0.164491
H25   H     H_    0.013800 0.495250 0.691452 0.269664
H26   H     H_    0.015356 0.669535 0.691986 0.237984
H27   H     H_    0.773879 0.501656 0.691766 0.220877
H28   H     H_    0.778057 0.676007 0.688575 0.205445
H29   H     H_    0.790755 0.623562 0.191777 0.189102
H30   H     H_    0.079390 0.502607 0.979845 0.221485
N1    N     N_R   0.856900 0.500860 0.500610 -0.146898
N2    N     N_R   0.142540 0.500820 0.500610 -0.117838
O1    O     O_R   0.385310 0.683210 0.499990 -0.602220
O2    O     O_3   0.874928 0.621872 0.007095 -0.598100
O3    O     O_2   0.783972 0.067478 0.602968 -0.574223
O4    O     O_2   0.070418 0.215741 0.590482 -0.597970
O5    O     O_2   0.202661 0.853016 0.642357 -0.631536
O6    O     O_2   0.109199 0.908827 0.389926 -0.569658
O7    O     O_3   0.916451 0.343345 0.382494 -0.559184
O8    O     O_2   0.467400 0.183123 0.204258 -0.576537
O9    O     O_3   0.913352 0.426252 0.873384 -0.558118
O10   O     O_3   0.143961 0.592388 0.811051 -0.567073
O11   O     O_R   0.614650 0.683240 0.500000 -0.623125
O12   O     O_R   0.319830 0.499970 0.632240 -0.565264
O13   O     O_R   0.549170 0.500000 0.632250 -0.636070
O14   O     O_R   0.385350 0.316760 0.500000 -0.617053
O15   O     O_R   0.614690 0.316790 0.500010 -0.598824
O16   O     O_R   0.450830 0.500000 0.367750 -0.639358
O17   O     O_R   0.680170 0.500030 0.367760 -0.533467
O18   O     O_2   0.055821 0.446982 0.210786 -0.540444
Zn1   Zn    Zn3+2 0.346870 0.499980 0.499990 0.973892
Zn2   Zn    Zn3+2 0.653130 0.500020 0.500010 1.004367

loop_
_geom_bond_atom_site_label_1
_geom_bond_atom_site_label_2
_ccdc_geom_bond_type
C33   H9    S    
C3    C42   A    
C18   C21   A    
C22   H25   S    
C19   C20   A    
C34   C42   A    
C25   O17   A    
O17   Zn2   S    
C6    H29   S    
C41   H21   S    
C45   C46   A    
C2    C46   A    
C12   C23   A    
C16   O15   A    
C18   C24   S    
C40   O9    S    
C30   H2    S    
C28   C29   A    
C3    C7    A    
C5    C6    A    
C24   H27   S    
C36   O5    D    
C31   O18   D    
C7    C27   A    
C15   C35   S    
C19   N1    A    
C32   H6    S    
C29   O10   S    
C8    C9    A    
C21   N2    A    
C8    C14   A    
C37   O6    D    
C17   C36   S    
C9    C10   A    
O12   Zn1   S    
C38   H15   S    
C25   O16   A    
C40   H20   S    
C21   C22   S    
C22   H26   S    
C35   O4    D    
O14   Zn1   S    
C41   H22   S    
C4    O12   A    
C31   C44   S    
C38   O7    S    
C11   C33   S    
C1    C9    S    
C36   H11   S    
C43   H3    S    
O16   Zn1   S    
C23   C44   A    
C43   C44   A    
C32   O2    S    
C6    C27   A    
N2    Zn1   S    
N1    Zn2   S    
C34   C45   A    
C17   C37   S    
C23   C28   A    
C5    O2    S    
C37   H13   S    
C38   H14   S    
C16   O14   A    
C40   H19   S    
C1    O1    A    
C15   H12   S    
C22   C24   S    
C20   H23   S    
C2    C5    A    
C42   C43   A    
C12   C34   A    
C28   H30   S    
C32   H7    S    
C46   O9    S    
C15   C17   S    
C41   O10   S    
C1    O11   A    
C12   C30   A    
C35   H10   S    
O1    Zn1   S    
C31   H5    S    
C19   O7    S    
C40   H18   S    
C4    C26   S    
C26   C30   A    
C25   C27   S    
C39   H17   S    
C8    C17   S    
C32   H8    S    
C20   N2    A    
O11   Zn2   S    
C4    O13   A    
C2    C3    A    
C11   C13   A    
C24   H28   S    
C45   H4    S    
C18   N1    A    
O13   Zn2   S    
C10   C11   A    
C26   C29   A    
C13   C16   S    
C10   H1    S    
C7    C39   S    
C14   C15   S    
C39   O8    D    
C13   C14   A    
C33   O3    D    
O15   Zn2   S    
C41   H24   S    
C38   H16   S    
