data_mof_unit_52084.cif
_audit_creation_date              2012-12-11T15:39:37-0500
_audit_creation_method            fapswitch 2.2
_symmetry_space_group_name_H-M    P1
_symmetry_Int_Tables_number       1
_space_group_crystal_system       triclinic
_cell_length_a                    17.424289
_cell_length_b                    24.532467
_cell_length_c                    15.091625
_cell_angle_alpha                 90.029491
_cell_angle_beta                  126.024114
_cell_angle_gamma                 89.935663
_cell_volume                      5217.4320427

loop_
_atom_site_label
_atom_site_type_symbol
_atom_type_description
_atom_site_fract_x
_atom_site_fract_y
_atom_site_fract_z
_atom_type_partial_charge
C1    C     C_R   0.313290 0.371354 0.909984 0.532271
C2    C     C_R   0.640830 0.346718 0.090051 0.581310
C3    C     C_R   0.813289 0.871355 0.909984 0.532266
C4    C     C_R   0.140831 0.846718 0.090050 0.581318
C5    C     C_R   0.318493 0.641997 0.001609 -0.032091
C6    C     C_R   0.616490 0.682431 0.000521 0.015865
C7    C     C_R   0.818493 0.141997 0.001610 -0.032090
C8    C     C_R   0.116487 0.182432 0.000522 0.015879
C9    C     C_R   0.564439 0.502160 0.364986 -0.058879
C10   C     C_R   0.541053 0.502728 0.717063 -0.097424
C11   C     C_R   0.064465 0.002161 0.365003 -0.058842
C12   C     C_R   0.041056 0.002729 0.717063 -0.097369
C13   C     C_R   0.204678 0.501893 0.626435 -0.097988
C14   C     C_R   0.826362 0.501778 0.279301 -0.079923
C15   C     C_R   0.704678 0.001893 0.626435 -0.097987
C16   C     C_R   0.326362 0.001778 0.279301 -0.079922
C17   C     C_R   0.072954 0.555673 0.468819 0.011433
C18   C     C_R   0.976489 0.554481 0.388927 -0.074227
C19   C     C_R   0.572954 0.055673 0.468819 0.011439
C20   C     C_R   0.476488 0.054481 0.388927 -0.074225
C21   C     C_R   0.123983 0.506463 0.509517 0.080261
C22   C     C_R   0.929215 0.505823 0.338193 0.131200
C23   C     C_R   0.623983 0.006463 0.509517 0.080267
C24   C     C_R   0.429215 0.005823 0.338193 0.131199
C25   C     C_R   0.081940 0.460266 0.441001 -0.070168
C26   C     C_R   0.985250 0.460583 0.353568 -0.099028
C27   C     C_R   0.581940 0.960266 0.441001 -0.070160
C28   C     C_R   0.485249 0.960583 0.353568 -0.099028
C29   C     C_3   0.956778 0.601140 0.436729 0.226008
C30   C     C_3   0.063174 0.604297 0.522175 0.234251
C31   C     C_3   0.456778 0.101140 0.436729 0.226005
C32   C     C_3   0.563174 0.104297 0.522176 0.234250
C33   C     C_R   0.168278 0.677755 0.956184 -0.176326
C34   C     C_R   0.759617 0.721382 0.043144 -0.207590
C35   C     C_R   0.668279 0.177753 0.956189 -0.176320
C36   C     C_R   0.259616 0.221382 0.043148 -0.207591
C37   C     C_R   0.617249 0.221331 0.955339 0.516252
C38   C     C_R   0.310240 0.264039 0.043531 0.507297
C39   C     C_R   0.117249 0.721333 0.955334 0.516250
C40   C     C_R   0.810241 0.764039 0.043528 0.507298
C41   C     C_R   0.664798 0.270608 0.003551 -0.167100
C42   C     C_R   0.266034 0.315232 0.006347 -0.168459
C43   C     C_R   0.164799 0.770608 0.003550 -0.167101
C44   C     C_R   0.766034 0.815233 0.006347 -0.168460
C45   C     C_R   0.405003 0.625669 0.092675 -0.162493
C46   C     C_R   0.557155 0.651435 0.909200 -0.174469
C47   C     C_R   0.905003 0.125669 0.092676 -0.162477
C48   C     C_R   0.057153 0.151436 0.909201 -0.174491
C49   C     C_R   0.762234 0.276655 0.052106 0.479359
C50   C     C_R   0.171013 0.323206 0.966820 0.510619
C51   C     C_R   0.262236 0.776654 0.052109 0.479355
C52   C     C_R   0.671013 0.823206 0.966823 0.510621
C53   C     C_R   0.311993 0.732905 0.054277 -0.183042
C54   C     C_R   0.620058 0.779273 0.964661 -0.181338
C55   C     C_R   0.811992 0.232906 0.054274 -0.183041
C56   C     C_R   0.120056 0.279273 0.964659 -0.181341
C57   C     C_R   0.265083 0.684111 0.006146 0.019141
C58   C     C_R   0.665427 0.729090 0.003429 0.015918
C59   C     C_R   0.765083 0.184111 0.006148 0.019143
C60   C     C_R   0.165426 0.229091 0.003430 0.015914
C61   C     C_R   0.516959 0.547197 0.559632 -0.114579
C62   C     C_R   0.523375 0.546936 0.473785 -0.135604
C63   C     C_R   0.017123 0.047245 0.559748 -0.114602
C64   C     C_R   0.023551 0.046985 0.473910 -0.135516
C65   C     C_R   0.577086 0.506757 0.467794 0.127453
C66   C     C_R   0.564245 0.507268 0.640612 0.147886
C67   C     C_R   0.077162 0.006764 0.467845 0.127467
C68   C     C_R   0.064299 0.007272 0.640653 0.147841
C69   C     C_R   0.632191 0.469961 0.554035 -0.039577
C70   C     C_R   0.625260 0.470042 0.641010 -0.081966
C71   C     C_R   0.132192 0.969932 0.554038 -0.039645
C72   C     C_R   0.125251 0.970012 0.641006 -0.081967
C73   C     C_R   0.551424 0.455741 0.305295 0.439105
C74   C     C_R   0.511623 0.455901 0.741110 0.494993
C75   C     C_R   0.051438 0.955741 0.305302 0.439090
C76   C     C_R   0.011620 0.955901 0.741106 0.494958
C77   C     C_R   0.250430 0.545765 0.693969 -0.160719
C78   C     C_R   0.766887 0.546135 0.244308 -0.078313
C79   C     C_R   0.750430 0.045765 0.693969 -0.160711
C80   C     C_R   0.266887 0.046135 0.244308 -0.078316
C81   C     C_R   0.548583 0.546436 0.301282 -0.157731
C82   C     C_R   0.517003 0.547117 0.751217 -0.178643
C83   C     C_R   0.048599 0.046436 0.301289 -0.157741
C84   C     C_R   0.017006 0.047117 0.751221 -0.178606
C85   C     C_R   0.253209 0.455995 0.689482 0.543971
C86   C     C_R   0.771565 0.455576 0.258689 0.491376
C87   C     C_R   0.753209 0.955995 0.689482 0.543971
C88   C     C_R   0.271565 0.955576 0.258689 0.491379
C89   C     C_R   0.314070 0.629466 0.909316 0.471666
C90   C     C_R   0.646000 0.651909 0.091009 0.406453
C91   C     C_R   0.814070 0.129466 0.909316 0.471663
C92   C     C_R   0.145999 0.151910 0.091009 0.406452
C93   C     C_R   0.404103 0.375205 0.092525 -0.058198
C94   C     C_R   0.556521 0.348332 0.909343 -0.047383
C95   C     C_R   0.904102 0.875206 0.092525 -0.058182
C96   C     C_R   0.056522 0.848332 0.909343 -0.047393
C97   C     C_R   0.318328 0.358378 0.002116 -0.028731
C98   C     C_R   0.614534 0.317229 0.999948 -0.011010
C99   C     C_R   0.818327 0.858379 0.002116 -0.028735
C100  C     C_R   0.114535 0.817230 0.999947 -0.011014
H1    H     H_    0.133137 0.639499 0.917839 0.190521
H2    H     H_    0.792747 0.681550 0.070775 0.169809
H3    H     H_    0.633139 0.139497 0.917847 0.190521
H4    H     H_    0.292746 0.181550 0.070782 0.169809
H5    H     H_    0.386731 0.737532 0.089509 0.191769
H6    H     H_    0.546320 0.784011 0.933493 0.191607
H7    H     H_    0.886729 0.237533 0.089503 0.191767
H8    H     H_    0.046318 0.284011 0.933488 0.191609
H9    H     H_    0.468930 0.576122 0.557603 0.144281
H10   H     H_    0.480050 0.575737 0.407895 0.138437
H11   H     H_    0.969152 0.076203 0.557754 0.144262
H12   H     H_    0.980289 0.075821 0.408071 0.138415
H13   H     H_    0.434044 0.633538 0.177385 0.150553
H14   H     H_    0.516178 0.665103 0.825008 0.162896
H15   H     H_    0.934045 0.133537 0.177387 0.150556
H16   H     H_    0.016175 0.165104 0.825009 0.162898
H17   H     H_    0.564332 0.588510 0.327639 0.166231
H18   H     H_    0.525936 0.589589 0.740721 0.146182
H19   H     H_    0.064364 0.088509 0.327646 0.166218
H20   H     H_    0.025957 0.089590 0.740749 0.146149
N1    N     N_R   0.394180 0.396910 0.943210 -0.108309
N2    N     N_R   0.605820 0.396910 0.056790 -0.127827
N3    N     N_R   0.894180 0.896910 0.943210 -0.108307
N4    N     N_R   0.105820 0.896910 0.056790 -0.127827
N5    N     N_R   0.450950 0.603070 0.056740 -0.062159
N6    N     N_R   0.549050 0.603070 0.943260 -0.072612
N7    N     N_R   0.950950 0.103070 0.056740 -0.062162
N8    N     N_R   0.049050 0.103070 0.943260 -0.072614
N9    N     N_R   0.525650 0.471570 0.206150 -0.099114
N10   N     N_R   0.474350 0.471570 0.793850 -0.084952
N11   N     N_R   0.025650 0.971570 0.206150 -0.099107
N12   N     N_R   0.974350 0.971570 0.793850 -0.084945
N13   N     N_R   0.319480 0.528420 0.793810 -0.079870
N14   N     N_R   0.680520 0.528420 0.206190 -0.063582
N15   N     N_R   0.819480 0.028420 0.793810 -0.079872
N16   N     N_R   0.180520 0.028420 0.206190 -0.063585
N17   N     N_R   0.525640 0.528390 0.206120 -0.069468
N18   N     N_R   0.474360 0.528390 0.793880 -0.067980
N19   N     N_R   0.025640 0.028390 0.206120 -0.069468
N20   N     N_R   0.974360 0.028390 0.793880 -0.067979
N21   N     N_R   0.319490 0.471590 0.793840 -0.106838
N22   N     N_R   0.680510 0.471590 0.206160 -0.097410
N23   N     N_R   0.819490 0.971590 0.793840 -0.106840
N24   N     N_R   0.180510 0.971590 0.206160 -0.097410
N25   N     N_R   0.394130 0.603080 0.943110 -0.091870
N26   N     N_R   0.605870 0.603080 0.056890 -0.098954
N27   N     N_R   0.894130 0.103080 0.943110 -0.091870
N28   N     N_R   0.105870 0.103080 0.056890 -0.098954
N29   N     N_R   0.450990 0.396900 0.056840 -0.074723
N30   N     N_R   0.549010 0.396900 0.943160 -0.102052
N31   N     N_R   0.950990 0.896900 0.056840 -0.074719
N32   N     N_R   0.049010 0.896900 0.943160 -0.102051
Ni1   Ni    Ni4+2 0.434860 0.434850 0.869700 0.315985
Ni2   Ni    Ni4+2 0.565140 0.434850 0.130300 0.337148
Ni3   Ni    Ni4+2 0.934860 0.934850 0.869700 0.315991
Ni4   Ni    Ni4+2 0.065140 0.934850 0.130300 0.337152
Ni5   Ni    Ni4+2 0.565130 0.565140 0.130240 0.277111
Ni6   Ni    Ni4+2 0.434870 0.565140 0.869760 0.240298
Ni7   Ni    Ni4+2 0.065130 0.065140 0.130240 0.277101
Ni8   Ni    Ni4+2 0.934870 0.065140 0.869760 0.240303
Cl1   Cl    Cl    0.228703 0.343881 0.780163 -0.493849
Cl2   Cl    Cl    0.651859 0.314176 0.200709 -0.404823
Cl3   Cl    Cl    0.728702 0.843882 0.780163 -0.493844
Cl4   Cl    Cl    0.151861 0.814176 0.200708 -0.404816
H21   H     H_    0.925311 0.637024 0.381288 0.166250
H22   H     H_    0.086028 0.597064 0.607119 0.167272
H23   H     H_    0.425310 0.137024 0.381289 0.166251
H24   H     H_    0.586027 0.097064 0.607120 0.167270
Cl5   Cl    Cl    0.897680 0.581763 0.496904 -0.518276
Cl6   Cl    Cl    0.112435 0.663822 0.505171 -0.449675
Cl7   Cl    Cl    0.397680 0.081763 0.496904 -0.518276
Cl8   Cl    Cl    0.612434 0.163822 0.505172 -0.449657
Cl9   Cl    Cl    0.495117 0.213351 0.893557 -0.472122
Cl10  Cl    Cl    0.426332 0.250295 0.084304 -0.476371
Cl11  Cl    Cl    0.995115 0.713353 0.893547 -0.472121
Cl12  Cl    Cl    0.926332 0.750296 0.084298 -0.476376
Cl13  Cl    Cl    0.823766 0.339118 0.103722 -0.612501
Cl14  Cl    Cl    0.114573 0.387028 0.918826 -0.539188
Cl15  Cl    Cl    0.323770 0.839117 0.103730 -0.612501
Cl16  Cl    Cl    0.614573 0.887028 0.918833 -0.539180
H25   H     H_    0.678042 0.440630 0.553216 0.199014
H26   H     H_    0.664113 0.440134 0.705782 0.172148
H27   H     H_    0.177989 0.940572 0.553187 0.199060
H28   H     H_    0.164039 0.940076 0.705731 0.172196
Cl17  Cl    Cl    0.595623 0.390440 0.359857 -0.517760
Cl18  Cl    Cl    0.493422 0.392661 0.676999 -0.553172
Cl19  Cl    Cl    0.095632 0.890437 0.359845 -0.517808
Cl20  Cl    Cl    0.993413 0.892661 0.676993 -0.553219
H29   H     H_    0.248394 0.586311 0.665511 0.215198
H30   H     H_    0.785826 0.587836 0.245233 0.160719
H31   H     H_    0.748393 0.086311 0.665511 0.215199
H32   H     H_    0.285825 0.087837 0.245233 0.160720
Cl21  Cl    Cl    0.276359 0.399625 0.636246 -0.528505
Cl22  Cl    Cl    0.817724 0.393641 0.328478 -0.483940
Cl23  Cl    Cl    0.776358 0.899624 0.636246 -0.528486
Cl24  Cl    Cl    0.317724 0.893641 0.328479 -0.483930
Cl25  Cl    Cl    0.240360 0.662761 0.783204 -0.590318
Cl26  Cl    Cl    0.692539 0.679118 0.221245 -0.584103
Cl27  Cl    Cl    0.740359 0.162761 0.783205 -0.590309
Cl28  Cl    Cl    0.192537 0.179117 0.221246 -0.584113
H33   H     H_    0.431525 0.367718 0.176484 0.203931
H34   H     H_    0.511267 0.332694 0.827151 0.237082
H35   H     H_    0.931523 0.867720 0.176485 0.203928
H36   H     H_    0.011269 0.832695 0.827151 0.237087
H37   H     H_    0.118375 0.422084 0.458892 0.214532
H38   H     H_    0.953580 0.423669 0.306528 0.212233
H39   H     H_    0.618375 0.922085 0.458891 0.214532
H40   H     H_    0.453580 0.923669 0.306528 0.212234

loop_
_geom_bond_atom_site_label_1
_geom_bond_atom_site_label_2
_ccdc_geom_bond_type
C55   C59   A    
C92   N28   A    
N2    Ni2   S    
C6    C58   S    
C93   N29   A    
C19   C20   A    
C78   H30   S    
C61   H9    S    
C2    Cl2   S    
C83   N19   A    
N6    N26   A    
C5    C57   S    
N26   Ni5   S    
N3    Ni3   S    
C89   N25   A    
C12   C68   S    
C12   C84   A    
C33   C39   A    
N1    Ni1   S    
C37   C41   A    
C34   C40   A    
N2    N30   A    
N11   Ni4   S    
C50   Cl14  S    
C38   C42   A    
C35   H3    S    
N9    Ni2   S    
N16   N24   A    
C44   C99   S    
C51   Cl15  S    
C38   Cl10  S    
C48   N8    A    
N5    Ni5   S    
N27   Ni8   S    
C95   C99   A    
C29   H21   S    
C96   N32   A    
C81   H17   S    
N12   Ni3   S    
C84   H20   S    
C4    N4    A    
C35   C59   A    
N13   Ni6   S    
C83   H19   S    
C45   H13   S    
C88   Cl24  S    
C30   Cl6   S    
C46   N6    A    
N16   Ni7   S    
C16   C80   A    
C61   C66   A    
C70   H26   S    
C56   H8    S    
C20   C24   A    
C75   N11   A    
C94   C98   A    
N30   Ni1   S    
C2    N2    A    
C4    Cl4   S    
C92   Cl28  S    
C94   H34   S    
C23   C27   A    
C93   H33   S    
C27   H39   S    
C61   C62   A    
C76   Cl20  S    
C3    Cl3   S    
C48   H16   S    
C91   Cl27  S    
C15   C23   S    
C44   C52   A    
C10   C66   S    
C32   Cl8   S    
N20   Ni8   S    
C1    Cl1   S    
C16   C24   S    
C79   H31   S    
C84   N20   A    
C63   H11   S    
C17   C30   S    
C80   H32   S    
C26   H38   S    
C77   N13   A    
C11   C75   A    
C25   H37   S    
C19   C32   S    
C7    C59   S    
C69   H25   S    
C3    N3    A    
C96   H36   S    
C49   Cl13  S    
N6    Ni6   S    
C13   C77   A    
C54   H6    S    
C64   C67   A    
C71   H27   S    
C10   C74   A    
N11   N19   A    
C43   C100  S    
C14   C86   A    
C39   Cl11  S    
C16   C88   A    
C42   C97   S    
C85   N21   A    
C40   Cl12  S    
C46   H14   S    
N8    N28   A    
C39   C43   A    
C11   C83   A    
C25   C26   A    
C6    C90   A    
C5    C45   A    
C10   C82   A    
C50   C56   A    
C91   N27   A    
C56   C60   A    
C55   H7    S    
C51   C53   A    
N28   Ni7   S    
C7    C47   A    
N24   Ni4   S    
C19   C23   A    
N29   Ni2   S    
C8    C48   A    
C29   C30   S    
C53   H5    S    
C14   C78   A    
N14   N22   A    
N18   Ni6   S    
N23   Ni3   S    
C31   C32   S    
C62   H10   S    
N32   Ni3   S    
C68   C72   A    
C7    C91   A    
C9    C65   S    
C17   C18   A    
C13   C21   S    
C18   C29   S    
C34   H2    S    
N31   Ni4   S    
N22   Ni2   S    
C78   N14   A    
C30   H22   S    
C47   H15   S    
C42   C50   A    
C8    C92   A    
C31   H23   S    
N4    Ni4   S    
C12   C76   A    
C28   H40   S    
C33   H1    S    
N7    N27   A    
C95   N31   A    
C11   C67   S    
C1    C97   A    
N10   N18   A    
C93   C97   A    
C79   N15   A    
N8    Ni8   S    
C86   N22   A    
C15   C87   A    
C54   C58   A    
C21   C25   A    
C63   C68   A    
C33   C57   A    
N15   Ni8   S    
C6    C46   A    
C62   C65   A    
C35   C37   A    
C18   C22   A    
N7    Ni7   S    
C9    C73   A    
N3    N31   A    
C75   Cl19  S    
C24   C28   A    
C32   H24   S    
C36   C60   A    
C37   Cl9   S    
C53   C57   A    
C73   Cl17  S    
C47   N7    A    
C90   Cl26  S    
C15   C79   A    
N12   N20   A    
C41   C49   A    
C89   Cl25  S    
N13   N21   A    
C80   N16   A    
C4    C100  A    
N17   Ni5   S    
C36   H4    S    
C77   H29   S    
C14   C22   S    
C74   N10   A    
C52   Cl16  S    
C87   Cl23  S    
C71   C72   A    
C90   N26   A    
C49   C55   A    
C8    C60   S    
N25   Ni6   S    
C76   N12   A    
N21   Ni1   S    
C66   C70   A    
C31   Cl7   S    
C43   C51   A    
C73   N9    A    
C65   C69   A    
C81   N17   A    
C96   C100  A    
C36   C38   A    
N15   N23   A    
N1    N29   A    
C29   Cl5   S    
N10   Ni1   S    
C67   C71   A    
C45   N5    A    
C85   Cl21  S    
C72   H28   S    
N4    N32   A    
C69   C70   A    
C1    N1    A    
C64   H12   S    
N19   Ni7   S    
C63   C64   A    
C3    C99   A    
C94   N30   A    
C40   C44   A    
N14   Ni5   S    
N9    N17   A    
C2    C98   A    
C82   N18   A    
C22   C26   A    
C13   C85   A    
C27   C28   A    
C34   C58   A    
C52   C54   A    
C82   H18   S    
C41   C98   S    
N5    N25   A    
C87   N23   A    
C86   Cl22  S    
C95   H35   S    
C88   N24   A    
C5    C89   A    
C9    C81   A    
C74   Cl18  S    
C20   C31   S    
C17   C21   A    
