data_mof_unit_58489.cif
_audit_creation_date              2012-12-10T17:22:10-0500
_audit_creation_method            fapswitch 2.2
_symmetry_space_group_name_H-M    P1
_symmetry_Int_Tables_number       1
_space_group_crystal_system       triclinic
_cell_length_a                    15.873675
_cell_length_b                    10.774953
_cell_length_c                    9.61576
_cell_angle_alpha                 90.07565
_cell_angle_beta                  90.106122
_cell_angle_gamma                 92.450603
_cell_volume                      1643.15279499

loop_
_atom_site_label
_atom_site_type_symbol
_atom_type_description
_atom_site_fract_x
_atom_site_fract_y
_atom_site_fract_z
_atom_type_partial_charge
C1    C     C_R   0.497408 0.262644 0.499921 0.785880
C2    C     C_3   0.948425 0.400792 0.602403 -0.381440
C3    C     C_3   0.917284 0.500596 0.500743 0.315895
C4    C     C_3   0.955209 0.629154 0.546668 -0.374220
C5    C     C_3   0.052862 0.628899 0.546533 -0.371324
C6    C     C_1   0.825050 0.500745 0.500695 -0.110740
C7    C     C_1   0.175044 0.499896 0.500223 -0.086636
C8    C     C_1   0.250631 0.499694 0.499958 -0.149352
C9    C     C_R   0.360840 0.121195 0.639048 -0.241587
C10   C     C_R   0.296825 0.052515 0.706951 0.433497
C11   C     C_R   0.297121 0.923309 0.707743 -0.175498
C12   C     C_R   0.340344 0.499545 0.499973 0.807800
C13   C     C_R   0.361218 0.862223 0.640555 -0.248219
C14   C     C_R   0.427264 0.929997 0.572383 0.103348
C15   C     C_R   0.427116 0.061240 0.571867 0.035236
C16   C     C_R   0.491774 0.128489 0.499596 -0.071668
C17   C     C_R   0.552507 0.067270 0.424190 -0.190210
C18   C     C_R   0.552583 0.939222 0.424427 -0.209573
C19   C     C_R   0.491959 0.870573 0.500155 -0.063712
C20   C     C_R   0.611620 0.665579 0.144253 -0.133717
C21   C     C_R   0.665906 0.746825 0.072415 -0.213545
C22   C     C_R   0.665899 0.746816 0.929130 -0.202633
C23   C     C_R   0.497566 0.737090 0.500082 0.758236
C24   C     C_R   0.611574 0.665602 0.856745 -0.129028
C25   C     C_R   0.554756 0.581455 0.925514 0.205851
C26   C     C_R   0.554763 0.581415 0.074977 0.210739
C27   C     C_R   0.447902 0.422489 0.073544 -0.046468
C28   C     C_R   0.447914 0.422517 0.925777 -0.044984
C29   C     C_R   0.659670 0.500344 0.500079 0.805661
C30   C     C_3   0.046073 0.400528 0.602264 -0.340996
C31   C     C_3   0.047761 0.471317 0.352919 -0.370789
C32   C     C_3   0.950140 0.471595 0.353056 -0.373148
C33   C     C_1   0.749431 0.500646 0.500426 -0.175590
C34   C     C_3   0.082850 0.500158 0.500500 0.291542
Cu1   Cu    Cu3+1 0.499990 0.499990 0.640660 0.936185
Cu2   Cu    Cu3+1 0.500010 0.500010 0.359340 0.941528
H1    H     H_    0.922139 0.307335 0.571538 0.168467
H2    H     H_    0.070252 0.419289 0.709315 0.184134
H3    H     H_    0.925760 0.419689 0.709530 0.169455
H4    H     H_    0.933894 0.702627 0.475040 0.163000
H5    H     H_    0.601256 0.119131 0.367327 0.147816
H6    H     H_    0.356846 0.221086 0.637227 0.164909
H7    H     H_    0.246955 0.869757 0.758957 0.166645
H8    H     H_    0.357281 0.761875 0.640478 0.170588
H9    H     H_    0.601384 0.893410 0.367680 0.133003
H10   H     H_    0.405163 0.358860 0.128314 0.151119
H11   H     H_    0.066636 0.306948 0.571358 0.192974
H12   H     H_    0.617308 0.673005 0.253843 0.189819
H13   H     H_    0.708482 0.810130 0.128696 0.144002
H14   H     H_    0.708492 0.810086 0.873294 0.148547
H15   H     H_    0.617179 0.672983 0.747162 0.194645
H16   H     H_    0.405184 0.358889 0.870509 0.158644
H17   H     H_    0.073189 0.541800 0.277703 0.169820
H18   H     H_    0.068319 0.379015 0.317466 0.174504
H19   H     H_    0.923876 0.379432 0.317639 0.167029
H20   H     H_    0.928737 0.542224 0.277921 0.165685
H21   H     H_    0.077166 0.651795 0.652576 0.168068
H22   H     H_    0.078388 0.702260 0.474859 0.171227
H23   H     H_    0.932652 0.652154 0.652786 0.165340
N1    N     N_R   0.500800 0.501210 0.147910 -0.202327
N2    N     N_R   0.500820 0.501290 0.852040 -0.203316
O1    O     O_R   0.499990 0.319640 0.618810 -0.577493
O2    O     O_R   0.500000 0.319660 0.381240 -0.573991
O3    O     O_R   0.379430 0.499990 0.618840 -0.580085
O4    O     O_R   0.379440 0.500020 0.381260 -0.568582
O5    O     O_R   0.500000 0.680340 0.618760 -0.601598
O6    O     O_R   0.500010 0.680360 0.381190 -0.589169
O7    O     O_R   0.620560 0.499980 0.618740 -0.588670
O8    O     O_R   0.620570 0.500010 0.381160 -0.592750
Cl1   Cl    Cl    0.214936 0.129013 0.788668 -0.677775

loop_
_geom_bond_atom_site_label_1
_geom_bond_atom_site_label_2
_ccdc_geom_bond_type
C19   C23   S    
C24   C25   A    
C11   H7    S    
Cu1   O3    S    
Cu2   O2    S    
C11   C13   A    
C9    C10   A    
C32   H19   S    
Cu1   Cu2   S    
C6    C33   T    
C5    H21   S    
C27   H10   S    
C8    C12   S    
C3    C6    S    
C5    C34   S    
Cu2   O4    S    
C24   H15   S    
C21   H13   S    
C17   C18   A    
C9    C15   A    
Cu2   O6    S    
C7    C8    T    
Cu1   N2    S    
C1    C16   S    
C25   N2    A    
C13   C14   A    
C31   H17   S    
C28   H16   S    
C2    H1    S    
Cu2   O8    S    
C9    H6    S    
C20   H12   S    
C20   C26   A    
C5    H22   S    
C1    O2    A    
C4    H23   S    
C2    C3    S    
Cu1   O1    S    
C29   O8    A    
C27   N1    A    
C31   H18   S    
C3    C32   S    
C12   O3    A    
C7    C34   S    
C22   C24   A    
C31   C34   S    
C17   H5    S    
C16   C17   A    
C10   C11   A    
C30   C34   S    
C28   N2    A    
C23   O5    A    
C15   C16   A    
C29   O7    A    
C18   H9    S    
C29   C33   S    
C30   H11   S    
Cu1   O7    S    
C20   C21   A    
C30   H2    S    
C1    O1    A    
C31   C32   S    
C18   C19   A    
C12   O4    A    
C23   O6    A    
C27   C28   A    
C22   H14   S    
C14   C15   A    
C14   C19   A    
C2    C30   S    
Cu1   O5    S    
C25   C26   A    
C21   C22   A    
C26   N1    A    
C2    H3    S    
C32   H20   S    
C13   H8    S    
C3    C4    S    
C4    H4    S    
C4    C5    S    
Cu2   N1    S    
C10   Cl1   S    
