data_mof_unit_26338.cif
_audit_creation_date              2013-03-05T15:40:25-0500
_audit_creation_method            fapswitch 2.2
_symmetry_space_group_name_H-M    P1
_symmetry_Int_Tables_number       1
_space_group_crystal_system       triclinic
_cell_length_a                    7.787763
_cell_length_b                    8.613857
_cell_length_c                    10.635031
_cell_angle_alpha                 91.686594
_cell_angle_beta                  85.805476
_cell_angle_gamma                 93.128533
_cell_volume                      710.223108679

loop_
_atom_site_label
_atom_site_type_symbol
_atom_site_description
_atom_site_fract_x
_atom_site_fract_y
_atom_site_fract_z
_atom_type_partial_charge
O1    O     O_R   0.389250 0.738570 0.508280 -0.589690
O2    O     O_R   0.678390 0.711630 0.486650 -0.611008
C1    C     C_R   0.544628 0.794263 0.495721 0.862209
O3    O     O_R   0.355400 0.513470 0.694050 -0.626460
O4    O     O_R   0.644540 0.486530 0.672420 -0.595254
C2    C     C_R   0.502802 0.503179 0.739414 0.867424
Zn1   Zn    Zn3+2 0.306930 0.517990 0.514440 1.071812
Zn2   Zn    Zn3+2 0.693070 0.482010 0.485560 1.075052
O5    O     O_R   0.321610 0.288370 0.513350 -0.570041
O6    O     O_R   0.610750 0.261430 0.491720 -0.591293
O7    O     O_R   0.355460 0.513470 0.327580 -0.581931
O8    O     O_R   0.644600 0.486530 0.305950 -0.611812
C3    C     C_R   0.455183 0.205903 0.504023 0.884857
C4    C     C_R   0.498775 0.504102 0.260884 0.889264
C5    C     C_R   0.376383 0.770151 0.880985 -0.100857
H1    H     H_    0.384290 0.779205 0.779659 0.184004
C6    C     C_R   0.306567 0.893038 0.952124 -0.040988
H2    H     H_    0.259222 0.990480 0.905420 0.174846
C7    C     C_R   0.302206 0.892684 0.082994 -0.073978
H3    H     H_    0.251439 0.989765 0.138094 0.172742
C8    C     C_R   0.365683 0.768481 0.143103 -0.107110
H4    H     H_    0.363945 0.775472 0.244749 0.152672
C9    C     C_R   0.431842 0.640278 0.072348 0.084537
C10   C     C_R   0.437987 0.641089 0.940396 0.043021
C11   C     C_R   0.510216 0.514123 0.871771 -0.212360
C12   C     C_R   0.582815 0.392445 0.930956 0.296142
H5    H     H_    0.625775 0.296710 0.106491 0.223074
C13   C     C_R   0.572903 0.391749 0.059815 -0.236639
C14   C     C_R   0.497231 0.512384 0.129058 -0.145717
C15   C     C_2   0.561935 0.954571 0.472534 0.076202
C16   C     C_2   0.435604 0.044231 0.522777 0.162136
N1    N     N_2   0.950330 0.457950 0.466250 0.110531
N2    N     N_2   0.049670 0.542050 0.533750 -0.045861
H6    H     H_    0.986349 0.617414 0.595589 0.174357
N3    N     N_R   0.663468 0.267269 0.861577 0.206447
O9    O     O_R   0.814406 0.292653 0.802823 -0.358346
O10   O     O_R   0.608997 0.124593 0.883469 -0.405509
N4    N     N_R   0.693920 0.007382 0.378695 0.189206
O11   O     O_R   0.650860 0.071462 0.277048 -0.438231
O12   O     O_R   0.852771 0.970617 0.385702 -0.347614
O13   O     O_3   0.303860 0.985563 0.606405 -0.759895
H7    H     H_    0.234840 0.071296 0.643127 0.365168
O14   O     O_3   0.030661 0.360006 0.384723 -0.593859
H8    H     H_    0.936911 0.306079 0.339612 0.378752

loop_
_geom_bond_atom_site_label_1
_geom_bond_atom_site_label_2
_geom_bond_distance
_ccdc_geom_bond_type
O4    Zn2   1.995181 S    
N4    O12   1.301493 A    
O14   H8    0.989992 S    
C5    C6    1.394277 A    
C1    C15   1.407351 S    
O13   H7    0.991188 S    
C12   C13   1.367117 A    
C7    H3    1.082747 S    
Zn2   O8    1.975896 S    
N1    N2    1.275967 D    
N2    H6    1.029312 S    
C8    H4    1.080040 S    
Zn1   O7    1.995181 S    
Zn1   N2    2.020318 S    
O4    C2    1.281734 A    
O3    Zn1   1.975896 S    
C9    C14   1.407836 A    
O3    C2    1.285695 A    
C5    C10   1.417468 A    
C6    C7    1.389828 A    
N1    O14   1.337958 S    
O8    C4    1.282563 A    
C6    H2    1.082720 S    
O2    C1    1.289686 A    
C8    C9    1.416939 A    
C15   C16   1.353394 D    
O7    C4    1.282960 A    
C2    C11   1.413178 S    
C9    C10   1.400832 A    
C5    H1    1.079729 S    
Zn2   N1    2.020318 S    
C12   N3    1.435564 S    
N4    O11   1.301583 A    
C10   C11   1.416087 A    
C15   N4    1.443970 S    
Zn2   O6    1.973241 S    
N3    O10   1.300026 A    
H5    C13   1.084787 S    
Zn1   O5    1.987081 S    
O5    C3    1.287609 A    
C13   C14   1.388411 A    
C16   O13   1.391195 S    
C7    C8    1.393503 A    
C11   C12   1.403558 A    
O1    Zn1   1.973241 S    
C3    C16   1.411081 S    
O2    Zn2   1.987081 S    
N3    O9    1.300965 A    
C4    C14   1.406839 S    
O1    C1    1.276308 A    
O6    C3    1.277074 A    
