data_mof_unit_45181.cif
_audit_creation_date              2012-12-10T20:39:57-0500
_audit_creation_method            fapswitch 2.2
_symmetry_space_group_name_H-M    P1
_symmetry_Int_Tables_number       1
_space_group_crystal_system       triclinic
_cell_length_a                    23.410529
_cell_length_b                    10.676745
_cell_length_c                    9.845854
_cell_angle_alpha                 90.110473
_cell_angle_beta                  89.671928
_cell_angle_gamma                 90.116681
_cell_volume                      2460.9039967

loop_
_atom_site_label
_atom_site_type_symbol
_atom_type_description
_atom_site_fract_x
_atom_site_fract_y
_atom_site_fract_z
_atom_type_partial_charge
C1    C     C_R   0.498818 0.259963 0.500151 0.884420
C2    C     C_R   0.969403 0.288187 0.612439 -0.149873
C3    C     C_R   0.028864 0.286243 0.611313 -0.142435
C4    C     C_R   0.059756 0.383062 0.548381 -0.027773
C5    C     C_R   0.030502 0.482225 0.485278 -0.019964
C6    C     C_R   0.061111 0.579658 0.421363 -0.025933
C7    C     C_R   0.031602 0.678165 0.359103 -0.146936
C8    C     C_R   0.972165 0.680580 0.361192 -0.151149
C9    C     C_R   0.119407 0.384342 0.547817 0.567181
C10   C     C_R   0.120707 0.576312 0.422748 0.553578
C11   C     C_R   0.235339 0.553790 0.591988 -0.235230
C12   C     C_R   0.389392 0.500518 0.500451 0.939492
C13   C     C_R   0.294677 0.558718 0.599442 0.465224
C14   C     C_R   0.327347 0.494804 0.500563 -0.194475
C15   C     C_R   0.300374 0.423788 0.399457 -0.338703
C16   C     C_R   0.241223 0.416603 0.395094 0.337224
C17   C     C_R   0.208838 0.482236 0.491473 0.191822
C18   C     C_R   0.761742 0.479058 0.373172 -0.096719
C19   C     C_R   0.702514 0.482141 0.374741 -0.217139
C20   C     C_R   0.673006 0.498247 0.498066 -0.044663
C21   C     C_R   0.703464 0.511777 0.619616 -0.221670
C22   C     C_R   0.762769 0.509284 0.617597 -0.095667
C23   C     C_R   0.498702 0.739936 0.500255 0.892457
C24   C     C_R   0.791859 0.492721 0.494444 0.313410
C25   C     C_R   0.504417 0.063879 0.621544 0.126985
C26   C     C_R   0.492044 0.128258 0.502612 -0.103588
C27   C     C_R   0.470214 0.064333 0.389779 -0.212717
C28   C     C_R   0.470239 0.934706 0.389606 -0.199803
C29   C     C_R   0.491695 0.871398 0.502835 -0.100984
C30   C     C_R   0.504079 0.936214 0.621713 0.154997
C31   C     C_3   0.555831 0.928603 0.709479 -0.487770
C32   C     C_3   0.556446 0.070527 0.708812 -0.474460
C33   C     C_R   0.456182 0.445377 0.071738 0.222213
C34   C     C_R   0.610732 0.499933 0.499544 0.871934
C35   C     C_R   0.540275 0.564210 0.071628 -0.129325
C36   C     C_R   0.540250 0.564311 0.927478 -0.126654
C37   C     C_R   0.456203 0.445402 0.929170 0.171456
C38   C     C_3   0.438382 0.311601 0.922675 -0.488990
C39   C     C_3   0.438941 0.311017 0.076805 -0.509042
C40   C     C_R   0.881661 0.585372 0.429795 0.505270
C41   C     C_R   0.880252 0.391772 0.551844 0.506750
C42   C     C_R   0.939875 0.387181 0.551010 -0.016296
C43   C     C_R   0.970502 0.484451 0.486948 -0.016704
C44   C     C_R   0.941280 0.584307 0.425185 -0.015823
H1    H     H_    0.946717 0.212344 0.662057 0.195324
H2    H     H_    0.679935 0.471101 0.279739 0.162886
H3    H     H_    0.681579 0.524666 0.715841 0.159083
H4    H     H_    0.786207 0.520361 0.711382 0.145552
H5    H     H_    0.455902 0.113572 0.300438 0.163165
H6    H     H_    0.456392 0.884874 0.299615 0.172618
H7    H     H_    0.545899 0.888190 0.810911 0.207830
H8    H     H_    0.593143 0.886209 0.656301 0.203011
H9    H     H_    0.547426 0.111828 0.810284 0.203001
H10   H     H_    0.594017 0.111032 0.654798 0.210056
H11   H     H_    0.573411 0.613952 0.125772 0.150227
H12   H     H_    0.050486 0.209032 0.660177 0.197578
H13   H     H_    0.573343 0.614213 0.872642 0.143855
H14   H     H_    0.394916 0.300025 0.879675 0.201161
H15   H     H_    0.471544 0.250484 0.876560 0.219535
H16   H     H_    0.395886 0.298049 0.122891 0.204400
H17   H     H_    0.473049 0.250514 0.118868 0.213610
H18   H     H_    0.054291 0.753933 0.309351 0.198619
H19   H     H_    0.950562 0.758106 0.312867 0.195778
H20   H     H_    0.209541 0.607266 0.662800 0.162770
H21   H     H_    0.325322 0.373493 0.324124 0.192710
H22   H     H_    0.784351 0.465834 0.277961 0.146020
N1    N     N_R   0.852668 0.490005 0.492266 -0.358850
N2    N     N_R   0.148210 0.480101 0.485923 -0.336877
N3    N     N_R   0.499610 0.499140 0.142800 -0.107356
N4    N     N_R   0.499610 0.499180 0.857150 -0.106048
O1    O     O_R   0.500010 0.316790 0.614690 -0.619064
O2    O     O_2   0.849944 0.298686 0.610751 -0.553042
O3    O     O_2   0.148557 0.291486 0.609064 -0.529002
O4    O     O_2   0.151119 0.668368 0.362233 -0.539987
O5    O     O_R   0.500000 0.316760 0.385350 -0.623412
O6    O     O_R   0.416160 0.499980 0.614700 -0.612390
O7    O     O_R   0.416150 0.499940 0.385360 -0.623583
O8    O     O_R   0.500000 0.683240 0.614650 -0.612940
O9    O     O_R   0.499990 0.683210 0.385310 -0.624716
O10   O     O_R   0.583850 0.500060 0.614640 -0.624930
O11   O     O_R   0.583840 0.500020 0.385300 -0.622103
O12   O     O_2   0.852753 0.681202 0.373402 -0.553782
Zn1   Zn    Zn3+2 0.500000 0.500020 0.653130 0.951337
Zn2   Zn    Zn3+2 0.500000 0.499980 0.346870 0.947741
O13   O     O_3   0.320097 0.638476 0.692220 -0.629091
C45   C     C_3   0.328512 0.575711 0.817085 0.113650
H23   H     H_    0.370613 0.606535 0.856331 0.175667
H24   H     H_    0.330343 0.471496 0.807579 0.124836
C46   C     C_3   0.282735 0.612972 0.921097 -0.372445
H25   H     H_    0.279620 0.716739 0.926241 0.251715
H26   H     H_    0.240691 0.574699 0.889805 0.230999
C47   C     C_3   0.296969 0.562567 0.061942 -0.860512
H27   H     H_    0.300306 0.458815 0.059222 0.272745
H28   H     H_    0.262694 0.589169 0.134830 0.302484
H29   H     H_    0.338027 0.602497 0.098140 0.252005
Br1   Br    Br    0.205688 0.319376 0.255135 -0.475765

loop_
_geom_bond_atom_site_label_1
_geom_bond_atom_site_label_2
_ccdc_geom_bond_type
C22   H4    S    
C10   O4    S    
C41   C42   A    
C19   C20   A    
C31   H8    S    
C19   H2    S    
C7    C8    A    
C41   N1    A    
O13   C45   S    
C26   C27   A    
C29   C30   A    
C18   C24   A    
C23   C29   S    
C21   C22   A    
C28   C29   A    
O9    Zn2   S    
C45   H24   S    
O5    Zn2   S    
C15   C16   A    
C15   H21   S    
C18   C19   A    
C24   N1    S    
C34   O10   A    
C38   H14   S    
C28   H6    S    
O8    Zn1   S    
C33   C39   S    
C35   C36   A    
C16   C17   A    
C40   N1    A    
C34   O11   A    
C46   H26   S    
C33   N3    A    
C20   C34   S    
C25   C32   S    
C5    C43   A    
C13   C14   A    
C9    O3    S    
O10   Zn1   S    
O6    Zn1   S    
C32   H10   S    
C36   N4    A    
O1    Zn1   S    
C2    H1    S    
C38   C39   S    
C39   H17   S    
C16   Br1   S    
C35   H11   S    
C1    O5    A    
C40   O12   S    
C36   H13   S    
C45   H23   S    
O7    Zn2   S    
C25   C26   A    
C47   H29   S    
C33   C37   A    
C43   C44   A    
C7    H18   S    
C37   C38   S    
C3    H12   S    
C31   C32   S    
C30   C31   S    
C12   O7    A    
C47   H28   S    
C1    O1    A    
C46   C47   S    
N4    Zn1   S    
C41   O2    S    
C12   C14   S    
C11   H20   S    
C12   O6    A    
C1    C26   S    
C22   C24   A    
C42   C43   A    
C3    C4    A    
C32   H9    S    
O11   Zn2   S    
C25   C30   A    
C11   C17   A    
C17   N2    S    
C8    C44   A    
C31   H7    S    
C4    C5    A    
C45   C46   S    
C6    C10   A    
C6    C7    A    
C10   N2    A    
C18   H22   S    
C2    C3    A    
C4    C9    A    
C9    N2    A    
N3    Zn2   S    
C11   C13   A    
C5    C6    A    
C2    C42   A    
C39   H16   S    
C47   H27   S    
C23   O8    A    
C8    H19   S    
C38   H15   S    
C40   C44   A    
C20   C21   A    
C35   N3    A    
C13   O13   S    
C27   C28   A    
C14   C15   A    
C23   O9    A    
C46   H25   S    
C37   N4    A    
C27   H5    S    
C21   H3    S    
