data_mof_unit_49861.cif
_audit_creation_date              2012-12-10T18:42:34-0500
_audit_creation_method            fapswitch 2.2
_symmetry_space_group_name_H-M    P1
_symmetry_Int_Tables_number       1
_space_group_crystal_system       triclinic
_cell_length_a                    8.65573
_cell_length_b                    10.719771
_cell_length_c                    9.974093
_cell_angle_alpha                 90.125054
_cell_angle_beta                  98.764392
_cell_angle_gamma                 93.12753
_cell_volume                      913.25013406

loop_
_atom_site_label
_atom_site_type_symbol
_atom_type_description
_atom_site_fract_x
_atom_site_fract_y
_atom_site_fract_z
_atom_type_partial_charge
C1    C     C_R   0.500768 0.260304 0.499990 0.915657
C2    C     C_R   0.493758 0.063808 0.621192 -0.146692
C3    C     C_R   0.498382 0.872350 0.499844 -0.028611
C4    C     C_R   0.501612 0.127650 0.500155 -0.028626
C5    C     C_R   0.599395 0.580765 0.085042 0.149090
C6    C     C_R   0.400603 0.419237 0.914957 0.149079
C7    C     C_R   0.598364 0.581363 0.941678 0.151756
C8    C     C_R   0.401633 0.418639 0.058321 0.151760
C9    C     C_2   0.966128 0.392151 0.338042 0.483749
C10   C     C_2   0.033887 0.607889 0.661954 0.483668
C11   C     C_R   0.499230 0.739695 0.500010 0.915661
C12   C     C_R   0.201883 0.499377 0.464602 0.938907
C13   C     C_R   0.798115 0.500621 0.535396 0.939017
C14   C     C_2   0.037413 0.479676 0.449631 -0.225929
C15   C     C_2   0.962582 0.520321 0.550359 -0.225941
C16   C     C_R   0.508879 0.063990 0.379147 -0.109507
C17   C     C_R   0.491112 0.936010 0.620852 -0.109491
C18   C     C_R   0.506234 0.936191 0.378806 -0.146694
H1    H     H_    0.516631 0.112304 0.284966 0.193198
H2    H     H_    0.483359 0.887696 0.715032 0.193193
H3    H     H_    0.510629 0.888073 0.284046 0.189701
H4    H     H_    0.489361 0.111926 0.715952 0.189702
H5    H     H_    0.984727 0.411006 0.234862 0.104229
H6    H     H_    0.015370 0.589021 0.765161 0.104212
I1    I     I_    0.761242 0.706270 0.209779 -0.270077
I2    I     I_    0.238745 0.293741 0.790219 -0.270095
I3    I     I_    0.750179 0.713732 0.859507 -0.278882
I4    I     I_    0.249807 0.286279 0.140493 -0.278896
N1    N     N_R   0.499960 0.499970 0.857200 -0.142502
N2    N     N_R   0.500040 0.500030 0.142800 -0.142495
O1    O     O_R   0.499990 0.316750 0.614620 -0.613331
O2    O     O_2   0.110242 0.702339 0.638288 -0.543248
O3    O     O_R   0.500010 0.683250 0.385380 -0.613334
O4    O     O_R   0.499990 0.316780 0.385290 -0.594725
O5    O     O_R   0.500010 0.683220 0.614710 -0.594742
O6    O     O_R   0.271750 0.499990 0.587840 -0.579451
O7    O     O_R   0.728250 0.500010 0.412160 -0.579411
O8    O     O_R   0.271750 0.500010 0.358510 -0.622108
O9    O     O_R   0.728250 0.499990 0.641490 -0.622102
O10   O     O_2   0.889707 0.297753 0.361668 -0.543301
Zn1   Zn    Zn3+2 0.500000 0.499980 0.653120 1.028795
Zn2   Zn    Zn3+2 0.500000 0.500020 0.346880 1.028813

loop_
_geom_bond_atom_site_label_1
_geom_bond_atom_site_label_2
_ccdc_geom_bond_type
C4    C16   A    
C2    C4    A    
C9    C14   S    
C2    H4    S    
C7    N1    A    
C12   O6    A    
C18   H3    S    
C13   O7    A    
O4    Zn2   S    
C11   O3    A    
C1    C4    S    
C8    N2    A    
C17   H2    S    
C11   O5    A    
N1    Zn1   S    
O9    Zn1   S    
C2    C17   A    
O6    Zn1   S    
C6    I2    S    
C3    C18   A    
C16   H1    S    
C5    I1    S    
O3    Zn2   S    
C12   C14   S    
C1    O4    A    
C3    C17   A    
C10   C15   S    
C13   C15   S    
C12   O8    A    
O5    Zn1   S    
C13   O9    A    
C3    C11   S    
O8    Zn2   S    
C10   O2    D    
C1    O1    A    
C6    N1    A    
C7    I3    S    
C8    I4    S    
C16   C18   A    
C5    N2    A    
O7    Zn2   S    
C5    C7    A    
C14   C15   D    
C9    H5    S    
C6    C8    A    
O1    Zn1   S    
C10   H6    S    
C9    O10   D    
N2    Zn2   S    
