data_mof_unit_30848.cif
_audit_creation_date              2012-10-26T20:09:49-0400
_audit_creation_method            fapswitch 2.2
_symmetry_space_group_name_H-M    P1
_symmetry_Int_Tables_number       1
_space_group_crystal_system       triclinic
_cell_length_a                    10.732623
_cell_length_b                    9.556099
_cell_length_c                    15.849693
_cell_angle_alpha                 88.310557
_cell_angle_beta                  93.700482
_cell_angle_gamma                 90.455966
_cell_volume                      1621.45210805

loop_
_atom_site_label
_atom_site_type_symbol
_atom_type_description
_atom_site_fract_x
_atom_site_fract_y
_atom_site_fract_z
_atom_type_partial_charge
C1    C     C_R   0.260010 0.499907 0.498442 0.549365
C2    C     C_3   0.935389 0.418062 0.575320 -0.237034
C3    C     C_3   0.063843 0.426264 0.417938 -0.235167
C4    C     C_3   0.121815 0.500304 0.497284 0.055889
C5    C     C_3   0.877811 0.500565 0.496710 0.057614
C6    C     C_R   0.499342 0.501791 0.340586 0.551976
C7    C     C_3   0.919433 0.429442 0.416510 -0.230236
C8    C     C_3   0.605166 0.082179 0.560265 0.041437
C9    C     C_3   0.617117 0.916018 0.549151 0.027104
C10   C     C_3   0.381152 0.080121 0.529049 -0.105807
C11   C     C_3   0.389654 0.915331 0.540715 -0.101693
C12   C     C_3   0.627503 0.477460 0.957585 -0.218990
C13   C     C_3   0.514869 0.086223 0.416258 -0.126066
C14   C     C_3   0.500170 0.920853 0.414983 -0.126946
C15   C     C_R   0.739599 0.500413 0.498377 0.534760
C16   C     C_R   0.498542 0.498570 0.659450 0.539741
C17   C     C_3   0.448842 0.650124 0.042157 -0.077405
C18   C     C_3   0.398837 0.390181 0.046910 -0.088288
C19   C     C_3   0.408551 0.382479 0.949259 -0.212014
C20   C     C_3   0.445614 0.644001 0.943712 -0.194487
C21   C     C_1   0.496552 0.496653 0.749040 -0.057542
C22   C     C_3   0.493303 0.504827 0.082770 0.092431
C23   C     C_3   0.625897 0.472148 0.055121 -0.204814
C24   C     C_3   0.494025 0.500711 0.916692 0.055322
C25   C     C_3   0.599511 0.124463 0.655947 -0.194230
C26   C     C_3   0.710560 0.217992 0.688261 -0.282785
C27   C     C_3   0.717046 0.228694 0.784437 -0.474861
C28   C     C_3   0.667384 0.831487 0.631998 -0.234824
C29   C     C_3   0.796094 0.876781 0.672484 -0.365061
C30   C     C_3   0.856061 0.761928 0.730727 -0.478089
C31   C     C_3   0.410637 0.242028 0.091254 -0.260691
C32   C     C_3   0.316886 0.218354 0.159877 -0.302311
C33   C     C_3   0.326235 0.070153 0.198389 -0.463581
C34   C     C_1   0.495202 0.498041 0.824566 -0.094687
C35   C     C_3   0.513080 0.784323 0.079924 -0.254152
C36   C     C_3   0.631812 0.839776 0.039864 -0.290059
C37   C     C_3   0.705548 0.938114 0.098965 -0.466168
C38   C     C_1   0.495197 0.506097 0.175201 -0.088520
C39   C     C_1   0.497567 0.505588 0.250888 -0.069107
C40   C     C_3   0.072052 0.652723 0.495698 -0.233161
C41   C     C_3   0.078943 0.423378 0.577725 -0.229940
C42   C     C_3   0.929636 0.652538 0.496214 -0.236750
Cu1   Cu    Cu3+1 0.499860 0.642410 0.500040 0.853076
Cu2   Cu    Cu3+1 0.499860 0.357590 0.500040 0.858519
H1    H     H_    0.889795 0.712685 0.439679 0.115157
H2    H     H_    0.665781 0.377403 0.936705 0.107763
H3    H     H_    0.111925 0.709184 0.551806 0.115476
H4    H     H_    0.115842 0.478511 0.635086 0.106672
H5    H     H_    0.347876 0.658905 0.917105 0.089725
H6    H     H_    0.313528 0.391197 0.916991 0.095631
H7    H     H_    0.095521 0.479086 0.359506 0.100656
H8    H     H_    0.095609 0.315649 0.418247 0.114286
H9    H     H_    0.623831 0.252816 0.806234 0.157505
H10   H     H_    0.748869 0.128535 0.815506 0.134893
H11   H     H_    0.783920 0.312629 0.804187 0.132412
H12   H     H_    0.905041 0.306820 0.572186 0.109460
H13   H     H_    0.800450 0.176380 0.669684 0.116294
H14   H     H_    0.705498 0.324484 0.659727 0.199263
H15   H     H_    0.509436 0.166450 0.671142 0.164278
H16   H     H_    0.594459 0.035867 0.700588 0.096804
H17   H     H_    0.793758 0.733418 0.782002 0.148489
H18   H     H_    0.874090 0.667177 0.695241 0.141177
H19   H     H_    0.946464 0.800218 0.759771 0.139471
H20   H     H_    0.860432 0.908400 0.623118 0.140116
H21   H     H_    0.786964 0.963977 0.714573 0.178179
H22   H     H_    0.597310 0.824371 0.680366 0.141130
H23   H     H_    0.881464 0.487617 0.358742 0.104915
H24   H     H_    0.685584 0.724166 0.618408 0.229388
H25   H     H_    0.693980 0.126961 0.538621 0.119748
H26   H     H_    0.695971 0.903602 0.507399 0.098528
H27   H     H_    0.351314 0.127046 0.587445 0.101276
H28   H     H_    0.392618 0.885858 0.609182 0.108152
H29   H     H_    0.443489 0.132451 0.370015 0.133479
H30   H     H_    0.412085 0.892834 0.378181 0.110980
H31   H     H_    0.607485 0.117389 0.393784 0.102809
H32   H     H_    0.577306 0.876856 0.380591 0.116302
H33   H     H_    0.349745 0.660570 0.058186 0.091708
H34   H     H_    0.882140 0.320568 0.413384 0.114840
H35   H     H_    0.302698 0.427767 0.055900 0.113400
H36   H     H_    0.294567 0.992815 0.150567 0.140814
H37   H     H_    0.423915 0.046604 0.221615 0.140168
H38   H     H_    0.265442 0.060011 0.252370 0.127115
H39   H     H_    0.334138 0.293762 0.211148 0.172626
H40   H     H_    0.220173 0.234323 0.131951 0.144168
H41   H     H_    0.392292 0.158886 0.044343 0.135333
H42   H     H_    0.506339 0.224863 0.119940 0.146684
H43   H     H_    0.646017 0.026276 0.115689 0.141400
H44   H     H_    0.739826 0.880524 0.157727 0.143957
H45   H     H_    0.303816 0.105763 0.480914 0.101578
H46   H     H_    0.787223 0.981361 0.067107 0.132715
H47   H     H_    0.694078 0.754413 0.024226 0.159624
H48   H     H_    0.605424 0.900096 0.980474 0.140768
H49   H     H_    0.443989 0.870592 0.072918 0.119399
H50   H     H_    0.532538 0.768319 0.149132 0.155544
H51   H     H_    0.447038 0.280386 0.931504 0.107851
H52   H     H_    0.500940 0.728990 0.914924 0.115539
H53   H     H_    0.100690 0.710891 0.438115 0.112970
H54   H     H_    0.116110 0.314791 0.582459 0.112937
H55   H     H_    0.902313 0.706629 0.552785 0.126032
H56   H     H_    0.302306 0.869943 0.511612 0.115531
H57   H     H_    0.902644 0.459882 0.634503 0.089674
H58   H     H_    0.695932 0.545735 0.083571 0.109620
H59   H     H_    0.656473 0.366869 0.079235 0.099185
H60   H     H_    0.690955 0.562396 0.936747 0.101818
N1    N     N_3   0.500250 0.143650 0.501830 -0.226844
N2    N     N_3   0.500250 0.856350 0.501830 -0.224136
O1    O     O_R   0.317570 0.620260 0.500050 -0.513028
O2    O     O_R   0.317570 0.379740 0.500050 -0.511855
O3    O     O_R   0.499890 0.620310 0.379470 -0.501480
O4    O     O_R   0.499890 0.379690 0.379470 -0.504471
O5    O     O_R   0.682190 0.620260 0.500020 -0.532499
O6    O     O_R   0.682190 0.379740 0.500020 -0.519722
O7    O     O_R   0.499870 0.620210 0.620600 -0.522669
O8    O     O_R   0.499870 0.379790 0.620600 -0.508480

loop_
_geom_bond_atom_site_label_1
_geom_bond_atom_site_label_2
_ccdc_geom_bond_type
C40   H3    S    
C5    C42   S    
C16   C21   S    
C31   H41   S    
C37   H44   S    
C35   C36   S    
C16   O7    A    
C27   H10   S    
Cu2   N1    S    
C12   C23   S    
C8    H25   S    
C20   H5    S    
C37   H46   S    
C14   H30   S    
C36   C37   S    
C28   H24   S    
C12   H60   S    
C3    C7    S    
C38   C39   T    
C27   H11   S    
C23   H58   S    
C4    C41   S    
C2    C41   S    
C22   C38   S    
C17   C20   S    
C18   C19   S    
C20   C24   S    
C23   H59   S    
C4    C40   S    
C10   H45   S    
C8    C9    S    
C25   H16   S    
C33   H38   S    
C10   H27   S    
C36   H48   S    
C40   C42   S    
C20   H52   S    
C29   H20   S    
Cu2   O8    S    
C31   H42   S    
C13   C14   S    
C8    N1    S    
C8    C25   S    
C6    O4    A    
Cu1   O5    S    
Cu2   O2    S    
C32   H40   S    
C13   H31   S    
C9    H26   S    
C13   N1    S    
C40   H53   S    
C5    C7    S    
C3    H7    S    
C11   H28   S    
C18   H35   S    
Cu1   O3    S    
C21   C34   T    
C2    H57   S    
C9    N2    S    
C24   C34   S    
C11   H56   S    
Cu1   N2    S    
C14   H32   S    
C28   H22   S    
Cu1   Cu2   S    
C29   C30   S    
C15   O5    A    
C35   H49   S    
C31   C32   S    
C11   N2    S    
C17   H33   S    
C26   C27   S    
Cu1   O1    S    
C26   H14   S    
C1    O1    A    
C7    H34   S    
C29   H21   S    
Cu2   O6    S    
C36   H47   S    
C12   H2    S    
C13   H29   S    
C30   H18   S    
C6    O3    A    
C2    C5    S    
C3    C4    S    
C19   H51   S    
C35   H50   S    
C6    C39   S    
C32   H39   S    
C28   C29   S    
C18   C22   S    
C15   O6    A    
C37   H43   S    
C22   C23   S    
C16   O8    A    
C3    H8    S    
C27   H9    S    
C33   H36   S    
C25   H15   S    
C12   C24   S    
C17   C22   S    
C1    C4    S    
C32   C33   S    
C19   C24   S    
C25   C26   S    
C2    H12   S    
C42   H55   S    
Cu1   O7    S    
C19   H6    S    
C41   H4    S    
C26   H13   S    
C5    C15   S    
C10   C11   S    
C1    O2    A    
C7    H23   S    
C14   N2    S    
C30   H17   S    
C41   H54   S    
C10   N1    S    
C18   C31   S    
C17   C35   S    
C30   H19   S    
C33   H37   S    
C42   H1    S    
C9    C28   S    
Cu2   O4    S    
