data_mof_unit_20424.cif
_audit_creation_date              2012-12-10T16:59:21-0500
_audit_creation_method            fapswitch 2.2
_symmetry_space_group_name_H-M    P1
_symmetry_Int_Tables_number       1
_space_group_crystal_system       triclinic
_cell_length_a                    7.734786
_cell_length_b                    8.559765
_cell_length_c                    27.521681
_cell_angle_alpha                 91.582172
_cell_angle_beta                  87.275558
_cell_angle_gamma                 93.926502
_cell_volume                      1815.27978768

loop_
_atom_site_label
_atom_site_type_symbol
_atom_type_description
_atom_site_fract_x
_atom_site_fract_y
_atom_site_fract_z
_atom_type_partial_charge
C1    C     C_R   0.545994 0.794832 0.498789 0.973450
C2    C     C_R   0.518380 0.745092 0.133728 -0.061739
C3    C     C_R   0.517369 0.527953 0.647256 -0.104618
C4    C     C_R   0.477121 0.487312 0.352661 -0.098826
C5    C     C_R   0.527005 0.766193 0.029918 0.011674
C6    C     C_R   0.344967 0.523274 0.978541 -0.007938
C7    C     C_R   0.299480 0.551984 0.027778 0.006681
C8    C     C_R   0.535859 0.766545 0.977430 -0.016801
C9    C     C_R   0.408159 0.658139 0.054369 0.055441
C10   C     C_R   0.453605 0.633815 0.952652 0.056955
C11   C     C_R   0.636614 0.862712 0.059352 -0.255956
C12   C     C_R   0.454012 0.205166 0.501243 0.972755
C13   C     C_R   0.297372 0.378233 0.956387 -0.227347
C14   C     C_R   0.616857 0.869249 0.110169 0.198474
C15   C     C_R   0.322941 0.349110 0.906474 0.151045
C16   C     C_R   0.505799 0.506931 0.594146 0.866438
C17   C     C_R   0.493315 0.491935 0.405838 0.864433
C18   C     C_R   0.623472 0.888013 0.948178 0.139474
C19   C     C_R   0.158403 0.468652 0.052697 0.144230
C20   C     C_2   0.570163 0.958434 0.498074 -0.378464
C21   C     C_2   0.429854 0.041566 0.502009 -0.377549
C22   C     C_R   0.579946 0.712576 0.823668 0.518452
C23   C     C_R   0.478045 0.610424 0.901787 -0.070751
C24   C     C_R   0.321565 0.493939 0.176591 0.510951
C25   C     C_R   0.434342 0.458150 0.826908 0.499299
C26   C     C_R   0.534720 0.707859 0.183113 0.501030
C27   C     C_R   0.359878 0.530544 0.725382 -0.100467
C28   C     C_R   0.615334 0.532624 0.272876 -0.100210
C29   C     C_R   0.362566 0.504810 0.675580 -0.245166
C30   C     C_R   0.627669 0.509632 0.322410 -0.261015
C31   C     C_R   0.673668 0.580131 0.670077 0.123038
C32   C     C_R   0.312208 0.476288 0.331466 0.142531
C33   C     C_R   0.669940 0.591769 0.721240 -0.088530
C34   C     C_R   0.407028 0.645617 0.105600 -0.082990
C35   C     C_R   0.302982 0.526687 0.283946 -0.106625
C36   C     C_R   0.513908 0.569259 0.748755 0.262854
C37   C     C_R   0.452829 0.549373 0.253782 0.256348
C38   C     C_3   0.839287 0.627242 0.640161 -0.398216
C39   C     C_3   0.979536 0.724280 0.667282 -0.868954
C40   C     C_3   0.146424 0.408236 0.357278 -0.420965
C41   C     C_3   0.043407 0.288536 0.325620 -0.827978
C42   C     C_3   0.699592 0.013189 0.136243 -0.334998
C43   C     C_3   0.644236 0.165652 0.115733 -0.908941
C44   C     C_3   0.255532 0.190859 0.884286 -0.311489
C45   C     C_R   0.569770 0.727559 0.874485 -0.065932
C46   C     C_3   0.191224 0.062532 0.919783 -0.955176
C47   C     C_3   0.684566 0.050352 0.968339 -0.444411
C48   C     C_3   0.701477 0.184972 0.932480 -0.886085
C49   C     C_3   0.991079 0.413608 0.028743 -0.454089
C50   C     C_3   0.838997 0.502157 0.049923 -0.839822
C51   C     C_R   0.299067 0.527449 0.128252 -0.048663
C52   C     C_R   0.643309 0.861443 0.897688 -0.144151
C53   C     C_R   0.168605 0.446551 0.102349 -0.164916
C54   C     C_R   0.409958 0.470528 0.878112 -0.080580
H1    H     H_    0.012096 0.378791 0.464597 0.183774
H2    H     H_    0.237753 0.515255 0.746191 0.153878
H3    H     H_    0.746558 0.929887 0.044702 0.147754
H4    H     H_    0.241483 0.286117 0.979238 0.172839
H5    H     H_    0.702517 0.009888 0.494297 0.179579
H6    H     H_    0.297501 0.990110 0.505794 0.179516
H7    H     H_    0.925590 0.830163 0.684703 0.286023
H8    H     H_    0.034503 0.653608 0.695156 0.249570
H9    H     H_    0.086856 0.762431 0.641098 0.258694
H10   H     H_    0.895993 0.520180 0.624440 0.225265
H11   H     H_    0.805161 0.701558 0.610032 0.214689
H12   H     H_    0.987769 0.620805 0.535550 0.185912
H13   H     H_    0.985096 0.345639 0.295236 0.263114
H14   H     H_    0.128570 0.197666 0.310692 0.284125
H15   H     H_    0.935794 0.230313 0.348066 0.246644
H16   H     H_    0.176274 0.341983 0.389458 0.221496
H17   H     H_    0.063356 0.504447 0.369058 0.213884
H18   H     H_    0.697345 0.181954 0.077984 0.257403
H19   H     H_    0.500463 0.165388 0.116217 0.284554
H20   H     H_    0.694050 0.266562 0.138469 0.257573
H21   H     H_    0.659084 0.021086 0.175125 0.274299
H22   H     H_    0.843180 0.011302 0.132884 0.210789
H23   H     H_    0.787051 0.619286 0.740477 0.164826
H24   H     H_    0.076876 0.098144 0.941872 0.257261
H25   H     H_    0.295551 0.036177 0.944029 0.279655
H26   H     H_    0.152230 0.953628 0.899053 0.273555
H27   H     H_    0.147741 0.211182 0.860422 0.238152
H28   H     H_    0.361182 0.138770 0.862008 0.260540
H29   H     H_    0.822506 0.181178 0.909293 0.258433
H30   H     H_    0.590965 0.178702 0.908774 0.282716
H31   H     H_    0.705634 0.299116 0.952700 0.261967
H32   H     H_    0.590943 0.085704 0.997797 0.228546
H33   H     H_    0.816042 0.045253 0.982066 0.200263
H34   H     H_    0.177740 0.541012 0.269339 0.162797
H35   H     H_    0.818257 0.484318 0.089586 0.259369
H36   H     H_    0.718550 0.460432 0.031810 0.252222
H37   H     H_    0.865125 0.629148 0.043518 0.270342
H38   H     H_    0.997584 0.435790 0.989198 0.231315
H39   H     H_    0.964164 0.285792 0.033789 0.201599
H40   H     H_    0.716016 0.947612 0.875563 0.210269
H41   H     H_    0.071303 0.369353 0.120832 0.190529
H42   H     H_    0.755075 0.512375 0.337159 0.177902
H43   H     H_    0.241664 0.467519 0.659110 0.180073
H44   H     H_    0.732833 0.543579 0.249882 0.170535
N1    N     N_R   0.511302 0.580237 0.801016 -0.337497
N2    N     N_R   0.437264 0.584058 0.203311 -0.337290
N3    N     N_2   0.950320 0.457960 0.486880 -0.177343
N4    N     N_2   0.049680 0.542040 0.513120 -0.177296
O1    O     O_R   0.389250 0.738570 0.503220 -0.608449
O2    O     O_2   0.232547 0.367964 0.196250 -0.585011
O3    O     O_2   0.652419 0.788443 0.210228 -0.598504
O4    O     O_2   0.381488 0.326352 0.802443 -0.588029
O5    O     O_R   0.610750 0.261430 0.496780 -0.608841
O6    O     O_R   0.678390 0.711630 0.494810 -0.632019
O7    O     O_R   0.321610 0.288370 0.505190 -0.632339
O8    O     O_R   0.355440 0.513440 0.575450 -0.613013
O9    O     O_R   0.644560 0.486560 0.424550 -0.612396
O10   O     O_R   0.644590 0.486500 0.567040 -0.636017
O11   O     O_R   0.355410 0.513500 0.432960 -0.634132
O12   O     O_2   0.653527 0.831569 0.796972 -0.572282
Zn1   Zn    Zn3+2 0.306940 0.517990 0.505620 0.935921
Zn2   Zn    Zn3+2 0.693060 0.482010 0.494380 0.935102

loop_
_geom_bond_atom_site_label_1
_geom_bond_atom_site_label_2
_ccdc_geom_bond_type
C43   H19   S    
C43   H18   S    
C23   C45   A    
C40   H17   S    
C53   H41   S    
H12   N4    S    
C33   H23   S    
C18   C47   S    
C17   O11   A    
C41   H13   S    
C42   H21   S    
N3    N4    D    
C40   H16   S    
C35   C37   A    
C15   C44   S    
C5    C11   A    
C44   H28   S    
C46   H25   S    
C11   C14   A    
C27   C29   A    
C33   C36   A    
C3    C29   A    
C30   H42   S    
N4    Zn1   S    
C25   N1    A    
C44   C46   S    
C31   C33   A    
C52   H40   S    
O9    Zn2   S    
C1    O1    A    
C14   C42   S    
C2    C34   A    
C24   C51   A    
C17   O9    A    
C26   O3    S    
C12   O7    A    
C50   H36   S    
C25   O4    S    
C41   H14   S    
C38   H10   S    
C39   H7    S    
C16   O8    A    
C32   C35   A    
C25   C54   A    
C21   H6    S    
C44   H27   S    
C46   H24   S    
C27   H2    S    
C13   H4    S    
C45   C52   A    
C12   C21   S    
C8    C18   A    
C48   H30   S    
C24   O2    S    
C47   H33   S    
C18   C52   A    
O1    Zn1   S    
C15   C54   A    
C5    C9    A    
C12   O5    A    
C35   H34   S    
C19   C49   S    
C50   H35   S    
C47   C48   S    
C38   H11   S    
C34   C51   A    
C2    C26   A    
C20   H5    S    
C3    C31   A    
C4    C32   A    
C4    C17   S    
C40   C41   S    
C7    C19   A    
C13   C15   A    
C9    C34   A    
C10   C23   A    
C42   C43   S    
C49   H38   S    
O10   Zn2   S    
C16   O10   A    
C23   C54   A    
C41   H15   S    
C28   H44   S    
C7    C9    A    
C39   H8    S    
C1    C20   S    
C22   N1    A    
C24   N2    A    
C6    C10   A    
C5    C8    A    
C48   H29   S    
C6    C7    A    
C27   C36   A    
C39   H9    S    
H1    N3    S    
C42   H22   S    
C31   C38   S    
C29   H43   S    
C49   H39   S    
O6    Zn2   S    
C28   C30   A    
C47   H32   S    
C6    C13   A    
C46   H26   S    
C19   C53   A    
C38   C39   S    
C28   C37   A    
C43   H20   S    
C36   N1    S    
C32   C40   S    
C2    C14   A    
O5    Zn2   S    
O7    Zn1   S    
C1    O6    A    
C50   H37   S    
C22   O12   S    
C22   C45   A    
C20   C21   D    
C8    C10   A    
C49   C50   S    
N3    Zn2   S    
C48   H31   S    
C51   C53   A    
C11   H3    S    
O8    Zn1   S    
C37   N2    S    
C4    C30   A    
C3    C16   S    
C26   N2    A    
O11   Zn1   S    
