data_mof_unit_20873.cif
_audit_creation_date              2012-12-10T18:47:49-0500
_audit_creation_method            fapswitch 2.2
_symmetry_space_group_name_H-M    P1
_symmetry_Int_Tables_number       1
_space_group_crystal_system       triclinic
_cell_length_a                    9.854576
_cell_length_b                    10.652809
_cell_length_c                    15.584792
_cell_angle_alpha                 89.846317
_cell_angle_beta                  66.985612
_cell_angle_gamma                 89.791487
_cell_volume                      1505.84262102

loop_
_atom_site_label
_atom_site_type_symbol
_atom_type_description
_atom_site_fract_x
_atom_site_fract_y
_atom_site_fract_z
_atom_type_partial_charge
Br1   Br    Br    0.941537 0.590755 0.213013 -0.514234
Br2   Br    Br    0.071189 0.377400 0.778851 -0.519725
C1    C     C_R   0.501437 0.739702 0.497217 0.876606
C2    C     C_R   0.379181 0.932602 0.559851 -0.213996
C3    C     C_R   0.499249 0.127740 0.504158 -0.239761
C4    C     C_R   0.501640 0.872064 0.494618 -0.238614
C5    C     C_R   0.966541 0.427779 0.438183 -0.019814
C6    C     C_R   0.033423 0.572127 0.561879 -0.025150
C7    C     C_R   0.110271 0.427722 0.438248 -0.027868
C8    C     C_R   0.889698 0.572200 0.561802 -0.035136
C9    C     C_R   0.406838 0.498326 0.676261 0.886388
C10   C     C_R   0.593132 0.500547 0.323612 0.885913
C11   C     C_R   0.346813 0.485746 0.777870 -0.129384
C12   C     C_R   0.499034 0.260210 0.502095 0.877453
C13   C     C_R   0.653506 0.501285 0.221371 -0.131223
C14   C     C_R   0.177588 0.397480 0.923437 -0.230259
C15   C     C_R   0.836172 0.555392 0.069304 -0.229425
C16   C     C_R   0.211186 0.427047 0.830142 0.248183
C17   C     C_R   0.796953 0.542452 0.165057 0.261934
C18   C     C_R   0.441028 0.519187 0.821206 -0.279184
C19   C     C_R   0.556744 0.466722 0.179884 -0.283498
C20   C     C_R   0.416735 0.477871 0.911090 0.103583
C21   C     C_R   0.593113 0.481174 0.084413 0.100369
C22   C     C_R   0.280477 0.419300 0.963378 0.113525
C23   C     C_R   0.351842 0.398027 0.093754 -0.183021
C24   C     C_R   0.734333 0.529205 0.029339 0.109045
C25   C     C_R   0.525128 0.491570 0.949420 0.072086
C26   C     C_R   0.489550 0.456486 0.043652 0.077419
C27   C     C_R   0.669361 0.535456 0.895808 -0.181629
C28   C     C_R   0.249774 0.379999 0.054059 -0.158668
C29   C     C_R   0.771551 0.553572 0.935343 -0.157657
C30   C     C_R   0.623614 0.938619 0.432047 0.460577
C31   C     C_R   0.377495 0.061069 0.566700 0.459666
C32   C     C_R   0.621700 0.067239 0.438789 -0.214221
H1    H     H_    0.146427 0.333876 0.094525 0.164778
H2    H     H_    0.287240 0.879425 0.608246 0.183401
H3    H     H_    0.942903 0.370073 0.388716 0.137862
H4    H     H_    0.057030 0.629745 0.611400 0.134317
H5    H     H_    0.195283 0.369767 0.388847 0.125113
H6    H     H_    0.804655 0.630082 0.611248 0.126680
H7    H     H_    0.716174 0.797899 0.350053 0.354181
H8    H     H_    0.287453 0.200379 0.650049 0.357236
H9    H     H_    0.879607 0.589738 0.892336 0.173296
H10   H     H_    0.449078 0.435097 0.225079 0.167160
H11   H     H_    0.536045 0.574707 0.781425 0.157105
H12   H     H_    0.073682 0.351994 0.963551 0.178708
H13   H     H_    0.944842 0.590578 0.026481 0.177875
H14   H     H_    0.320265 0.360789 0.163104 0.141667
H15   H     H_    0.708903 0.554389 0.822172 0.151658
H16   H     H_    0.713606 0.120526 0.390482 0.182944
N1    N     N_R   0.142780 0.500030 0.500020 -0.077168
N2    N     N_R   0.857220 0.499970 0.499980 -0.078110
O1    O     O_R   0.385370 0.683250 0.500010 -0.613781
O2    O     O_3   0.258303 0.116563 0.636209 -0.713968
O3    O     O_R   0.614630 0.316750 0.499990 -0.614145
O4    O     O_R   0.614700 0.683220 0.500000 -0.596939
O5    O     O_R   0.385300 0.316780 0.500000 -0.593993
O6    O     O_R   0.319830 0.500020 0.632250 -0.580039
O7    O     O_R   0.680170 0.499980 0.367750 -0.579097
O8    O     O_R   0.549160 0.499990 0.632240 -0.621869
O9    O     O_R   0.450840 0.500010 0.367760 -0.624298
O10   O     O_3   0.743378 0.883031 0.362854 -0.720966
Zn1   Zn    Zn3+2 0.346870 0.500020 0.500000 0.990188
Zn2   Zn    Zn3+2 0.653130 0.499980 0.500000 0.989926

loop_
_geom_bond_atom_site_label_1
_geom_bond_atom_site_label_2
_ccdc_geom_bond_type
C4    C30   A    
C2    H2    S    
O3    Zn2   S    
C25   C27   A    
C19   H10   S    
O1    Zn1   S    
C1    O4    A    
C18   H11   S    
C7    N1    A    
C10   C13   S    
C7    H5    S    
O8    Zn2   S    
C1    C4    S    
C8    N2    A    
C3    C32   A    
O4    Zn2   S    
C12   O3    A    
C5    H3    S    
C30   O10   S    
C24   C29   A    
C14   C22   A    
C27   H15   S    
C21   C26   A    
H8    O2    S    
C23   C26   A    
C13   C17   A    
C10   O9    A    
C9    C11   S    
C23   H14   S    
C1    O1    A    
O7    Zn2   S    
C29   H9    S    
H7    O10   S    
C15   C24   A    
C28   H1    S    
C2    C4    A    
C15   C17   A    
C18   C20   A    
C5    N2    A    
O5    Zn1   S    
C22   C28   A    
C20   C25   A    
C6    H4    S    
C19   C21   A    
C20   C22   A    
C32   H16   S    
Br1   C17   S    
C9    O8    A    
C9    O6    A    
C5    C7    A    
C13   C19   A    
N1    Zn1   S    
C14   C16   A    
N2    Zn2   S    
C21   C24   A    
C14   H12   S    
O6    Zn1   S    
O9    Zn1   S    
C12   O5    A    
C2    C31   A    
C23   C28   A    
C8    H6    S    
C31   O2    S    
C6    N1    A    
C11   C18   A    
C11   C16   A    
C27   C29   A    
C10   O7    A    
C3    C12   S    
C6    C8    A    
C15   H13   S    
C30   C32   A    
Br2   C16   S    
C25   C26   A    
C3    C31   A    
