data_mof_unit_53469.cif
_audit_creation_date              2012-12-11T15:55:39-0500
_audit_creation_method            fapswitch 2.2
_symmetry_space_group_name_H-M    P1
_symmetry_Int_Tables_number       1
_space_group_crystal_system       triclinic
_cell_length_a                    11.115036
_cell_length_b                    11.099071
_cell_length_c                    18.712617
_cell_angle_alpha                 90.218178
_cell_angle_beta                  90.33868
_cell_angle_gamma                 59.548883
_cell_volume                      1990.04402608

loop_
_atom_site_label
_atom_site_type_symbol
_atom_type_description
_atom_site_fract_x
_atom_site_fract_y
_atom_site_fract_z
_atom_type_partial_charge
C1    C     C_R   0.387365 0.708786 0.390105 0.545673
C2    C     C_R   0.615321 0.156059 0.157714 0.047564
C3    C     C_R   0.354077 0.336022 0.162157 0.003599
C4    C     C_R   0.488912 0.262803 0.270550 -0.170710
C5    C     C_R   0.485326 0.258101 0.196465 -0.036467
C6    C     C_R   0.024746 0.663614 0.290046 -0.165692
C7    C     C_R   0.908569 0.763059 0.327220 -0.177024
C8    C     C_R   0.692871 0.015995 0.180349 -0.139662
C9    C     C_R   0.794031 0.912854 0.136533 -0.136331
C10   C     C_R   0.234390 0.425246 0.202530 -0.137609
C11   C     C_R   0.237044 0.426737 0.277040 0.006253
C12   C     C_R   0.388812 0.355795 0.387090 0.597183
C13   C     C_R   0.873409 0.730472 0.392392 -0.139402
C14   C     C_R   0.952072 0.594802 0.420283 0.266931
C15   C     C_R   0.063153 0.489385 0.379779 0.341566
C16   C     C_R   0.105331 0.526156 0.315931 0.039380
C17   C     C_R   0.367100 0.342617 0.311313 0.047997
C18   C     C_R   0.838106 0.344395 0.178587 0.048371
C19   C     C_R   0.846331 0.233815 0.218947 -0.028381
C20   C     C_R   0.825060 0.247380 0.291274 -0.011260
C21   C     C_R   0.764044 0.487977 0.284612 -0.158647
C22   C     C_R   0.781343 0.477545 0.210451 0.203919
C23   C     C_R   0.768886 0.384204 0.400922 0.562028
C24   C     C_3   0.957186 0.082535 0.227374 -0.237806
C25   C     C_3   0.932217 0.100260 0.307252 -0.261491
C26   C     C_R   0.798362 0.368682 0.325845 -0.008556
C27   C     C_R   0.364403 0.819558 0.170269 0.033618
C28   C     C_R   0.423744 0.866230 0.221158 -0.011201
C29   C     C_R   0.444648 0.819871 0.291049 -0.032355
C30   C     C_R   0.342861 0.679455 0.263324 -0.159424
C31   C     C_R   0.331466 0.718101 0.191326 -0.147774
C32   C     C_3   0.391593 0.009068 0.243696 -0.058034
C33   C     C_3   0.422272 0.954852 0.320274 -0.235085
C34   C     C_R   0.374529 0.701675 0.610467 0.531868
C35   C     C_R   0.390199 0.738102 0.314577 0.017806
C36   C     C_R   0.270596 0.279958 0.804136 -0.017770
C37   C     C_R   0.353468 0.166408 0.760355 -0.101496
C38   C     C_R   0.371516 0.184759 0.688204 -0.050660
C39   C     C_R   0.223999 0.434594 0.703562 -0.106254
C40   C     C_R   0.201559 0.414417 0.774647 -0.105244
C41   C     C_3   0.505349 0.067713 0.771855 -0.001944
C42   C     C_3   0.521956 0.069166 0.692181 0.136517
C43   C     C_R   0.314211 0.320745 0.660065 0.019860
C44   C     C_R   0.832827 0.330069 0.830634 -0.091692
C45   C     C_R   0.369190 0.349235 0.595328 0.554321
C46   C     C_R   0.866329 0.415430 0.791078 0.018513
C47   C     C_R   0.859130 0.420897 0.718102 -0.046065
C48   C     C_R   0.819731 0.226762 0.718040 0.212073
C49   C     C_R   0.802311 0.238183 0.793438 0.045118
C50   C     C_3   0.800761 0.569120 0.798934 0.130434
C51   C     C_3   0.788451 0.577626 0.718007 0.019550
C52   C     C_R   0.828182 0.332183 0.680023 -0.064085
C53   C     C_R   0.314512 0.825477 0.829130 0.078940
C54   C     C_R   0.278530 0.920138 0.773331 0.065494
C55   C     C_R   0.308384 0.878384 0.702818 0.052673
C56   C     C_R   0.765688 0.375399 0.609424 0.538957
C57   C     C_R   0.409486 0.638346 0.740757 -0.157820
C58   C     C_R   0.386346 0.681828 0.813083 -0.121306
C59   C     C_3   0.135866 0.029775 0.753806 0.059145
C60   C     C_3   0.174797 0.997045 0.676334 -0.186857
C61   C     C_R   0.362787 0.738807 0.685454 0.043716
C62   C     C_R   0.909009 0.316313 0.110853 0.601960
C63   C     C_R   0.328831 0.296113 0.091351 0.578759
C64   C     C_R   0.309541 0.894771 0.103543 0.573714
C65   C     C_R   0.881168 0.310846 0.905032 0.539245
C66   C     C_R   0.269399 0.255599 0.880319 0.544488
C67   C     C_R   0.826815 0.948741 0.070891 0.058044
C68   C     C_R   0.280868 0.885709 0.900857 0.500532
C69   C     C_R   0.757697 0.090087 0.050718 -0.065561
C70   C     C_R   0.653434 0.193079 0.093678 -0.083585
Cr1   Cr    Cr6+3 0.601740 0.606840 0.505840 1.017037
Cr2   Cr    Cr6+3 0.291500 0.601560 0.495070 1.048873
Cr3   Cr    Cr6+3 0.606780 0.291630 0.499130 1.035040
Cr4   Cr    Cr6+3 0.062440 0.063060 0.008240 1.052556
Cr5   Cr    Cr6+3 0.062950 0.375000 0.998920 1.102360
Cr6   Cr    Cr6+3 0.374550 0.061770 0.992470 1.094877
H1    H     H_    0.589682 0.203262 0.296557 0.141700
H2    H     H_    0.785862 0.811727 0.421646 0.101756
H3    H     H_    0.726870 0.588642 0.309852 0.137582
H4    H     H_    0.062346 0.057711 0.211696 0.201016
H5    H     H_    0.928761 0.009300 0.204110 0.147114
H6    H     H_    0.884032 0.042559 0.329483 0.135981
H7    H     H_    0.021986 0.090184 0.338635 0.192353
H8    H     H_    0.307517 0.610588 0.279967 0.122403
H9    H     H_    0.847348 0.805381 0.154500 0.164445
H10   H     H_    0.285187 0.678617 0.153701 0.138634
H11   H     H_    0.466555 0.033531 0.221462 0.121451
H12   H     H_    0.520756 0.944146 0.341696 0.118265
H13   H     H_    0.333400 0.003378 0.358184 0.208415
H14   H     H_    0.182343 0.541006 0.685274 0.176784
H15   H     H_    0.143559 0.505141 0.808163 0.210982
H16   H     H_    0.548403 0.123268 0.801592 0.178536
H17   H     H_    0.848232 0.867392 0.306689 0.111326
H18   H     H_    0.540279 0.974372 0.662494 0.200369
H19   H     H_    0.701211 0.612770 0.828815 0.136935
H20   H     H_    0.678568 0.627242 0.699467 0.137079
H21   H     H_    0.459454 0.528065 0.728027 0.081470
H22   H     H_    0.420164 0.605052 0.855415 0.117999
H23   H     H_    0.106080 0.137071 0.771390 0.104981
H24   H     H_    0.111020 0.963195 0.646137 0.196546
H25   H     H_    0.189820 0.077064 0.648910 0.108289
H26   H     H_    0.783604 0.120661 0.001438 0.200725
H27   H     H_    0.598177 0.300518 0.075502 0.110890
H28   H     H_    0.053765 0.695774 0.241699 0.122581
H29   H     H_    0.673744 0.984751 0.231404 0.083807
H30   H     H_    0.133904 0.485676 0.176353 0.176197
O1    O     O_R   0.748670 0.497520 0.427970 -0.503766
O2    O     O_R   0.300170 0.471020 0.567120 -0.494787
O3    O     O_R   0.491630 0.259030 0.574940 -0.464444
O4    O     O_R   0.718640 0.304340 0.577850 -0.494319
O5    O     O_3   0.500010 0.500010 0.500020 -0.320962
O6    O     O_R   0.186620 0.923750 0.087000 -0.517685
O7    O     O_R   0.957350 0.194160 0.084660 -0.516732
O8    O     O_R   0.935120 0.407280 0.085350 -0.430534
O9    O     O_R   0.203800 0.365060 0.067090 -0.485619
O10   O     O_R   0.417470 0.174910 0.067830 -0.482008
O11   O     O_R   0.375160 0.946380 0.070880 -0.467009
O12   O     O_R   0.476470 0.723930 0.429450 -0.503760
O13   O     O_R   0.160500 0.919670 0.926690 -0.484611
O14   O     O_R   0.933140 0.190380 0.936050 -0.516573
O15   O     O_R   0.909010 0.403210 0.925030 -0.479265
O16   O     O_R   0.179590 0.361290 0.918480 -0.494703
O17   O     O_R   0.391360 0.170840 0.907510 -0.463159
O18   O     O_R   0.350950 0.942600 0.922260 -0.504349
O19   O     O_3   0.166650 0.166610 0.999880 -0.279319
O20   O     O_R   0.264730 0.744140 0.416740 -0.504362
O21   O     O_R   0.309440 0.472410 0.418220 -0.502140
O22   O     O_R   0.501630 0.260530 0.414310 -0.530756
O23   O     O_R   0.727920 0.305730 0.428950 -0.508440
O24   O     O_R   0.738670 0.496020 0.588600 -0.497434
O25   O     O_R   0.467190 0.722540 0.578350 -0.498980
O26   O     O_R   0.254720 0.742640 0.577370 -0.512376
O27   O     O_3   0.925069 0.564006 0.487523 -0.642852
H31   H     H_    0.843525 0.648528 0.507746 0.342082
O28   O     O_3   0.136064 0.352283 0.402933 -0.667662
H32   H     H_    0.089948 0.340728 0.445296 0.368041
O29   O     O_3   0.753157 0.592697 0.169700 -0.675770
H33   H     H_    0.720409 0.675343 0.201279 0.316237
C71   C     C_2   0.245008 0.126042 0.230796 0.530635
O30   O     O_2   0.203870 0.162412 0.169789 -0.515834
O31   O     O_R   0.158427 0.198896 0.287883 -0.690792
H34   H     H_    0.067728 0.282834 0.271641 0.340780
C72   C     C_2   0.550089 0.929640 0.805169 0.578694
O32   O     O_2   0.557125 0.835037 0.769388 -0.601744
O33   O     O_R   0.594087 0.907041 0.876516 -0.672066
H35   H     H_    0.620118 0.810979 0.894611 0.322825
O34   O     O_3   0.619449 0.107627 0.675352 -0.585326
H36   H     H_    0.589264 0.200038 0.697782 0.335315
O35   O     O_3   0.838493 0.108098 0.684124 -0.561534
H37   H     H_    0.880092 0.100022 0.636516 0.334810
C73   C     C_2   0.757118 0.152914 0.833071 0.587407
O36   O     O_2   0.678141 0.204312 0.883757 -0.566065
O37   O     O_R   0.803167 0.014994 0.812742 -0.569781
H38   H     H_    0.779366 0.963381 0.849150 0.370169
O38   O     O_3   0.895399 0.604468 0.827710 -0.667740
H39   H     H_    0.843417 0.707338 0.833333 0.371857
C74   C     C_2   0.868771 0.634692 0.680668 0.615964
O39   O     O_2   0.954864 0.564946 0.635271 -0.494901
O40   O     O_R   0.839413 0.770356 0.695694 -0.633077
H40   H     H_    0.898813 0.797713 0.666856 0.369237
C75   C     C_2   0.932988 0.838746 0.024070 0.570929
O41   O     O_2   0.947647 0.866410 0.962747 -0.498913
O42   O     O_R   0.015922 0.702381 0.049684 -0.713645
H41   H     H_    0.084393 0.637105 0.012647 0.347137
O43   O     O_3   0.045655 0.983170 0.773496 -0.610832
H42   H     H_    0.027843 0.004830 0.824730 0.374588

loop_
_geom_bond_atom_site_label_1
_geom_bond_atom_site_label_2
_ccdc_geom_bond_type
C44   C49   A    
C7    C13   A    
C21   C26   A    
C74   O39   D    
Cr1   O1    S    
Cr5   O16   S    
C59   H23   S    
C41   C42   S    
O34   H36   S    
C58   H22   S    
C8    H29   S    
C68   O18   A    
C75   O41   D    
O28   H32   S    
C12   O21   A    
C53   C54   A    
Cr4   O13   S    
C22   O29   S    
C55   C60   S    
O43   H42   S    
C30   C35   A    
C21   C22   A    
C28   C29   A    
C33   H12   S    
C62   O8    A    
C68   O13   A    
O33   H35   S    
C30   C31   A    
C45   O3    A    
C50   H19   S    
C64   O6    A    
Cr4   O19   S    
Cr3   O4    S    
C20   C25   S    
C15   C16   A    
C29   C33   S    
C23   O23   A    
C18   C19   A    
C23   C26   S    
C57   C61   A    
C53   C68   S    
C9    H9    S    
C46   C47   A    
O31   H34   S    
C24   H4    S    
C11   C17   A    
Cr2   O2    S    
C8    C9    A    
Cr1   O5    S    
C12   C17   S    
C73   O36   D    
C66   O16   A    
Cr3   O5    S    
C65   O15   A    
C39   H14   S    
C59   O43   S    
C45   O2    A    
C51   H20   S    
C63   O9    A    
Cr2   O5    S    
C23   O1    A    
C59   C60   S    
C74   O40   S    
C31   H10   S    
C42   H18   S    
C48   O35   S    
C37   C41   S    
Cr6   O19   S    
C44   C65   S    
C42   O34   S    
C56   O4    A    
C75   O42   S    
C44   C46   A    
Cr2   O26   S    
C54   C59   S    
C7    H17   S    
Cr3   O23   S    
C49   C73   S    
Cr2   O21   S    
C27   C31   A    
Cr6   O18   S    
C36   C40   A    
C24   C25   S    
C32   C71   S    
C10   C11   A    
C39   C40   A    
C70   H27   S    
C18   C62   S    
C47   C51   S    
C3    C5    A    
C69   H26   S    
C32   H11   S    
C6    C16   A    
C51   C74   S    
C34   C61   S    
C64   O11   A    
Cr2   O20   S    
C67   C69   A    
C24   H5    S    
C9    C67   A    
C37   C38   A    
C33   H13   S    
C11   C16   S    
C67   C75   S    
O40   H40   S    
C14   C15   A    
C28   C32   S    
C50   O38   S    
C53   C58   A    
C57   H21   S    
C21   H3    S    
C50   C51   S    
Cr5   O8    S    
C1    O20   A    
Cr3   O3    S    
C43   C45   S    
C47   C52   A    
C62   O7    A    
C4    C17   A    
C48   C49   A    
C34   O25   A    
C6    H28   S    
O27   H31   S    
Cr4   O7    S    
C38   C43   A    
C10   H30   S    
C2    C5    S    
Cr5   O9    S    
C63   O10   A    
C60   H25   S    
O38   H39   S    
C1    C35   S    
C72   O33   S    
C46   C50   S    
C54   C55   A    
C36   C37   A    
Cr1   O12   S    
Cr5   O15   S    
Cr6   O17   S    
C2    C8    A    
C4    C5    A    
C60   H24   S    
C39   C43   A    
C71   O30   D    
C41   C72   S    
C6    C7    A    
C12   O22   A    
C14   O27   S    
C3    C63   S    
Cr3   O22   S    
Cr4   O14   S    
O29   H33   S    
C29   C35   A    
Cr6   O11   S    
C32   C33   S    
C19   C20   A    
C18   C22   A    
C19   C24   S    
C4    H1    S    
C3    C10   A    
C2    C70   A    
O35   H37   S    
Cr1   O24   S    
Cr4   O6    S    
C71   O31   S    
C57   C58   A    
C25   H6    S    
C20   C26   A    
C55   C61   A    
Cr6   O10   S    
C65   O14   A    
C36   C66   S    
C1    O12   A    
C73   O37   S    
C40   H15   S    
C30   H8    S    
C69   C70   A    
O42   H41   S    
C27   C64   S    
C13   H2    S    
Cr1   O25   S    
C34   O26   A    
C38   C42   S    
C52   C56   S    
C48   C52   A    
C41   H16   S    
C15   O28   S    
C27   C28   A    
C25   H7    S    
C66   O17   A    
Cr5   O19   S    
O37   H38   S    
C13   C14   A    
C56   O24   A    
C72   O32   D    
