data_mof_unit_48495.cif
_audit_creation_date              2012-12-10T18:02:55-0500
_audit_creation_method            fapswitch 2.2
_symmetry_space_group_name_H-M    P1
_symmetry_Int_Tables_number       1
_space_group_crystal_system       triclinic
_cell_length_a                    10.83471
_cell_length_b                    9.604105
_cell_length_c                    27.801206
_cell_angle_alpha                 89.978137
_cell_angle_beta                  92.444538
_cell_angle_gamma                 89.947661
_cell_volume                      2890.29524998

loop_
_atom_site_label
_atom_site_type_symbol
_atom_type_description
_atom_site_fract_x
_atom_site_fract_y
_atom_site_fract_z
_atom_type_partial_charge
C1    C     C_R   0.262366 0.500350 0.500535 0.780268
C2    C     C_R   0.737610 0.500306 0.499293 0.782111
C3    C     C_R   0.493835 0.518138 0.102213 -0.096571
C4    C     C_R   0.493362 0.525130 0.898131 -0.097074
C5    C     C_R   0.384607 0.546206 0.126648 -0.060785
C6    C     C_R   0.605690 0.521210 0.873987 -0.060551
C7    C     C_R   0.274554 0.576124 0.099414 0.272843
C8    C     C_R   0.718562 0.520693 0.901505 0.274658
C9    C     C_R   0.603870 0.486847 0.128988 0.001639
C10   C     C_R   0.380324 0.527931 0.871074 0.000649
C11   C     C_R   0.501973 0.501103 0.354976 -0.038812
C12   C     C_R   0.491496 0.501412 0.645154 -0.042367
C13   C     C_R   0.380265 0.537096 0.972975 0.073900
C14   C     C_R   0.605638 0.500042 0.027270 0.073810
C15   C     C_R   0.606591 0.512528 0.976371 0.005450
C16   C     C_R   0.381778 0.545047 0.024082 0.004651
C17   C     C_R   0.493497 0.525288 0.949304 0.065376
C18   C     C_R   0.493643 0.521145 0.051045 0.065047
C19   C     C_R   0.268874 0.538242 0.944570 -0.214141
C20   C     C_R   0.712990 0.464716 0.055306 -0.212843
C21   C     C_R   0.269181 0.533394 0.894710 -0.154307
C22   C     C_R   0.711768 0.458099 0.105097 -0.154871
C23   C     C_R   0.500395 0.500106 0.407675 0.795937
C24   C     C_R   0.497856 0.500098 0.592385 0.796848
C25   C     C_R   0.274786 0.576616 0.049175 -0.275602
C26   C     C_R   0.717606 0.514703 0.951666 -0.278820
C27   C     C_R   0.063620 0.376016 0.500444 -0.195256
C28   C     C_R   0.935962 0.628433 0.500357 -0.177247
C29   C     C_R   0.936298 0.376227 0.496750 -0.197804
C30   C     C_R   0.063967 0.628456 0.500871 -0.178535
C31   C     C_R   0.871536 0.501775 0.498495 -0.015366
C32   C     C_R   0.128398 0.501727 0.500941 -0.014350
C33   C     C_R   0.427333 0.074734 0.467182 0.251903
C34   C     C_R   0.572584 0.924856 0.532856 0.239399
C35   C     C_R   0.573402 0.074379 0.532547 0.247742
C36   C     C_R   0.428181 0.925166 0.466867 0.237841
C37   C     C_R   0.390425 0.545709 0.177618 0.543193
C38   C     C_R   0.600687 0.517281 0.823059 0.540948
C39   C     C_R   0.603594 0.483115 0.179345 0.530385
C40   C     C_R   0.380421 0.522733 0.820708 0.529358
C41   C     C_R   0.569722 0.605851 0.281226 -0.095623
C42   C     C_R   0.435457 0.619435 0.718334 -0.101729
C43   C     C_R   0.570614 0.602270 0.331389 -0.240517
C44   C     C_R   0.436507 0.614266 0.668225 -0.241269
C45   C     C_R   0.432861 0.403366 0.327813 -0.224532
C46   C     C_R   0.541264 0.391522 0.672991 -0.216147
C47   C     C_R   0.432108 0.406840 0.277673 -0.105013
C48   C     C_R   0.538588 0.395626 0.723053 -0.099750
C49   C     C_R   0.500278 0.508262 0.254166 0.352089
C50   C     C_R   0.487183 0.510462 0.746060 0.345659
Cu1   Cu    Cu3+1 0.500000 0.640660 0.500000 0.975580
Cu2   Cu    Cu3+1 0.500000 0.359340 0.500000 0.984308
H1    H     H_    0.376827 0.327007 0.345215 0.146998
H2    H     H_    0.584882 0.304182 0.656311 0.144245
H3    H     H_    0.377907 0.331359 0.257011 0.138817
H4    H     H_    0.578081 0.310351 0.744064 0.144995
H5    H     H_    0.394668 0.698684 0.647500 0.154073
H6    H     H_    0.625080 0.678106 0.351793 0.149089
H7    H     H_    0.395236 0.708605 0.735646 0.146983
H8    H     H_    0.622408 0.684774 0.263338 0.144266
H9    H     H_    0.179067 0.538075 0.959782 0.133305
H10   H     H_    0.799076 0.437149 0.039730 0.133841
H11   H     H_    0.188894 0.604611 0.030699 0.136835
H12   H     H_    0.806561 0.517845 0.970544 0.136130
H13   H     H_    0.110868 0.277333 0.502729 0.154239
H14   H     H_    0.887893 0.727254 0.501183 0.138746
H15   H     H_    0.889007 0.277980 0.492772 0.153092
H16   H     H_    0.112059 0.727304 0.501566 0.140550
N1    N     N_R   0.498130 0.512634 0.202514 -0.473126
N2    N     N_R   0.489387 0.517281 0.797778 -0.472366
N3    N     N_R   0.500000 0.852070 0.500000 -0.215581
N4    N     N_R   0.500000 0.147930 0.500000 -0.214767
O1    O     O_R   0.319640 0.618740 0.500000 -0.576865
O2    O     O_R   0.680360 0.381260 0.500000 -0.557573
O3    O     O_R   0.680360 0.618740 0.500000 -0.576825
O4    O     O_R   0.319640 0.381260 0.500000 -0.558859
O5    O     O_R   0.500020 0.618770 0.430260 -0.550965
O6    O     O_R   0.499980 0.381230 0.569740 -0.563415
O7    O     O_R   0.499980 0.618770 0.569740 -0.551007
O8    O     O_R   0.500020 0.381230 0.430260 -0.564000
O9    O     O_2   0.290377 0.579693 0.202391 -0.505124
O10   O     O_2   0.705712 0.513102 0.798737 -0.504880
O11   O     O_2   0.272185 0.521133 0.794789 -0.542636
O12   O     O_2   0.707921 0.449601 0.205066 -0.546312
N5    N     N_2   0.358984 0.149644 0.430973 -0.362077
H17   H     H_    0.396688 0.145745 0.397658 0.238477
C51   C     C_3   0.225622 0.139710 0.430102 -0.692377
H18   H     H_    0.191210 0.075077 0.399344 0.207271
H19   H     H_    0.185923 0.245271 0.424821 0.240647
H20   H     H_    0.192865 0.093640 0.463930 0.204678
N6    N     N_2   0.651627 0.849343 0.565705 -0.362991
H21   H     H_    0.744233 0.854005 0.558882 0.236388
C52   C     C_3   0.624515 0.855821 0.616268 -0.642517
H22   H     H_    0.684651 0.932573 0.635524 0.197425
H23   H     H_    0.644561 0.753180 0.633078 0.243863
H24   H     H_    0.526188 0.883256 0.621191 0.210831
N7    N     N_2   0.644603 0.148790 0.567995 -0.359917
H25   H     H_    0.611988 0.139703 0.602022 0.234363
C53   C     C_3   0.777737 0.139665 0.566369 -0.677988
H26   H     H_    0.816212 0.073460 0.596051 0.204055
H27   H     H_    0.817422 0.245092 0.571699 0.242364
H28   H     H_    0.806598 0.095668 0.531632 0.202302
N8    N     N_2   0.351946 0.849840 0.433052 -0.365586
H29   H     H_    0.258520 0.856494 0.438151 0.236541
C54   C     C_3   0.385154 0.855123 0.383102 -0.627373
H30   H     H_    0.334906 0.939441 0.363443 0.196579
H31   H     H_    0.357699 0.756032 0.365233 0.241276
H32   H     H_    0.486247 0.870146 0.380091 0.217283
N9    N     N_2   0.161884 0.605709 0.121899 -0.372335
H33   H     H_    0.112276 0.686240 0.105843 0.242514
C55   C     C_3   0.085604 0.484554 0.129089 -0.599081
H34   H     H_    0.005697 0.514335 0.150571 0.237957
H35   H     H_    0.138862 0.402459 0.149088 0.244456
H36   H     H_    0.050659 0.442438 0.093843 0.184851
N10   N     N_2   0.834682 0.525964 0.879440 -0.371891
H37   H     H_    0.900814 0.462046 0.895663 0.238437
C56   C     C_3   0.880621 0.665684 0.872667 -0.599827
H38   H     H_    0.901488 0.715954 0.908095 0.191275
H39   H     H_    0.811606 0.729396 0.851700 0.246126
H40   H     H_    0.966681 0.661422 0.852418 0.233217
H41   H     H_    0.181143 0.533509 0.874702 0.181416
H42   H     H_    0.796408 0.430030 0.124863 0.175759

loop_
_geom_bond_atom_site_label_1
_geom_bond_atom_site_label_2
_ccdc_geom_bond_type
C51   H18   S    
C38   N2    A    
C52   H22   S    
C37   N1    A    
C27   C29   A    
C8    C26   A    
C14   C18   A    
C55   H34   S    
N7    H25   S    
C47   C49   A    
N5    H17   S    
C54   H31   S    
C40   N2    A    
C36   N8    S    
C27   H13   S    
C19   C21   A    
Cu1   O3    S    
C39   O12   S    
Cu2   O2    S    
C56   H39   S    
C9    C22   A    
C5    C37   A    
N10   H37   S    
C9    C39   A    
C33   C36   A    
C33   N4    A    
C3    C18   A    
C10   C40   A    
C34   C35   A    
C25   H11   S    
C45   C47   A    
C26   H12   S    
C34   N6    S    
C33   N5    S    
C43   H6    S    
C29   H15   S    
N8    C54   S    
N10   C56   S    
C6    C38   A    
C11   C43   A    
C23   O8    A    
C8    N10   S    
C36   N3    A    
C48   C50   A    
C45   H1    S    
C52   H23   S    
C49   N1    S    
C38   O10   S    
C20   H10   S    
C41   C43   A    
C40   O11   S    
C37   O9    S    
C42   C44   A    
Cu2   O6    S    
C41   C49   A    
N7    C53   S    
C22   H42   S    
N5    C51   S    
C10   C21   A    
C54   H32   S    
C46   C48   A    
C51   H20   S    
C13   C19   A    
Cu1   Cu2   S    
C14   C20   A    
C4    C6    A    
C56   H40   S    
N6    H21   S    
C5    C7    A    
C15   C26   A    
C6    C8    A    
C3    C5    A    
C1    C32   S    
C7    N9    S    
C2    C31   S    
C28   H14   S    
Cu1   O5    S    
Cu2   N4    S    
N6    C52   S    
C24   O7    A    
C53   H26   S    
C44   H5    S    
C46   H2    S    
C39   N1    A    
C55   H35   S    
C23   O5    A    
C3    C9    A    
C42   C50   A    
C4    C17   A    
C12   C46   A    
C53   H27   S    
C20   C22   A    
C35   N4    A    
C52   H24   S    
C51   H19   S    
C11   C45   A    
C4    C10   A    
C47   H3    S    
C24   O6    A    
C16   C25   A    
C48   H4    S    
C27   C32   A    
C1    O4    A    
C28   C31   A    
Cu1   O1    S    
C41   H8    S    
Cu2   O4    S    
C2    O2    A    
C42   H7    S    
Cu1   N3    S    
C15   C17   A    
C54   H30   S    
C12   C24   S    
C7    C25   A    
C13   C17   A    
C1    O1    A    
C28   C30   A    
C50   N2    S    
C29   C31   A    
C35   N7    S    
C56   H38   S    
C30   C32   A    
C19   H9    S    
N9    C55   S    
C11   C23   S    
C55   H36   S    
C21   H41   S    
Cu1   O7    S    
C53   H28   S    
C16   C18   A    
C13   C16   A    
N9    H33   S    
N8    H29   S    
C14   C15   A    
C12   C44   A    
Cu2   O8    S    
C34   N3    A    
C30   H16   S    
C2    O3    A    
