data_mof_unit_6066.cif
_audit_creation_date              2012-12-10T20:31:02-0500
_audit_creation_method            fapswitch 2.2
_symmetry_space_group_name_H-M    P1
_symmetry_Int_Tables_number       1
_space_group_crystal_system       triclinic
_cell_length_a                    15.004584
_cell_length_b                    10.686724
_cell_length_c                    9.881758
_cell_angle_alpha                 90.48157
_cell_angle_beta                  90.441513
_cell_angle_gamma                 90.667272
_cell_volume                      1584.32671992

loop_
_atom_site_label
_atom_site_type_symbol
_atom_type_description
_atom_site_fract_x
_atom_site_fract_y
_atom_site_fract_z
_atom_type_partial_charge
C1    C     C_R   0.498006 0.260092 0.499764 0.899717
C2    C     C_R   0.908087 0.511028 0.623589 0.036170
C3    C     C_R   0.951754 0.460183 0.255900 -0.283263
C4    C     C_R   0.044341 0.459652 0.255300 0.646883
C5    C     C_R   0.091939 0.477500 0.376846 -0.004940
C6    C     C_R   0.046402 0.494506 0.500193 -0.081546
C7    C     C_R   0.093575 0.512529 0.623161 -0.009439
C8    C     C_R   0.047777 0.528915 0.745198 0.641250
C9    C     C_R   0.955213 0.527798 0.745188 -0.271422
C10   C     C_R   0.184283 0.479106 0.377673 -0.174454
C11   C     C_R   0.230747 0.497865 0.499359 -0.109334
C12   C     C_R   0.326662 0.499504 0.499638 0.910202
C13   C     C_R   0.185766 0.514398 0.621432 -0.152422
C14   C     C_R   0.504958 0.065122 0.621191 0.173729
C15   C     C_R   0.487445 0.128254 0.501534 -0.095554
C16   C     C_R   0.455338 0.062944 0.387433 -0.206081
C17   C     C_R   0.455280 0.933403 0.387882 -0.198279
C18   C     C_R   0.486935 0.871328 0.502803 -0.104287
C19   C     C_R   0.504445 0.937500 0.622023 0.141082
C20   C     C_3   0.583963 0.932692 0.713837 -0.486812
C21   C     C_3   0.584793 0.074315 0.712345 -0.475534
C22   C     C_R   0.430962 0.446547 0.069646 0.216782
C23   C     C_R   0.498067 0.739871 0.500500 0.879147
C24   C     C_R   0.563299 0.563265 0.074915 -0.096639
C25   C     C_R   0.563597 0.565015 0.931024 0.014869
C26   C     C_R   0.430771 0.446879 0.927247 0.114196
C27   C     C_3   0.400661 0.313642 0.919387 -0.238921
C28   C     C_3   0.401262 0.312937 0.073573 -0.584285
C29   C     C_R   0.673347 0.499381 0.500346 0.875933
C30   C     C_R   0.815905 0.511612 0.622837 -0.203551
C31   C     C_R   0.769252 0.496901 0.500701 -0.081795
C32   C     C_R   0.814200 0.479496 0.378582 -0.193258
C33   C     C_R   0.906358 0.477709 0.377629 0.037158
C34   C     C_R   0.953638 0.494193 0.500497 0.062467
H1    H     H_    0.780731 0.524484 0.717193 0.186358
H2    H     H_    0.435130 0.882717 0.297074 0.177054
H3    H     H_    0.567024 0.893820 0.814515 0.214213
H4    H     H_    0.643099 0.890910 0.664423 0.204046
H5    H     H_    0.569274 0.116441 0.812403 0.205305
H6    H     H_    0.644115 0.115115 0.661390 0.205237
H7    H     H_    0.614172 0.613011 0.132842 0.190719
H8    H     H_    0.451104 0.251282 0.873618 0.192519
H9    H     H_    0.334533 0.302116 0.120651 0.209569
H10   H     H_    0.777651 0.467084 0.284188 0.169340
H11   H     H_    0.453512 0.251489 0.116010 0.212159
H12   H     H_    0.915598 0.447115 0.161336 0.184279
H13   H     H_    0.220047 0.465641 0.283837 0.204597
H14   H     H_    0.222592 0.529513 0.715051 0.195943
H15   H     H_    0.920427 0.540744 0.839947 0.196440
H16   H     H_    0.434710 0.111049 0.296831 0.165436
N1    N     N_R   0.499390 0.499140 0.142800 -0.127687
N2    N     N_R   0.499390 0.499180 0.857150 -0.159465
O1    O     O_R   0.500010 0.316790 0.614690 -0.609540
O2    O     O_R   0.500000 0.316760 0.385350 -0.624537
O3    O     O_R   0.367850 0.499990 0.614680 -0.616241
O4    O     O_R   0.367840 0.499950 0.385340 -0.623524
O5    O     O_R   0.500000 0.683240 0.614650 -0.646440
O6    O     O_R   0.499990 0.683210 0.385310 -0.619552
O7    O     O_R   0.632160 0.500050 0.614660 -0.654891
O8    O     O_R   0.632150 0.500010 0.385320 -0.623629
Zn1   Zn    Zn3+2 0.500010 0.500020 0.653130 0.949637
Zn2   Zn    Zn3+2 0.499990 0.499980 0.346870 0.957485
C35   C     C_2   0.633512 0.640410 0.864474 0.359813
H17   H     H_    0.625387 0.672152 0.762413 0.135654
O9    O     O_2   0.701569 0.671298 0.925284 -0.604956
C36   C     C_2   0.309226 0.300462 0.857676 0.495202
H18   H     H_    0.254451 0.355815 0.895797 0.117370
O10   O     O_2   0.296002 0.227608 0.763716 -0.559306
F1    F     F_    0.087227 0.442125 0.136234 -0.629734
F2    F     F_    0.092408 0.546507 0.864043 -0.626644

loop_
_geom_bond_atom_site_label_1
_geom_bond_atom_site_label_2
_ccdc_geom_bond_type
O6    Zn2   S    
C13   H14   S    
C36   O10   D    
C11   C12   S    
C35   O9    D    
O5    Zn1   S    
C6    C7    A    
C1    C15   S    
C17   H2    S    
C26   N2    A    
C23   O6    A    
C20   H4    S    
C3    H12   S    
C8    F2    S    
C19   C20   S    
C21   H5    S    
C29   O8    A    
C2    C30   A    
C30   C31   A    
C1    O2    A    
C32   C33   A    
C2    C34   A    
C24   N1    A    
C7    C13   A    
C36   H18   S    
C32   H10   S    
C25   N2    A    
C5    C10   A    
C29   C31   S    
C27   C36   S    
C22   C28   S    
C4    C5    A    
C24   C25   A    
C20   H3    S    
C11   C13   A    
C27   H8    S    
C26   C27   S    
C12   O4    A    
C21   H6    S    
C24   H7    S    
C30   H1    S    
N1    Zn2   S    
C15   C16   A    
O3    Zn1   S    
C14   C21   S    
O8    Zn2   S    
C4    F1    S    
C16   H16   S    
C33   C34   A    
N2    Zn1   S    
C25   C35   S    
C5    C6    A    
O4    Zn2   S    
C28   H11   S    
O7    Zn1   S    
C12   O3    A    
C10   C11   A    
C3    C33   A    
C18   C23   S    
C6    C34   A    
C7    C8    A    
C9    H15   S    
C20   C21   S    
C17   C18   A    
C18   C19   A    
C22   C26   A    
C27   C28   S    
C23   O5    A    
C29   O7    A    
C14   C15   A    
C8    C9    A    
C1    O1    A    
C28   H9    S    
C35   H17   S    
C2    C9    A    
O1    Zn1   S    
C14   C19   A    
C22   N1    A    
O2    Zn2   S    
C3    C4    A    
C31   C32   A    
C10   H13   S    
C16   C17   A    
