data_mof_unit_55490.cif
_audit_creation_date              2012-12-10T17:32:16-0500
_audit_creation_method            fapswitch 2.2
_symmetry_space_group_name_H-M    P1
_symmetry_Int_Tables_number       1
_space_group_crystal_system       triclinic
_cell_length_a                    12.321961
_cell_length_b                    13.040986
_cell_length_c                    15.016628
_cell_angle_alpha                 77.962653
_cell_angle_beta                  100.259945
_cell_angle_gamma                 116.244193
_cell_volume                      2106.52804138

loop_
_atom_site_label
_atom_site_type_symbol
_atom_type_description
_atom_site_fract_x
_atom_site_fract_y
_atom_site_fract_z
_atom_type_partial_charge
C1    C     C_R   0.855411 0.285478 0.506828 0.819811
C2    C     C_R   0.991954 0.591055 0.076366 0.123007
C3    C     C_R   0.001700 0.308432 0.083866 -0.227715
C4    C     C_R   0.997708 0.305536 0.991377 -0.192075
C5    C     C_R   0.993862 0.398304 0.924900 0.099189
C6    C     C_R   0.994056 0.495141 0.953727 -0.058812
C7    C     C_R   0.989638 0.589555 0.889356 0.023020
C8    C     C_R   0.982653 0.681562 0.919300 -0.173386
C9    C     C_R   0.983973 0.682299 0.011959 -0.242915
C10   C     C_R   0.987517 0.395582 0.830626 0.075424
C11   C     C_R   0.992182 0.494360 0.767479 -0.175192
C12   C     C_R   0.997405 0.498105 0.670768 0.824683
C13   C     C_R   0.993712 0.591272 0.796504 0.353729
C14   C     C_R   0.274865 0.032351 0.396866 -0.175827
C15   C     C_R   0.227593 0.837275 0.473331 -0.065800
C16   C     C_R   0.816283 0.074090 0.551938 0.157383
C17   C     C_R   0.732916 0.958684 0.565822 -0.132581
C18   C     C_R   0.610036 0.927103 0.541743 -0.190116
C19   C     C_R   0.565562 0.009202 0.496470 -0.001998
C20   C     C_R   0.650794 0.123611 0.468102 -0.058557
C21   C     C_R   0.439031 0.979459 0.474825 0.063945
C22   C     C_R   0.399509 0.061329 0.420194 0.100985
C23   C     C_R   0.144882 0.714084 0.487321 0.762310
C24   C     C_R   0.484599 0.168292 0.384111 -0.340340
C25   C     C_R   0.609002 0.195544 0.400013 0.472817
C26   C     C_R   0.350241 0.869623 0.504541 -0.214447
C27   C     C_R   0.189253 0.920057 0.421968 -0.208815
C28   C     C_R   0.774870 0.160000 0.506361 -0.116646
C29   C     C_R   0.363204 0.358876 0.664628 -0.306001
C30   C     C_R   0.762667 0.648356 0.377711 0.022420
C31   C     C_R   0.673501 0.689892 0.357076 -0.392896
C32   C     C_R   0.568381 0.637448 0.404136 0.490625
C33   C     C_R   0.555271 0.541126 0.473819 -0.085586
C34   C     C_R   0.001440 0.500542 0.329327 0.829679
C35   C     C_R   0.654754 0.508823 0.497552 0.229665
C36   C     C_R   0.450897 0.480443 0.525429 -0.110061
C37   C     C_R   0.458611 0.408600 0.608571 0.099436
C38   C     C_R   0.558364 0.381936 0.632425 -0.245061
C39   C     C_R   0.650902 0.426036 0.575443 -0.134389
C40   C     C_R   0.334266 0.478482 0.493973 0.657346
C41   C     C_R   0.259519 0.378961 0.637096 -0.033172
C42   C     C_R   0.993772 0.591608 0.169311 -0.277499
C43   C     C_R   0.003049 0.500593 0.233333 -0.066706
C44   C     C_R   0.007786 0.407285 0.205383 -0.256938
C45   C     C_R   0.002932 0.404024 0.112572 0.118114
C46   C     C_R   0.996801 0.496936 0.047508 0.088716
Cu1   Cu    Cu3+1 0.098270 0.475420 0.521130 0.953742
Cu2   Cu    Cu3+1 0.901730 0.524580 0.478870 0.963512
H1    H     H_    0.989057 0.663051 0.192162 0.135804
H2    H     H_    0.454573 0.229409 0.339847 0.141916
H3    H     H_    0.244143 0.094775 0.355043 0.130361
H4    H     H_    0.373973 0.805885 0.550527 0.153144
H5    H     H_    0.552933 0.836191 0.556793 0.161622
H6    H     H_    0.762425 0.891825 0.598959 0.152608
H7    H     H_    0.187920 0.344251 0.681904 0.159050
H8    H     H_    0.562672 0.322548 0.693922 0.148983
H9    H     H_    0.369195 0.305679 0.729548 0.151243
H10   H     H_    0.012665 0.336332 0.255851 0.132098
H11   H     H_    0.843061 0.690766 0.341213 0.140123
H12   H     H_    0.689664 0.766630 0.306970 0.147989
H13   H     H_    0.719276 0.394652 0.596505 0.193246
H14   H     H_    0.002146 0.234826 0.132914 0.141335
H15   H     H_    0.998326 0.229898 0.973105 0.153376
H16   H     H_    0.976127 0.753557 0.871311 0.177711
H17   H     H_    0.979090 0.754485 0.033260 0.140795
H18   H     H_    0.094242 0.896960 0.398184 0.147283
N1    N     N_R   0.246280 0.438190 0.553160 -0.226962
N2    N     N_R   0.754320 0.561190 0.447410 -0.187879
O1    O     O_R   0.972510 0.318130 0.526570 -0.597260
O2    O     O_R   0.806530 0.359650 0.490890 -0.552930
O3    O     O_R   0.082980 0.479210 0.647590 -0.593512
O4    O     O_R   0.917000 0.520730 0.611900 -0.571908
O5    O     O_R   0.193470 0.640350 0.509110 -0.559117
O6    O     O_R   0.027490 0.681870 0.473430 -0.596205
O7    O     O_R   0.083000 0.479270 0.388100 -0.545285
O8    O     O_R   0.917020 0.520790 0.352410 -0.566904
C47   C     C_3   0.947391 0.100278 0.587104 -0.837635
H19   H     H_    0.960566 0.020676 0.617136 0.216070
H20   H     H_    0.006085 0.143364 0.530059 0.240967
H21   H     H_    0.977784 0.155148 0.641974 0.234905
O9    O     O_3   0.690192 0.291139 0.348091 -0.588396
C48   C     C_3   0.667035 0.280466 0.253819 0.056939
H22   H     H_    0.722564 0.366029 0.216030 0.183805
H23   H     H_    0.570929 0.260640 0.226730 0.125774
C49   C     C_3   0.704898 0.191014 0.233602 -0.389843
H24   H     H_    0.647103 0.104152 0.267655 0.214936
H25   H     H_    0.800460 0.211303 0.261766 0.218467
C50   C     C_3   0.691774 0.188744 0.130935 -0.890022
H26   H     H_    0.595556 0.164246 0.102426 0.248648
H27   H     H_    0.721558 0.124621 0.118264 0.257000
H28   H     H_    0.748385 0.275029 0.094973 0.267738
O10   O     O_3   0.302681 0.499050 0.401475 -0.589800
C51   C     C_3   0.281378 0.401816 0.361025 0.025657
H29   H     H_    0.184894 0.338813 0.365739 0.156168
H30   H     H_    0.339671 0.356071 0.394244 0.116175
C52   C     C_3   0.306935 0.441115 0.260653 -0.331213
H31   H     H_    0.254364 0.491154 0.225697 0.231110
H32   H     H_    0.405056 0.498395 0.256714 0.202272
C53   C     C_3   0.274584 0.338986 0.210998 -0.927860
H33   H     H_    0.342831 0.302793 0.232433 0.242451
H34   H     H_    0.274146 0.368285 0.136054 0.265721
H35   H     H_    0.183785 0.269918 0.226211 0.243580
O11   O     O_3   0.492847 0.693337 0.397006 -0.592089
C54   C     C_3   0.453999 0.725861 0.304929 0.116335
H36   H     H_    0.353136 0.682973 0.296190 0.200796
H37   H     H_    0.485809 0.699395 0.252309 0.100198
C55   C     C_3   0.491778 0.855988 0.285974 -0.369775
H38   H     H_    0.458867 0.881099 0.338279 0.245012
H39   H     H_    0.592474 0.901919 0.290391 0.210469
C56   C     C_3   0.437508 0.891512 0.191650 -0.935042
H40   H     H_    0.476878 0.876360 0.137298 0.259263
H41   H     H_    0.457618 0.984507 0.182703 0.264450
H42   H     H_    0.337118 0.841694 0.184539 0.256709
C57   C     C_3   0.969489 0.285627 0.798196 -0.873920
H43   H     H_    0.946841 0.286627 0.723440 0.228154
H44   H     H_    0.052907 0.270375 0.818259 0.224092
H45   H     H_    0.891328 0.211000 0.829180 0.225737
O12   O     O_3   0.988647 0.683970 0.733457 -0.607354
C58   C     C_3   0.103956 0.756283 0.701351 0.079614
H46   H     H_    0.087473 0.786136 0.627613 0.178786
H47   H     H_    0.165037 0.712089 0.707030 0.107501
C59   C     C_3   0.168500 0.862822 0.750227 -0.391275
H48   H     H_    0.106201 0.904656 0.747086 0.223833
H49   H     H_    0.193961 0.836092 0.823144 0.216648
C60   C     C_3   0.283255 0.950399 0.706079 -0.894510
H50   H     H_    0.347271 0.910753 0.708367 0.256897
H51   H     H_    0.328989 0.025840 0.743710 0.251271
H52   H     H_    0.259817 0.981340 0.633745 0.267833

loop_
_geom_bond_atom_site_label_1
_geom_bond_atom_site_label_2
_ccdc_geom_bond_type
C16   C28   A    
C21   C26   A    
C51   H29   S    
C11   C13   A    
Cu2   O8    S    
C19   C20   A    
C54   H37   S    
O9    C48   S    
C7    C8    A    
C41   N1    A    
C47   H19   S    
C2    C46   A    
C4    H15   S    
C5    C6    A    
C36   C37   A    
C19   C21   A    
C23   O5    A    
C16   C47   S    
C38   C39   A    
C49   C50   S    
C20   C25   A    
C52   C53   S    
C33   C36   A    
C18   C19   A    
C56   H40   S    
Cu1   O1    S    
C18   H5    S    
C33   C35   A    
O12   C58   S    
C41   H7    S    
C14   H3    S    
C44   H10   S    
C16   C17   A    
C40   N1    A    
C52   H32   S    
C60   H52   S    
C55   H38   S    
C14   C27   A    
C10   C57   S    
C34   O7    A    
C47   H20   S    
C12   O4    A    
C51   H30   S    
C21   C22   A    
C30   H11   S    
C25   O9    S    
C55   H39   S    
Cu2   O4    S    
Cu1   N1    S    
C54   H36   S    
C13   O12   S    
C56   H41   S    
C58   H47   S    
C24   H2    S    
C39   H13   S    
C49   H25   S    
Cu2   O6    S    
C36   C40   A    
C24   C25   A    
Cu1   O5    S    
Cu2   O2    S    
C8    C9    A    
C15   C26   A    
C20   C28   A    
C49   H24   S    
C3    C45   A    
C1    O1    A    
C31   H12   S    
C35   C39   A    
C43   C44   A    
C37   C38   A    
C26   H4    S    
C1    C28   S    
C15   C27   A    
Cu1   Cu2   S    
C50   H28   S    
C11   C12   S    
C52   H31   S    
C17   C18   A    
C32   O11   S    
Cu2   N2    S    
C56   H42   S    
Cu1   O3    S    
C8    H16   S    
C53   H34   S    
C12   O3    A    
C29   H9    S    
C51   C52   S    
C48   H23   S    
C60   H50   S    
C55   C56   S    
C22   C24   A    
C42   C43   A    
C23   O6    A    
C59   H49   S    
C3    C4    A    
C44   C45   A    
C3    H14   S    
C6    C46   A    
C29   C41   A    
C31   C32   A    
C34   C43   S    
C50   H27   S    
C4    C5    A    
C57   H44   S    
C58   H46   S    
C57   H43   S    
C6    C7    A    
C48   C49   S    
C1    O2    A    
C53   H33   S    
C32   C33   A    
C14   C22   A    
C59   C60   S    
Cu1   O7    S    
C5    C10   A    
C27   H18   S    
C47   H21   S    
C30   C31   A    
C35   N2    A    
C2    C42   A    
C15   C23   S    
O10   C51   S    
C58   C59   S    
C9    H17   S    
C40   O10   S    
C57   H45   S    
C10   C11   A    
C42   H1    S    
C45   C46   A    
C7    C13   A    
C53   H35   S    
C38   H8    S    
C50   H26   S    
C48   H22   S    
C29   C37   A    
O11   C54   S    
C60   H51   S    
C59   H48   S    
C2    C9    A    
C17   H6    S    
C54   C55   S    
C30   N2    A    
C34   O8    A    
