data_mof_unit_21447.cif
_audit_creation_date              2012-12-10T19:16:25-0500
_audit_creation_method            fapswitch 2.2
_symmetry_space_group_name_H-M    P1
_symmetry_Int_Tables_number       1
_space_group_crystal_system       triclinic
_cell_length_a                    10.635223
_cell_length_b                    9.676718
_cell_length_c                    27.727178
_cell_angle_alpha                 90.291341
_cell_angle_beta                  89.713575
_cell_angle_gamma                 89.914835
_cell_volume                      2853.44048346

loop_
_atom_site_label
_atom_site_type_symbol
_atom_type_description
_atom_site_fract_x
_atom_site_fract_y
_atom_site_fract_z
_atom_type_partial_charge
Br1   Br    Br    0.854808 0.619407 0.601590 -0.445004
Br2   Br    Br    0.867090 0.275857 0.576962 -0.485990
C1    C     C_R   0.257637 0.499958 0.500830 0.860257
C2    C     C_R   0.388966 0.462782 0.974670 0.045346
C3    C     C_R   0.616245 0.513591 0.974437 0.054417
C4    C     C_R   0.500011 0.499569 0.405931 0.880938
C5    C     C_R   0.502209 0.490992 0.949330 0.069777
C6    C     C_R   0.279741 0.431475 0.947842 -0.214852
C7    C     C_R   0.280749 0.433985 0.897841 -0.130556
C8    C     C_R   0.390524 0.467391 0.872750 -0.021943
C9    C     C_R   0.501561 0.496254 0.898321 -0.050872
C10   C     C_R   0.612057 0.529998 0.872782 -0.026951
C11   C     C_R   0.609649 0.533029 0.822375 0.514098
C12   C     C_R   0.495696 0.368221 0.278497 -0.075369
C13   C     C_R   0.392436 0.471215 0.822346 0.506116
C14   C     C_R   0.506829 0.627587 0.722124 -0.081615
C15   C     C_R   0.506513 0.627047 0.672025 -0.175503
C16   C     C_R   0.742170 0.499696 0.502187 0.955268
C17   C     C_R   0.496648 0.376056 0.672033 -0.178780
C18   C     C_R   0.496739 0.377008 0.722107 -0.083068
C19   C     C_R   0.501628 0.502653 0.747100 0.307031
C20   C     C_R   0.388685 0.466328 0.025757 0.051115
C21   C     C_R   0.504398 0.480348 0.050769 0.074464
C22   C     C_R   0.618620 0.498048 0.025158 0.051457
C23   C     C_R   0.501184 0.491968 0.252930 0.308466
C24   C     C_R   0.276120 0.457819 0.052834 -0.216240
C25   C     C_R   0.735281 0.484551 0.100992 -0.001126
C26   C     C_R   0.724197 0.552798 0.947860 -0.213929
C27   C     C_R   0.722039 0.560194 0.897942 -0.131314
C28   C     C_R   0.500333 0.500341 0.594039 0.932836
C29   C     C_R   0.732541 0.494689 0.050898 -0.291164
C30   C     C_3   0.072613 0.603613 0.539278 -0.440074
C31   C     C_3   0.072728 0.354025 0.515556 -0.415262
C32   C     C_3   0.929292 0.613993 0.536962 0.148428
C33   C     C_3   0.929663 0.352037 0.516053 0.154034
C34   C     C_R   0.505610 0.478081 0.101855 -0.069257
C35   C     C_3   0.070064 0.535922 0.448305 -0.022195
C36   C     C_3   0.120956 0.499522 0.500297 -0.076736
C37   C     C_3   0.878108 0.498722 0.502737 -0.028619
C38   C     C_3   0.923185 0.532219 0.450723 -0.556893
C39   C     C_3   0.386296 0.081214 0.474977 -0.239955
C40   C     C_3   0.386402 0.918437 0.474900 -0.213625
C41   C     C_3   0.610939 0.080826 0.473045 -0.228617
C42   C     C_3   0.611041 0.918044 0.473097 -0.237428
C43   C     C_3   0.501987 0.081918 0.548656 -0.226112
C44   C     C_3   0.501901 0.919389 0.548655 -0.235904
C45   C     C_R   0.391076 0.468917 0.127533 -0.018915
C46   C     C_R   0.392239 0.471866 0.177808 0.510998
C47   C     C_R   0.615234 0.499100 0.177986 0.535556
C48   C     C_R   0.505217 0.618790 0.277216 -0.085647
C49   C     C_R   0.504274 0.621841 0.327356 -0.167651
C50   C     C_R   0.494911 0.370827 0.328527 -0.205417
C51   C     C_2   0.860734 0.463215 0.122898 0.526467
C52   C     C_2   0.110291 0.681409 0.433598 0.376324
C53   C     C_2   0.122858 0.432407 0.411218 0.512269
C54   C     C_R   0.277601 0.458888 0.102732 -0.123947
C55   C     C_R   0.620675 0.486212 0.127301 -0.048864
C56   C     C_R   0.499566 0.497680 0.353298 -0.044996
C57   C     C_R   0.501166 0.501173 0.646673 -0.032193
H1    H     H_    0.490876 0.273691 0.347714 0.157005
H2    H     H_    0.102466 0.568352 0.575623 0.226756
H3    H     H_    0.110184 0.327488 0.551781 0.219189
H4    H     H_    0.492470 0.270256 0.259487 0.142854
H5    H     H_    0.905422 0.716514 0.521334 0.119484
H6    H     H_    0.898992 0.276857 0.487913 0.135030
H7    H     H_    0.882162 0.632837 0.439159 0.166708
H8    H     H_    0.881809 0.455451 0.425457 0.229951
H9    H     H_    0.380887 0.119806 0.437317 0.157080
H10   H     H_    0.381539 0.879238 0.437176 0.184235
H11   H     H_    0.300178 0.118870 0.493752 0.154205
H12   H     H_    0.509223 0.714477 0.257190 0.141372
H13   H     H_    0.300109 0.881088 0.493470 0.150555
H14   H     H_    0.612653 0.119044 0.435279 0.151518
H15   H     H_    0.612974 0.878580 0.435349 0.150344
H16   H     H_    0.586660 0.120353 0.567895 0.190828
H17   H     H_    0.586508 0.881050 0.567913 0.178408
H18   H     H_    0.419088 0.120665 0.569318 0.149046
H19   H     H_    0.418920 0.881523 0.569271 0.149621
H20   H     H_    0.698730 0.118595 0.490195 0.174919
H21   H     H_    0.698840 0.880604 0.490321 0.161611
H22   H     H_    0.188649 0.453146 0.121846 0.197770
H23   H     H_    0.811303 0.582230 0.964751 0.145099
H24   H     H_    0.510422 0.724825 0.653239 0.157114
H25   H     H_    0.510594 0.724760 0.741605 0.142951
H26   H     H_    0.194728 0.409219 0.878909 0.194582
H27   H     H_    0.192220 0.401043 0.964319 0.142869
H28   H     H_    0.184354 0.454494 0.036623 0.135771
H29   H     H_    0.507714 0.720830 0.345713 0.158460
H30   H     H_    0.941504 0.518962 0.108941 0.017565
H31   H     H_    0.076153 0.770085 0.453907 0.060257
H32   H     H_    0.223551 0.428751 0.404737 0.068719
H33   H     H_    0.492719 0.277707 0.653278 0.155609
H34   H     H_    0.807350 0.589692 0.879138 0.194757
H35   H     H_    0.493094 0.280367 0.741587 0.142393
H36   H     H_    0.822019 0.490778 0.032399 0.127838
H37   H     H_    0.113634 0.708326 0.534450 0.156742
H38   H     H_    0.107013 0.272303 0.490315 0.166226
N1    N     N_R   0.502878 0.488162 0.201624 -0.367731
N2    N     N_R   0.501077 0.503073 0.798452 -0.360400
N3    N     N_3   0.499750 0.138610 0.498940 -0.044310
N4    N     N_3   0.499750 0.861390 0.498940 -0.047823
O1    O     O_R   0.314910 0.616040 0.499990 -0.623503
O2    O     O_2   0.286753 0.443796 0.797300 -0.539350
O3    O     O_2   0.719642 0.526703 0.203656 -0.495401
O4    O     O_2   0.715024 0.564042 0.797354 -0.524975
O5    O     O_2   0.876885 0.375917 0.153907 -0.494969
O6    O     O_2   0.179595 0.701821 0.399060 -0.575292
O7    O     O_2   0.056105 0.352871 0.388578 -0.569822
O8    O     O_R   0.314910 0.383960 0.499990 -0.643996
O9    O     O_R   0.500140 0.616020 0.428740 -0.616715
O10   O     O_R   0.500140 0.383980 0.428740 -0.639705
O11   O     O_R   0.685320 0.616040 0.499970 -0.633530
O12   O     O_R   0.685320 0.383960 0.499970 -0.614685
O13   O     O_R   0.500090 0.616050 0.571230 -0.627931
O14   O     O_R   0.500090 0.383950 0.571230 -0.621892
O15   O     O_2   0.283603 0.460611 0.202900 -0.516375
Zn1   Zn    Zn3+2 0.500150 0.654960 0.499980 0.937493
Zn2   Zn    Zn3+2 0.500150 0.345040 0.499980 0.932389

loop_
_geom_bond_atom_site_label_1
_geom_bond_atom_site_label_2
_ccdc_geom_bond_type
Br2   C33   S    
C41   H14   S    
C14   C19   A    
C10   C27   A    
C4    O10   A    
C4    C56   S    
C17   C18   A    
C2    C6    A    
C47   O3    S    
C44   H17   S    
C54   H22   S    
C43   C44   S    
C5    C9    A    
C52   O6    D    
O10   Zn2   S    
C26   C27   A    
C16   O11   A    
C30   H2    S    
C31   H3    S    
C35   C38   S    
C8    C13   A    
O11   Zn1   S    
C19   N2    S    
C33   H6    S    
C41   H20   S    
C14   H25   S    
C47   C55   A    
C16   O12   A    
C34   C45   A    
C39   C40   S    
C16   C37   S    
C23   C48   A    
C53   H32   S    
C17   H33   S    
C50   H1    S    
C7    H26   S    
C47   N1    A    
C51   O5    D    
C12   C50   A    
C1    C36   S    
C6    C7    A    
C38   H8    S    
Br1   C32   S    
C21   C22   A    
C30   C36   S    
C7    C8    A    
C6    H27   S    
C46   O15   S    
C38   H7    S    
C4    O9    A    
C2    C5    A    
O9    Zn1   S    
C32   H5    S    
O8    Zn2   S    
C39   H9    S    
C28   O14   A    
C44   N4    S    
C25   C29   A    
C32   C37   S    
C42   H21   S    
C41   N3    S    
C11   O4    S    
C34   C55   A    
C25   C55   A    
C37   C38   S    
C3    C5    A    
C14   C15   A    
C17   C57   A    
C26   H23   S    
C40   H10   S    
C15   H24   S    
C30   C32   S    
C11   N2    A    
C33   C37   S    
C48   H12   S    
C35   C36   S    
C3    C26   A    
C2    C20   A    
C45   C46   A    
C42   N4    S    
O14   Zn2   S    
C28   C57   S    
C40   H13   S    
C48   C49   A    
C39   N3    S    
C49   C56   A    
C18   C19   A    
C42   H15   S    
O1    Zn1   S    
C50   C56   A    
C15   C57   A    
C35   C52   S    
C1    O1    A    
C30   H37   S    
C41   C42   S    
C51   H30   S    
N3    Zn2   S    
C40   N4    S    
C44   H19   S    
C28   O13   A    
C18   H35   S    
C13   N2    A    
C43   N3    S    
C24   C54   A    
C49   H29   S    
C9    C10   A    
C25   C51   S    
C52   H31   S    
C46   N1    A    
C31   C36   S    
C53   O7    D    
C43   H16   S    
N4    Zn1   S    
C22   C29   A    
C27   H34   S    
C3    C22   A    
C24   H28   S    
C1    O8    A    
C29   H36   S    
C12   H4    S    
C31   C33   S    
C31   H38   S    
C12   C23   A    
O13   Zn1   S    
C8    C9    A    
O12   Zn2   S    
C35   C53   S    
C23   N1    S    
C10   C11   A    
C21   C34   A    
C20   C24   A    
C20   C21   A    
C45   C54   A    
C43   H18   S    
C13   O2    S    
C39   H11   S    
