data_mof_unit_21431.cif
_audit_creation_date              2012-12-11T14:32:53-0500
_audit_creation_method            fapswitch 2.2
_symmetry_space_group_name_H-M    P1
_symmetry_Int_Tables_number       1
_space_group_crystal_system       triclinic
_cell_length_a                    6.953591
_cell_length_b                    13.771413
_cell_length_c                    17.961352
_cell_angle_alpha                 112.56673
_cell_angle_beta                  95.42605
_cell_angle_gamma                 90.398558
_cell_volume                      1579.43112979

loop_
_atom_site_label
_atom_site_type_symbol
_atom_type_description
_atom_site_fract_x
_atom_site_fract_y
_atom_site_fract_z
_atom_type_partial_charge
O1    O     O_R   0.484560 0.544530 0.414330 -0.540418
O2    O     O_R   0.197040 0.638810 0.585080 -0.539940
O3    O     O_R   0.026800 0.455470 0.585670 -0.535025
C1    C     C_R   0.373983 0.678807 0.610644 0.678877
O4    O     O_R   0.155000 0.556150 0.414940 -0.545272
O5    O     O_R   0.984450 0.372220 0.414320 -0.531873
C2    C     C_R   0.317837 0.565030 0.386627 0.749184
O6    O     O_R   0.526900 0.627780 0.585680 -0.544274
O7    O     O_3   0.339170 0.439750 0.499990 -0.365590
V1    V     V_3+5 0.064350 0.511180 0.500000 1.395855
O8    O     O_R   0.654880 0.361190 0.414920 -0.537777
C3    C     C_R   0.816768 0.324682 0.386232 0.800310
O9    O     O_R   0.696930 0.443850 0.585060 -0.539832
C4    C     C_R   0.872975 0.433501 0.612009 0.750773
V2    V     V_3+5 0.564340 0.488820 0.500000 1.398505
O10   O     O_3   0.839390 0.560250 0.500010 -0.382732
C5    C     C_R   0.042837 0.857011 0.821253 -0.049289
C6    C     C_R   0.904808 0.391029 0.675623 -0.072151
C7    C     C_R   0.914861 0.814527 0.682156 -0.125358
C8    C     C_R   0.971823 0.782832 0.745255 -0.146890
C9    C     C_R   0.057527 0.963955 0.833846 -0.210547
C10   C     C_R   0.998718 0.998681 0.770401 0.095830
C11   C     C_R   0.925118 0.921209 0.694264 0.113857
C12   C     C_R   0.005449 0.107158 0.780143 0.066110
C13   C     C_R   0.940104 0.135884 0.713301 0.069432
C14   C     C_R   0.850724 0.055993 0.642780 -0.148130
C15   C     C_R   0.851110 0.950878 0.631924 -0.216986
C16   C     C_R   0.068891 0.187892 0.855227 -0.176731
C17   C     C_R   0.066053 0.292547 0.865557 -0.207013
C18   C     C_R   0.008631 0.321693 0.800969 0.105999
C19   C     C_R   0.951906 0.244404 0.721966 0.062177
C20   C     C_R   0.011089 0.429032 0.815911 -0.127107
C21   C     C_R   0.954965 0.463168 0.754490 -0.187512
C22   C     C_R   0.914543 0.281364 0.656967 0.049179
H1    H     H_    0.782165 0.892665 0.575624 0.127478
H2    H     H_    0.956646 0.546910 0.768218 0.099851
H3    H     H_    0.112506 0.351814 0.925136 0.115905
H4    H     H_    0.857269 0.755655 0.624147 0.140930
H5    H     H_    0.956240 0.700375 0.735194 0.087131
H6    H     H_    0.110549 0.017406 0.894112 0.092554
H7    H     H_    0.762760 0.073195 0.597673 0.175533
H8    H     H_    0.119090 0.173337 0.908332 0.122317
H9    H     H_    0.055290 0.487365 0.876048 0.139568
H10   H     H_    0.113954 0.223925 0.309125 0.155483
H11   H     H_    0.834578 0.034358 0.193565 0.154784
C23   C     C_2   0.135820 0.037587 0.184164 -0.345888
C24   C     C_2   0.972860 0.077760 0.217077 -0.122875
H12   H     H_    0.674497 0.177536 0.294104 0.125261
C25   C     C_2   0.812524 0.221010 0.318145 -0.317430
C26   C     C_2   0.975609 0.180637 0.285473 -0.109932
H13   H     H_    0.273794 0.081157 0.208116 0.126423
C27   C     C_R   0.408973 0.784944 0.677923 -0.056980
C28   C     C_R   0.538630 0.472384 0.826416 -0.053508
C29   C     C_R   0.532884 0.886708 0.817693 -0.125967
C30   C     C_R   0.480646 0.790175 0.754730 -0.141298
C31   C     C_R   0.394258 0.879987 0.664750 -0.213149
C32   C     C_R   0.450012 0.980568 0.728538 0.100005
C33   C     C_R   0.518064 0.981237 0.805629 0.118920
C34   C     C_R   0.444115 0.080064 0.718916 0.053552
C35   C     C_R   0.502692 0.177427 0.786630 0.070132
C36   C     C_R   0.565390 0.171851 0.861652 -0.179261
C37   C     C_R   0.573257 0.076020 0.870622 -0.219214
C38   C     C_R   0.386670 0.085252 0.643351 -0.186152
C39   C     C_R   0.388302 0.180373 0.633432 -0.173791
C40   C     C_R   0.437281 0.275463 0.698744 0.107489
C41   C     C_R   0.497514 0.276848 0.776742 0.092202
C42   C     C_R   0.423908 0.369492 0.685919 -0.116584
C43   C     C_R   0.472048 0.466380 0.748902 -0.150083
C44   C     C_R   0.548990 0.377848 0.840656 -0.210141
H14   H     H_    0.625027 0.076087 0.929503 0.117819
H15   H     H_    0.594501 0.385838 0.901840 0.090817
H16   H     H_    0.456985 0.537260 0.736861 0.091537
H17   H     H_    0.349563 0.179476 0.573350 0.167573
H18   H     H_    0.587434 0.887421 0.876384 0.143064
H19   H     H_    0.498204 0.718910 0.766053 0.091245
H20   H     H_    0.342298 0.872600 0.604302 0.097905
H21   H     H_    0.612237 0.240723 0.914832 0.122386
H22   H     H_    0.343820 0.016289 0.589689 0.141473
H23   H     H_    0.373723 0.368079 0.626557 0.157075
H24   H     H_    0.334292 0.667407 0.194806 0.154753
H25   H     H_    0.614939 0.591023 0.307971 0.152457
C45   C     C_2   0.314602 0.602282 0.319040 -0.344571
C46   C     C_2   0.476650 0.611068 0.285390 -0.127977
H26   H     H_    0.772547 0.636286 0.206681 0.126140
C47   C     C_2   0.634573 0.656085 0.183646 -0.344682
C48   C     C_2   0.472600 0.647347 0.217359 -0.124305
H27   H     H_    0.176670 0.622079 0.295968 0.127831
O11   O     O_R   0.421600 0.630430 0.917010 -0.537553
O12   O     O_R   0.793840 0.702190 0.087630 -0.542721
O13   O     O_R   0.964010 0.886170 0.088190 -0.535836
C49   C     C_R   0.631120 0.693288 0.116023 0.759089
O14   O     O_R   0.751460 0.619510 0.917500 -0.541295
O15   O     O_R   0.921330 0.802900 0.916840 -0.543022
C50   C     C_R   0.574394 0.578989 0.892881 0.682587
O16   O     O_R   0.464290 0.713700 0.088350 -0.537285
O17   O     O_3   0.609200 0.818520 0.002630 -0.375159
V3    V     V_3+5 0.884140 0.747190 0.002530 1.372809
O18   O     O_R   0.251150 0.814630 0.917340 -0.542497
C51   C     C_R   0.075136 0.823398 0.889567 0.691975
O19   O     O_R   0.293530 0.897310 0.087470 -0.542051
C52   C     C_R   0.131569 0.933957 0.116015 0.764729
V4    V     V_3+5 0.384070 0.769710 0.002370 1.376986
O20   O     O_3   0.109180 0.698190 0.002460 -0.374742
I1    I     I_    0.922229 0.187245 0.529399 -0.505464

loop_
_geom_bond_atom_site_label_1
_geom_bond_atom_site_label_2
_ccdc_geom_bond_type
C33   C37   A    
C13   C19   A    
C31   H20   S    
O17   V4    S    
C4    C6    S    
O2    C1    A    
C7    C8    A    
C1    O6    A    
C28   C44   A    
C5    C8    A    
C3    C25   S    
C47   C49   S    
C47   C48   D    
C14   C15   A    
C1    C27   S    
C16   C17   A    
O5    C3    A    
C18   C19   A    
C32   C34   A    
C41   C44   A    
V2    O10   S    
O18   C51   A    
C21   H2    S    
C31   C32   A    
C37   H14   S    
C23   C24   D    
C44   H15   S    
C28   C43   A    
H24   C48   S    
C29   H18   S    
O8    V2    S    
C36   H21   S    
C40   C42   A    
C39   H17   S    
O1    V2    S    
C11   C15   A    
O12   C49   A    
O7    V1    S    
O15   C51   A    
O13   V3    S    
C27   C30   A    
C30   H19   S    
C35   C41   A    
C34   C35   A    
O9    C4    A    
V4    O20   S    
O19   V4    S    
H25   C46   S    
O14   V3    S    
C24   C26   S    
H11   C24   S    
C23   C52   S    
O11   C50   A    
C42   C43   A    
C42   H23   S    
C12   C13   A    
O4    C2    A    
C8    H5    S    
C15   H1    S    
C13   C14   A    
O18   V4    S    
C23   H13   S    
C5    C9    A    
O12   V3    S    
C35   C36   A    
C7    C11   A    
O13   C52   A    
C17   C18   A    
C7    H4    S    
C6    C22   A    
C43   H16   S    
O17   V3    S    
C46   C48   S    
O14   C50   A    
C19   C22   A    
H26   C47   S    
C5    C51   S    
V3    O20   S    
O3    C4    A    
H12   C25   S    
C45   C46   D    
O6    V2    S    
O9    V2    S    
C10   C12   A    
O2    V1    S    
O15   V3    S    
C29   C33   A    
H10   C26   S    
C29   C30   A    
C28   C50   S    
O1    C2    A    
C12   C16   A    
O5    V1    S    
O11   V4    S    
O8    C3    A    
O16   V4    S    
C34   C38   A    
C20   C21   A    
O7    V2    S    
O4    V1    S    
O3    V1    S    
V1    O10   S    
C39   C40   A    
C18   C20   A    
C32   C33   A    
C9    H6    S    
C16   H8    S    
O19   C52   A    
C20   H9    S    
C40   C41   A    
C36   C37   A    
C6    C21   A    
C22   I1    S    
C49   O16   A    
C38   C39   A    
C27   C31   A    
C2    C45   S    
C25   C26   D    
C17   H3    S    
C10   C11   A    
C9    C10   A    
C45   H27   S    
C14   H7    S    
C38   H22   S    
