data_mof_unit_40148.cif
_audit_creation_date              2012-10-26T19:25:59-0400
_audit_creation_method            fapswitch 2.2
_symmetry_space_group_name_H-M    P1
_symmetry_Int_Tables_number       1
_space_group_crystal_system       triclinic
_cell_length_a                    15.301989
_cell_length_b                    14.090812
_cell_length_c                    11.831233
_cell_angle_alpha                 88.704082
_cell_angle_beta                  90.830599
_cell_angle_gamma                 89.60691
_cell_volume                      2550.03388408

loop_
_atom_site_label
_atom_site_type_symbol
_atom_type_description
_atom_site_fract_x
_atom_site_fract_y
_atom_site_fract_z
_atom_type_partial_charge
C1    C     C_R   0.329094 0.499981 0.501295 0.542613
C2    C     C_R   0.541711 0.203639 0.416950 0.096187
C3    C     C_R   0.558581 0.796189 0.436496 0.095911
C4    C     C_R   0.456313 0.204621 0.583568 0.103854
C5    C     C_R   0.562731 0.898083 0.443270 -0.042291
C6    C     C_R   0.455627 0.101422 0.587770 -0.022033
C7    C     C_R   0.442408 0.896222 0.572509 -0.020261
C8    C     C_R   0.545981 0.101100 0.422515 -0.024697
C9    C     C_R   0.502633 0.947863 0.508540 -0.044216
C10   C     C_R   0.502513 0.050654 0.507826 -0.046405
C11   C     C_R   0.621955 0.954158 0.380242 0.149046
C12   C     C_R   0.670428 0.500100 0.501550 0.573339
C13   C     C_R   0.405627 0.045562 0.665262 0.141976
C14   C     C_R   0.386247 0.950463 0.641882 0.141742
C15   C     C_R   0.593864 0.045255 0.345218 0.156172
C16   C     C_R   0.500729 0.500970 0.284443 0.552382
C17   C     C_R   0.503538 0.499161 0.715582 0.525313
C18   C     C_1   0.503265 0.502917 0.162446 -0.024767
C19   C     C_1   0.502100 0.498034 0.837755 -0.036783
C20   C     C_1   0.503749 0.502268 0.060095 -0.074317
C21   C     C_1   0.501962 0.499504 0.940100 -0.080082
C22   C     C_R   0.811966 0.476310 0.406072 0.102130
C23   C     C_R   0.903880 0.484457 0.402516 -0.001005
C24   C     C_R   0.183515 0.513455 0.601921 0.110667
C25   C     C_R   0.767124 0.502630 0.502581 0.011652
C26   C     C_R   0.231575 0.499549 0.501914 0.006533
C27   C     C_R   0.813469 0.536273 0.597358 -0.075246
C28   C     C_R   0.184958 0.484793 0.399321 -0.068344
C29   C     C_R   0.907049 0.539499 0.597479 -0.007006
C30   C     C_R   0.090997 0.485277 0.395991 -0.008192
C31   C     C_R   0.951950 0.513062 0.497855 0.007132
C32   C     C_R   0.045488 0.510973 0.494881 0.005507
C33   C     C_3   0.725823 0.494633 0.232648 -0.294469
C34   C     C_R   0.093041 0.530736 0.593362 0.004509
C35   C     C_3   0.308408 0.498572 0.744333 -0.270624
C36   C     C_R   0.762278 0.559997 0.697678 0.046424
C37   C     C_R   0.737922 0.487189 0.773325 -0.091069
C38   C     C_R   0.700693 0.509754 0.876135 -0.105822
C39   C     C_R   0.681516 0.604239 0.899817 -0.093268
C40   C     C_R   0.699393 0.676474 0.820806 -0.100497
C41   C     C_R   0.740251 0.654576 0.719695 -0.054787
C42   C     C_R   0.236218 0.468789 0.297060 0.045913
C43   C     C_R   0.258968 0.376164 0.267058 -0.057289
C44   C     C_R   0.296101 0.360435 0.162086 -0.104898
C45   C     C_R   0.958920 0.567297 0.692003 -0.022711
C46   C     C_R   0.311856 0.437132 0.088632 -0.092588
C47   C     C_R   0.295348 0.529980 0.121838 -0.111205
C48   C     C_R   0.258607 0.546089 0.226905 -0.091495
C49   C     C_R   0.927031 0.588487 0.805314 0.042990
C50   C     C_R   0.929014 0.681805 0.844394 -0.101985
C51   C     C_R   0.914591 0.699098 0.958471 -0.125218
C52   C     C_R   0.898324 0.623453 0.033457 -0.115635
C53   C     C_R   0.895012 0.530818 0.994218 -0.097800
C54   C     C_R   0.912475 0.513050 0.881599 -0.073914
C55   C     C_R   0.071903 0.431206 0.189585 0.043829
C56   C     C_R   0.039265 0.461928 0.299347 -0.018360
C57   C     C_R   0.087894 0.499119 0.104286 -0.069558
C58   C     C_R   0.102560 0.470735 0.994066 -0.095387
C59   C     C_R   0.095371 0.375182 0.966690 -0.117211
C60   C     C_R   0.079270 0.306987 0.051094 -0.127437
C61   C     C_R   0.067540 0.334772 0.162411 -0.103865
C62   C     C_R   0.386126 0.742626 0.649387 0.123689
C63   C     C_R   0.297576 0.729159 0.620373 -0.036377
C64   C     C_R   0.235720 0.716220 0.705237 -0.086989
C65   C     C_R   0.262042 0.710784 0.818930 -0.114147
C66   C     C_R   0.350409 0.719671 0.848168 -0.151108
C67   C     C_R   0.049245 0.564271 0.686802 -0.149482
C68   C     C_R   0.411969 0.737254 0.764150 -0.083630
C69   C     C_R   0.584235 0.248678 0.317659 0.139720
C70   C     C_R   0.533888 0.265376 0.218277 -0.033082
C71   C     C_R   0.574011 0.276774 0.113437 -0.112849
C72   C     C_R   0.664069 0.264686 0.104801 -0.114270
C73   C     C_R   0.714324 0.243806 0.201504 -0.125105
C74   C     C_R   0.675431 0.240006 0.308078 -0.051122
C75   C     C_R   0.604768 0.752514 0.341960 0.117017
C76   C     C_R   0.692979 0.725504 0.354008 -0.064965
C77   C     C_R   0.745548 0.719755 0.259012 -0.123930
C78   C     C_R   0.948537 0.462741 0.304669 -0.146440
C79   C     C_R   0.709414 0.735816 0.151104 -0.123734
C80   C     C_R   0.620402 0.756318 0.137966 -0.128365
C81   C     C_R   0.568261 0.764917 0.232949 -0.069679
C82   C     C_R   0.400833 0.253581 0.664747 0.130632
C83   C     C_R   0.433599 0.267387 0.774957 -0.037279
C84   C     C_R   0.376278 0.280605 0.863910 -0.128435
C85   C     C_R   0.286188 0.279546 0.844271 -0.132807
C86   C     C_R   0.252825 0.268920 0.734608 -0.137238
C87   C     C_R   0.309912 0.256385 0.644805 -0.073771
C88   C     C_3   0.776740 0.000098 0.354105 -0.313785
C89   C     C_R   0.443092 0.793416 0.568923 0.109964
C90   C     C_3   0.424351 0.049592 0.867472 -0.326478
C91   C     C_3   0.229974 0.946001 0.616610 -0.327878
C92   C     C_3   0.507848 0.044905 0.173543 -0.322516
Cu1   Cu    Cu3+1 0.500000 0.597420 0.500000 0.936988
Cu2   Cu    Cu3+1 0.500000 0.402580 0.500000 0.945490
H1    H     H_    0.086247 0.586797 0.759865 0.128968
H2    H     H_    0.340197 0.434117 0.714701 0.189701
H3    H     H_    0.753173 0.413816 0.755955 0.094068
H4    H     H_    0.686358 0.453962 0.937318 0.102072
H5    H     H_    0.651102 0.620630 0.978633 0.116820
H6    H     H_    0.683328 0.749410 0.839004 0.088213
H7    H     H_    0.757071 0.711027 0.660472 0.087190
H8    H     H_    0.243653 0.316313 0.322142 0.094840
H9    H     H_    0.310491 0.288829 0.136510 0.082058
H10   H     H_    0.338379 0.425085 0.006632 0.112230
H11   H     H_    0.309374 0.589094 0.065243 0.100145
H12   H     H_    0.912844 0.444955 0.229227 0.111204
H13   H     H_    0.243016 0.617936 0.250756 0.094719
H14   H     H_    0.944151 0.740353 0.787276 0.092533
H15   H     H_    0.917313 0.770825 0.989074 0.097116
H16   H     H_    0.889651 0.636468 0.122086 0.096475
H17   H     H_    0.881252 0.471928 0.050646 0.098470
H18   H     H_    0.914840 0.440397 0.853631 0.100994
H19   H     H_    0.087543 0.574042 0.122877 0.101752
H20   H     H_    0.116453 0.523567 0.929788 0.105910
H21   H     H_    0.101419 0.353778 0.880053 0.088876
H22   H     H_    0.074101 0.232923 0.029838 0.095039
H23   H     H_    0.798242 0.376305 0.284044 0.243085
H24   H     H_    0.051734 0.281889 0.226627 0.094248
H25   H     H_    0.275330 0.738690 0.533487 0.105301
H26   H     H_    0.167212 0.713455 0.682605 0.107400
H27   H     H_    0.213998 0.700118 0.884165 0.102573
H28   H     H_    0.370830 0.716563 0.936121 0.101437
H29   H     H_    0.479015 0.751505 0.788702 0.105583
H30   H     H_    0.463241 0.265492 0.221706 0.098259
H31   H     H_    0.535060 0.290465 0.038013 0.096092
H32   H     H_    0.694694 0.269902 0.023031 0.095632
H33   H     H_    0.783824 0.231026 0.194094 0.082707
H34   H     H_    0.776784 0.536555 0.189571 0.128187
H35   H     H_    0.715283 0.221276 0.381725 0.092277
H36   H     H_    0.723354 0.718664 0.437049 0.103382
H37   H     H_    0.814573 0.704694 0.269795 0.102813
H38   H     H_    0.750302 0.733258 0.077623 0.117624
H39   H     H_    0.592481 0.769384 0.054432 0.093476
H40   H     H_    0.500833 0.787621 0.221944 0.087721
H41   H     H_    0.502925 0.259939 0.793300 0.103001
H42   H     H_    0.401547 0.285706 0.949103 0.089562
H43   H     H_    0.242790 0.285197 0.914725 0.120638
H44   H     H_    0.182917 0.267607 0.719696 0.100594
H45   H     H_    0.677770 0.542379 0.271428 0.183349
H46   H     H_    0.283352 0.241768 0.561678 0.096926
H47   H     H_    0.731516 0.882877 0.438568 0.235056
H48   H     H_    0.843075 0.967535 0.356573 0.128002
H49   H     H_    0.773198 0.053247 0.421874 0.130145
H50   H     H_    0.768266 0.035473 0.270252 0.151681
H51   H     H_    0.308322 0.077155 0.779390 0.257566
H52   H     H_    0.493938 0.070433 0.859557 0.148458
H53   H     H_    0.397212 0.083107 0.943477 0.132180
H54   H     H_    0.420285 0.971267 0.878818 0.131663
H55   H     H_    0.297193 0.918221 0.768156 0.257289
H56   H     H_    0.690906 0.452584 0.168422 0.149048
H57   H     H_    0.170588 0.910872 0.649757 0.132797
H58   H     H_    0.237288 0.926826 0.526626 0.146239
H59   H     H_    0.221175 0.024091 0.622018 0.131871
H60   H     H_    0.641356 0.035587 0.182509 0.262367
H61   H     H_    0.509233 0.069232 0.083922 0.132094
H62   H     H_    0.495481 0.967297 0.176879 0.133430
H63   H     H_    0.453720 0.082528 0.215723 0.141989
H64   H     H_    0.181390 0.452773 0.763938 0.247232
H65   H     H_    0.315349 0.501484 0.837373 0.129224
H66   H     H_    0.339831 0.561408 0.708345 0.199327
N1    N     N_R   0.500000 0.743810 0.500000 -0.263796
N2    N     N_R   0.500000 0.256190 0.500000 -0.268254
N3    N     N_2   0.764786 0.431937 0.317597 -0.514391
N4    N     N_2   0.217745 0.497988 0.714266 -0.550211
N5    N     N_2   0.711966 0.926759 0.371990 -0.510712
N6    N     N_2   0.374853 0.081745 0.768562 -0.513279
N7    N     N_2   0.305801 0.914278 0.682178 -0.519737
N8    N     N_2   0.591103 0.065521 0.226768 -0.507987
O1    O     O_R   0.370260 0.582280 0.500020 -0.517666
O2    O     O_R   0.629740 0.417720 0.499980 -0.480487
O3    O     O_R   0.629740 0.582280 0.499980 -0.518110
O4    O     O_R   0.370260 0.417720 0.500020 -0.508792
O5    O     O_R   0.500010 0.582270 0.337200 -0.500245
O6    O     O_R   0.499990 0.417730 0.662800 -0.519371
O7    O     O_R   0.499990 0.582270 0.662800 -0.501606
O8    O     O_R   0.500010 0.417730 0.337200 -0.495400

loop_
_geom_bond_atom_site_label_1
_geom_bond_atom_site_label_2
_ccdc_geom_bond_type
C16   O5    A    
C66   C68   A    
C55   C56   S    
Cu1   Cu2   S    
C27   C29   A    
C73   C74   A    
H55   N7    S    
C87   H46   S    
C38   H4    S    
C2    N2    A    
C37   H3    S    
C57   C58   A    
C81   H40   S    
C53   C54   A    
H23   N3    S    
Cu1   O1    S    
C37   C38   A    
Cu2   O8    S    
C60   C61   A    
C91   N7    S    
C36   C37   A    
C19   C21   T    
C24   C26   A    
C91   H59   S    
C33   H56   S    
C85   C86   A    
C91   H58   S    
C48   H13   S    
C17   O7    A    
C82   C87   A    
C7    C89   A    
C62   C89   S    
C56   C78   A    
C7    C9    A    
C77   H37   S    
C1    O1    A    
C35   H66   S    
C90   H54   S    
Cu2   O4    S    
C11   C15   A    
C7    C14   A    
Cu1   O3    S    
C83   C84   A    
C47   H11   S    
C22   C25   A    
C45   C67   A    
C66   H28   S    
C70   C71   A    
C65   H27   S    
C30   C32   A    
C2    C69   S    
C3    C75   S    
C9    C10   A    
Cu2   N2    S    
C88   H49   S    
C83   H41   S    
H64   N4    S    
C16   O8    A    
C59   C60   A    
C51   H15   S    
C13   C14   A    
C90   N6    S    
C67   H1    S    
H60   N8    S    
C36   C41   A    
C24   N4    S    
C76   H36   S    
C68   H29   S    
C89   N1    A    
C44   H9    S    
C44   C46   A    
C12   O3    A    
H51   N6    S    
C77   C79   A    
C51   C52   A    
C76   C77   A    
C4    C6    A    
C39   C40   A    
C3    N1    A    
C86   C87   A    
C72   C73   A    
C57   H19   S    
C58   C59   A    
C35   H2    S    
C46   H10   S    
Cu1   O7    S    
C33   H34   S    
C24   C34   A    
C80   H39   S    
C63   C64   A    
C29   C45   A    
C92   H63   S    
C23   C31   A    
C75   C76   A    
C5    C9    A    
C90   H53   S    
C63   H25   S    
C92   N8    S    
C39   H5    S    
C47   C48   A    
C52   H16   S    
C62   C63   A    
C50   C51   A    
C54   H18   S    
C69   C74   A    
C92   H62   S    
C16   C18   S    
C42   C48   A    
C52   C53   A    
C84   C85   A    
Cu2   O6    S    
C8    C10   A    
C40   C41   A    
Cu1   N1    S    
C88   N5    S    
C8    C15   A    
C55   C57   A    
C43   C44   A    
C1    C26   S    
C4    N2    A    
C15   N8    S    
C60   H22   S    
C42   C43   A    
C85   H43   S    
C90   H52   S    
C17   O6    A    
C11   N5    S    
C88   H48   S    
C46   C47   A    
C84   H42   S    
C28   C42   S    
C33   N3    S    
C61   H24   S    
H47   N5    S    
C50   H14   S    
C31   C32   A    
C2    C8    A    
C80   C81   A    
C3    C5    A    
C34   C67   A    
C40   H6    S    
C12   O2    A    
C5    C11   A    
C75   C81   A    
C27   C36   S    
C25   C27   A    
C1    O4    A    
C26   C28   A    
C35   N4    S    
C64   H26   S    
C62   C68   A    
C12   C25   S    
C78   H12   S    
C64   C65   A    
C28   C30   A    
C43   H8    S    
C71   C72   A    
C29   C31   A    
C73   H33   S    
Cu2   O2    S    
C6    C13   A    
C91   H57   S    
C22   N3    S    
C53   H17   S    
C13   N6    S    
C38   C39   A    
C30   C56   A    
C33   H45   S    
C79   H38   S    
C55   C61   A    
Cu1   O5    S    
C17   C19   S    
C41   H7    S    
C45   C49   S    
C92   H61   S    
C18   C20   T    
C65   C66   A    
C23   C78   A    
C69   C70   A    
C35   H65   S    
C6    C10   A    
C86   H44   S    
C79   C80   A    
C70   H30   S    
C4    C82   S    
C20   C21   S    
C59   H21   S    
C49   C50   A    
C74   H35   S    
C72   H32   S    
C58   H20   S    
C22   C23   A    
C71   H31   S    
C82   C83   A    
C14   N7    S    
C88   H50   S    
C49   C54   A    
C32   C34   A    
