data_mof_unit_10117.cif
_audit_creation_date              2012-12-10T19:11:33-0500
_audit_creation_method            fapswitch 2.2
_symmetry_space_group_name_H-M    P1
_symmetry_Int_Tables_number       1
_space_group_crystal_system       triclinic
_cell_length_a                    7.780851
_cell_length_b                    9.091112
_cell_length_c                    17.21548
_cell_angle_alpha                 89.993894
_cell_angle_beta                  85.740532
_cell_angle_gamma                 89.968055
_cell_volume                      1214.40056675

loop_
_atom_site_label
_atom_site_type_symbol
_atom_type_description
_atom_site_fract_x
_atom_site_fract_y
_atom_site_fract_z
_atom_type_partial_charge
C1    C     C_R   0.499976 0.779982 0.500009 0.900388
C2    C     C_R   0.500038 0.220013 0.499961 0.833333
C3    C     C_1   0.499991 0.934616 0.499966 -0.114588
C4    C     C_1   0.500068 0.065364 0.499945 -0.148135
C5    C     C_R   0.477424 0.505543 0.650682 0.853692
C6    C     C_R   0.522550 0.498727 0.349682 0.879171
C7    C     C_R   0.462410 0.513945 0.736168 -0.188041
C8    C     C_R   0.535493 0.481238 0.265448 -0.163967
C9    C     C_R   0.589315 0.583263 0.778615 -0.118457
C10   C     C_R   0.623453 0.583687 0.215221 -0.130266
C11   C     C_R   0.570907 0.580365 0.860997 0.336692
C12   C     C_R   0.627551 0.559632 0.133779 0.345162
C13   C     C_R   0.430715 0.505170 0.899015 0.040817
C14   C     C_R   0.551347 0.431800 0.105337 0.026208
C15   C     C_R   0.301876 0.442347 0.857016 0.457776
C16   C     C_R   0.472919 0.327027 0.155953 0.452854
C17   C     C_R   0.318428 0.448057 0.775713 -0.273754
C18   C     C_R   0.462788 0.354240 0.235939 -0.273098
C19   C     C_2   0.418646 0.493609 0.984628 -0.030086
C20   C     C_2   0.538507 0.414696 0.020980 -0.003572
Cu1   Cu    Cu3+1 0.330920 0.500000 0.500000 1.032341
Cu2   Cu    Cu3+1 0.669080 0.500000 0.500000 1.059897
H1    H     H_    0.399037 0.275485 0.275666 0.147906
H2    H     H_    0.221038 0.396341 0.743070 0.179090
N1    N     N_1   0.923170 0.500000 0.500010 -0.035024
N2    N     N_1   0.076830 0.500000 0.499990 -0.040233
O1    O     O_R   0.357240 0.711600 0.500000 -0.586862
O2    O     O_R   0.642760 0.288400 0.500000 -0.578582
O3    O     O_R   0.642760 0.711600 0.500000 -0.552865
O4    O     O_R   0.357240 0.288400 0.500000 -0.584884
O5    O     O_R   0.340660 0.500000 0.613590 -0.590663
O6    O     O_R   0.659340 0.500000 0.386410 -0.577232
O7    O     O_R   0.626230 0.500000 0.613600 -0.567184
O8    O     O_R   0.373770 0.500000 0.386400 -0.574461
O9    O     O_3   0.163638 0.373184 0.896710 -0.657427
H3    H     H_    0.084157 0.336278 0.858696 0.346575
O10   O     O_3   0.400618 0.202817 0.125553 -0.680336
H4    H     H_    0.349903 0.141192 0.168931 0.340006
O11   O     O_3   0.699153 0.659409 0.080036 -0.644568
H5    H     H_    0.700420 0.758324 0.103870 0.359921
O12   O     O_3   0.685226 0.650003 0.906752 -0.652731
H6    H     H_    0.750094 0.726595 0.876215 0.360360
C21   C     C_2   0.740329 0.657451 0.738019 0.860104
O13   O     O_2   0.718971 0.753723 0.690044 -0.589643
O14   O     O_R   0.906857 0.617552 0.755308 -0.743898
H7    H     H_    0.999254 0.675403 0.723928 0.340551
C22   C     C_2   0.709467 0.713946 0.247364 0.845431
O15   O     O_2   0.635252 0.787073 0.299236 -0.610480
O16   O     O_R   0.875940 0.752546 0.218359 -0.743614
H8    H     H_    0.920774 0.842894 0.244821 0.346343
C23   C     C_2   0.666667 0.314989 0.978859 0.967690
O17   O     O_2   0.799681 0.283237 0.008682 -0.518927
O18   O     O_R   0.634075 0.253665 0.906902 -0.758429
H9    H     H_    0.731230 0.187936 0.885000 0.344237
C24   C     C_2   0.278687 0.580577 0.027608 0.956760
O19   O     O_2   0.215225 0.685637 0.995729 -0.523697
O20   O     O_R   0.214874 0.540318 0.102653 -0.739344
H10   H     H_    0.118799 0.607267 0.124338 0.381741

loop_
_geom_bond_atom_site_label_1
_geom_bond_atom_site_label_2
_ccdc_geom_bond_type
C5    O5    A    
C7    C17   A    
C6    O6    A    
C21   O13   D    
C15   C17   A    
O10   H4    S    
Cu2   O3    S    
C14   C20   S    
Cu1   O5    S    
O12   H6    S    
C2    C4    S    
C19   C20   D    
C13   C15   A    
C16   O10   S    
C2    O4    A    
C6    O8    A    
C12   O11   S    
C1    O3    A    
Cu1   O1    S    
C23   O17   D    
C22   O16   S    
C16   C18   A    
Cu2   O2    S    
Cu1   Cu2   S    
C21   O14   S    
C9    C11   A    
O20   H10   S    
Cu2   O6    S    
C10   C12   A    
C8    C10   A    
Cu1   N2    S    
C12   C14   A    
C11   O12   S    
C20   C23   S    
C24   O20   S    
C14   C16   A    
C24   O19   D    
C9    C21   S    
C17   H2    S    
C2    O2    A    
C13   C19   S    
C19   C24   S    
C18   H1    S    
C22   O15   D    
C7    C9    A    
C11   C13   A    
C1    O1    A    
O16   H8    S    
Cu1   O4    S    
C15   O9    S    
O11   H5    S    
C5    C7    S    
Cu2   O7    S    
C6    C8    S    
Cu1   O8    S    
C1    C3    S    
N1    N2    T    
O14   H7    S    
C10   C22   S    
C8    C18   A    
C3    C4    T    
O9    H3    S    
O18   H9    S    
C23   O18   S    
Cu2   N1    S    
C5    O7    A    
