data_mof_unit_32956.cif
_audit_creation_date              2012-12-11T14:15:45-0500
_audit_creation_method            fapswitch 2.2
_symmetry_space_group_name_H-M    P1
_symmetry_Int_Tables_number       1
_space_group_crystal_system       triclinic
_cell_length_a                    11.125509
_cell_length_b                    12.722159
_cell_length_c                    23.518909
_cell_angle_alpha                 90.396338
_cell_angle_beta                  96.403422
_cell_angle_gamma                 68.770068
_cell_volume                      3081.59097472

loop_
_atom_site_label
_atom_site_type_symbol
_atom_type_description
_atom_site_fract_x
_atom_site_fract_y
_atom_site_fract_z
_atom_type_partial_charge
C1    C     C_R   0.149792 0.616696 0.428886 0.546282
C2    C     C_2   0.179789 0.233421 0.226361 -0.104849
C3    C     C_2   0.156150 0.164976 0.263079 -0.113917
C4    C     C_R   0.748431 0.604760 0.404434 0.545843
C5    C     C_1   0.133255 0.198591 0.320836 -0.033815
C6    C     C_1   0.209236 0.197921 0.169483 -0.025227
C7    C     C_1   0.116801 0.231835 0.368581 0.008229
C8    C     C_1   0.166958 0.750265 0.123817 0.015560
C9    C     C_2   0.143095 0.688561 0.228243 -0.111812
C10   C     C_2   0.237163 0.677017 0.271439 -0.106526
C11   C     C_1   0.218963 0.652839 0.329156 -0.041063
C12   C     C_R   0.643120 0.567465 0.313492 -0.106697
C13   C     C_1   0.155023 0.720940 0.170958 -0.026168
C14   C     C_1   0.194853 0.634945 0.376169 0.002405
C15   C     C_1   0.628507 0.757104 0.864748 0.049155
C16   C     C_R   0.101370 0.282177 0.423426 0.541977
C17   C     C_2   0.700299 0.711407 0.760984 -0.098380
C18   C     C_2   0.612325 0.706171 0.718263 -0.096758
C19   C     C_1   0.650743 0.670929 0.662527 -0.016761
C20   C     C_1   0.664208 0.737675 0.817896 0.008920
C21   C     C_1   0.689695 0.639931 0.617159 0.022018
C22   C     C_R   0.217517 0.167808 0.850157 0.010760
C23   C     C_R   0.710958 0.729020 0.318696 -0.134797
C24   C     C_R   0.110534 0.216806 0.637935 0.007401
C25   C     C_R   0.004723 0.177123 0.715488 -0.111047
C26   C     C_R   0.003448 0.199758 0.657269 -0.120789
C27   C     C_R   0.220651 0.202659 0.675657 -0.114680
C28   C     C_R   0.149679 0.616080 0.591379 0.562482
C29   C     C_R   0.216047 0.194134 0.733346 0.010564
C30   C     C_R   0.109305 0.178828 0.754254 0.036914
C31   C     C_R   0.110941 0.164764 0.813115 -0.142351
C32   C     C_R   0.317110 0.196461 0.827939 0.125968
C33   C     C_R   0.315286 0.207194 0.769879 -0.102205
C34   C     C_R   0.697772 0.737481 0.259160 0.020071
C35   C     C_R   0.118917 0.746039 0.853597 0.018068
C36   C     C_R   0.189441 0.635426 0.651085 -0.005091
C37   C     C_R   0.317122 0.573152 0.744398 0.115839
C38   C     C_R   0.304710 0.565047 0.684008 0.079948
C39   C     C_R   0.095782 0.719232 0.677722 -0.150053
C40   C     C_R   0.749638 0.602158 0.566035 0.549328
C41   C     C_R   0.103185 0.723415 0.736318 -0.036132
C42   C     C_R   0.210431 0.646457 0.770969 0.025505
C43   C     C_R   0.207223 0.650967 0.830690 0.086326
C44   C     C_R   0.007115 0.815670 0.818558 0.068225
C45   C     C_R   0.667297 0.654064 0.227212 0.045302
C46   C     C_R   0.999681 0.802140 0.760208 -0.132126
C47   C     C_R   0.265440 0.110263 0.069356 0.548870
C48   C     C_R   0.600093 0.774697 0.081252 0.539392
C49   C     C_R   0.189373 0.787975 0.069817 0.545704
C50   C     C_R   0.243799 0.113801 0.906911 0.554739
C51   C     C_R   0.573849 0.776672 0.918069 0.549955
C52   C     C_R   0.100128 0.276214 0.584097 0.542087
C53   C     C_R   0.161922 0.786060 0.907806 0.564844
C54   C     C_R   0.665400 0.753353 0.139843 -0.000903
C55   C     C_R   0.691013 0.639765 0.345782 -0.014899
C56   C     C_R   0.665675 0.657122 0.168516 -0.098955
C57   C     C_R   0.634016 0.572044 0.254451 0.060598
C58   C     C_R   0.695020 0.836818 0.171103 -0.129809
C59   C     C_R   0.716297 0.826434 0.230853 -0.135627
C60   C     C_1   0.234796 0.162905 0.122786 0.018012
Cr1   Cr    Cr6+3 0.189770 0.415650 0.511620 1.068580
Cr2   Cr    Cr6+3 0.930400 0.667320 0.496770 1.025055
Cr3   Cr    Cr6+3 0.879870 0.417010 0.491650 1.046265
Cr4   Cr    Cr6+3 0.149500 0.973980 0.985330 1.075060
Cr5   Cr    Cr6+3 0.457000 0.976510 0.994660 1.086743
Cr6   Cr    Cr6+3 0.411170 0.724270 0.995270 1.095375
H1    H     H_    0.800928 0.691432 0.753938 0.144318
H2    H     H_    0.325852 0.689370 0.263972 0.154194
H3    H     H_    0.649892 0.589725 0.144460 0.181792
H4    H     H_    0.053961 0.677342 0.236079 0.139214
H5    H     H_    0.511938 0.724970 0.725415 0.153626
H6    H     H_    0.305206 0.212728 0.661062 0.151353
H7    H     H_    0.695650 0.911720 0.149746 0.145164
H8    H     H_    0.009556 0.777747 0.652992 0.148898
H9    H     H_    0.744437 0.787240 0.343607 0.133881
H10   H     H_    0.179937 0.315547 0.239287 0.149080
H11   H     H_    0.034380 0.144405 0.829528 0.155679
H12   H     H_    0.921674 0.165229 0.730413 0.143273
H13   H     H_    0.393818 0.223823 0.753004 0.156983
H14   H     H_    0.917092 0.209787 0.628195 0.143272
H15   H     H_    0.914702 0.856747 0.733203 0.135983
H16   H     H_    0.739309 0.891049 0.254866 0.122481
H17   H     H_    0.622689 0.500886 0.334093 0.167267
H18   H     H_    0.156881 0.082509 0.250341 0.137323
I1    I     I_    0.491691 0.207301 0.872935 -0.189931
I2    I     I_    0.275446 0.503906 0.885595 -0.253460
I3    I     I_    0.842456 0.941851 0.847949 -0.330061
I4    I     I_    0.505542 0.495957 0.791723 -0.269647
I5    I     I_    0.462249 0.452939 0.642710 -0.322142
I6    I     I_    0.568424 0.451808 0.210899 -0.401775
O1    O     O_R   0.196340 0.303200 0.448500 -0.504214
O2    O     O_R   0.555390 0.700940 0.062700 -0.510997
O3    O     O_R   0.295020 0.731920 0.049950 -0.481081
O4    O     O_R   0.199310 0.519670 0.454880 -0.486007
O5    O     O_R   0.094290 0.884230 0.921550 -0.479882
O6    O     O_R   0.168980 0.069410 0.926940 -0.497248
O7    O     O_R   0.358400 0.089990 0.927950 -0.476674
O8    O     O_R   0.544850 0.873850 0.939920 -0.481750
O9    O     O_R   0.536020 0.701900 0.936430 -0.481265
O10   O     O_R   0.277070 0.732810 0.932890 -0.473938
O11   O     O_3   0.339220 0.891590 0.991750 -0.277077
O12   O     O_R   0.811960 0.658090 0.547150 -0.503234
O13   O     O_R   0.045660 0.691380 0.441680 -0.510305
O14   O     O_R   0.811930 0.659460 0.430950 -0.503561
O15   O     O_R   0.757900 0.507620 0.421760 -0.513237
O16   O     O_R   0.988630 0.322990 0.439840 -0.494196
O17   O     O_R   0.196380 0.301720 0.573850 -0.507698
O18   O     O_R   0.199350 0.518300 0.571080 -0.462812
O19   O     O_R   0.045700 0.689900 0.567030 -0.527115
O20   O     O_R   0.757930 0.506140 0.547110 -0.488505
O21   O     O_R   0.988670 0.321620 0.556040 -0.501346
O22   O     O_3   0.000020 0.499990 0.500010 -0.256829
O23   O     O_R   0.113660 0.883270 0.047820 -0.503222
O24   O     O_R   0.186930 0.068530 0.043990 -0.495142
O25   O     O_R   0.377770 0.089040 0.054220 -0.493054
O26   O     O_R   0.562800 0.872960 0.056970 -0.499305

loop_
_geom_bond_atom_site_label_1
_geom_bond_atom_site_label_2
_ccdc_geom_bond_type
C24   C52   S    
C47   O24   A    
C49   O23   A    
C8    C13   T    
C53   O5    A    
C41   C42   A    
C37   I4    S    
C59   H16   S    
Cr5   O11   S    
C39   C41   A    
C48   C54   S    
Cr2   O19   S    
C38   I5    S    
C45   C57   A    
C29   C30   A    
C22   C32   A    
C19   C21   T    
C24   C26   A    
Cr5   O8    S    
C30   C31   A    
C11   C14   T    
C35   C53   S    
C29   C33   A    
C18   H5    S    
C17   C20   S    
C27   C29   A    
C18   C19   S    
C39   H8    S    
Cr6   O10   S    
C37   C42   A    
Cr1   O18   S    
C9    C13   S    
C47   C60   S    
C52   O17   A    
C45   C56   A    
C1    O4    A    
C41   C46   A    
C24   C27   A    
C15   C51   S    
Cr3   O15   S    
C44   I3    S    
C35   C43   A    
C9    C10   D    
C1    O13   A    
C16   O16   A    
C48   O26   A    
C51   O8    A    
Cr5   O25   S    
Cr6   O11   S    
C2    C6    S    
C44   C46   A    
C31   H11   S    
Cr2   O14   S    
C53   O10   A    
C51   O9    A    
C15   C20   T    
C54   C56   A    
C17   H1    S    
Cr4   O24   S    
C22   C31   A    
C25   H12   S    
C6    C60   T    
C9    H4    S    
Cr4   O6    S    
C57   I6    S    
C5    C7    T    
Cr1   O4    S    
C33   H13   S    
Cr6   O2    S    
Cr4   O11   S    
C52   O21   A    
C58   C59   A    
C26   H14   S    
C12   H17   S    
Cr6   O9    S    
C47   O25   A    
C37   C38   A    
C46   H15   S    
C23   C34   A    
C17   C18   D    
C34   C45   A    
Cr3   O16   S    
C35   C44   A    
Cr6   O3    S    
C12   C57   A    
C7    C16   S    
C4    C55   S    
C34   C59   A    
Cr5   O26   S    
C42   C43   A    
C2    H10   S    
Cr2   O13   S    
C54   C58   A    
C25   C30   A    
C50   O7    A    
Cr4   O23   S    
Cr3   O22   S    
C43   I2    S    
C36   C39   A    
Cr4   O5    S    
C23   H9    S    
C3    C5    S    
C40   O20   A    
C23   C55   A    
C10   H2    S    
C28   O19   A    
C4    O15   A    
C22   C50   S    
C32   C33   A    
Cr3   O20   S    
C36   C38   A    
C2    C3    D    
C25   C26   A    
Cr5   O7    S    
C50   O6    A    
C21   C40   S    
C28   O18   A    
C32   I1    S    
C4    O14   A    
Cr3   O21   S    
Cr1   O17   S    
C12   C55   A    
C10   C11   S    
C40   O12   A    
Cr2   O22   S    
C28   C36   S    
C16   O1    A    
C56   H3    S    
C48   O2    A    
C3    H18   S    
C1    C14   S    
C49   O3    A    
Cr1   O22   S    
C8    C49   S    
C27   H6    S    
Cr1   O1    S    
C58   H7    S    
Cr2   O12   S    
