data_mof_unit_57131.cif
_audit_creation_date              2013-03-05T16:45:28-0500
_audit_creation_method            fapswitch 2.2
_symmetry_space_group_name_H-M    P1
_symmetry_Int_Tables_number       1
_space_group_crystal_system       triclinic
_cell_length_a                    18.468695
_cell_length_b                    18.477355
_cell_length_c                    18.420941
_cell_angle_alpha                 119.914049
_cell_angle_beta                  89.98411
_cell_angle_gamma                 120.19151
_cell_volume                      4438.50220979

loop_
_atom_site_label
_atom_site_type_symbol
_atom_site_description
_atom_site_fract_x
_atom_site_fract_y
_atom_site_fract_z
_atom_type_partial_charge
Zn1   Zn    Zn3+2 0.543620 0.414150 0.457300 1.011800
Zn2   Zn    Zn3+2 0.542680 0.585840 0.456390 1.007425
Zn3   Zn    Zn3+2 0.543620 0.585850 0.629000 0.987953
Zn4   Zn    Zn3+2 0.370090 0.414160 0.457300 1.105630
O1    O     O_3   0.500000 0.500000 0.500000 -0.516780
O2    O     O_R   0.323160 0.439910 0.385120 -0.575057
O3    O     O_R   0.616440 0.439920 0.555110 -0.633113
O4    O     O_R   0.614860 0.560070 0.384480 -0.646183
O5    O     O_R   0.445540 0.560090 0.675280 -0.667560
O6    O     O_R   0.614860 0.729170 0.553580 -0.629201
O7    O     O_R   0.324090 0.270830 0.386020 -0.616886
O8    O     O_R   0.615510 0.729180 0.674390 -0.649687
O9    O     O_R   0.445540 0.270830 0.386020 -0.643798
O10   O     O_R   0.615510 0.439910 0.385120 -0.643117
O11   O     O_R   0.324090 0.439920 0.555110 -0.559978
O12   O     O_R   0.443960 0.560080 0.384480 -0.667757
O13   O     O_R   0.616440 0.560090 0.675280 -0.650098
C1    C     C_R   0.359646 0.500708 0.360905 0.889127
C2    C     C_R   0.641334 0.501169 0.639203 0.890515
C3    C     C_R   0.640583 0.501010 0.361967 0.829965
C4    C     C_R   0.360651 0.498106 0.639409 0.776687
C5    C     C_R   0.639173 0.778204 0.639121 0.844493
C6    C     C_R   0.360604 0.223006 0.361476 0.888195
C7    C     C_2   0.278339 0.944896 0.199594 0.344022
C8    C     C_2   0.193330 0.888342 0.195485 -0.396923
H1    H     H_    0.164756 0.923517 0.239274 0.144719
C9    C     C_2   0.335875 0.056779 0.266396 -0.200837
C10   C     C_2   0.303078 0.112230 0.300059 -0.325657
C11   C     C_2   0.782549 0.566213 0.839122 -0.179657
C12   C     C_2   0.797144 0.493758 0.807178 -0.241615
H2    H     H_    0.764675 0.427461 0.738724 0.194046
C13   C     C_2   0.723531 0.562443 0.782604 -0.157607
C14   C     C_2   0.701187 0.505683 0.693965 -0.225621
H3    H     H_    0.699205 0.609105 0.815499 0.168949
C15   C     C_2   0.278784 0.555467 0.837804 -0.064297
C16   C     C_2   0.190554 0.505382 0.806336 -0.200405
H4    H     H_    0.156695 0.467653 0.737142 0.198984
C17   C     C_2   0.333205 0.559800 0.779849 -0.285119
C18   C     C_2   0.304780 0.482573 0.693770 0.197274
H5    H     H_    0.398571 0.631067 0.809029 0.158102
H6    H     H_    0.653225 0.670410 0.204534 0.204559
C19   C     C_R   0.578707 0.707056 0.288795 0.376114
C20   C     C_R   0.495210 0.667392 0.299835 -0.145073
H7    H     H_    0.483651 0.717973 0.353430 0.196828
C21   C     C_R   0.424966 0.563073 0.240566 -0.002424
C22   C     C_R   0.438718 0.496274 0.169372 0.350934
C23   C     C_R   0.522019 0.537197 0.157902 -0.254442
H8    H     H_    0.534241 0.488380 0.103519 0.197819
C24   C     C_R   0.590527 0.641294 0.216082 -0.269374
C25   C     C_R   0.278689 0.525393 0.191301 0.300657
C26   C     C_R   0.193033 0.496238 0.195643 -0.173525
C27   C     C_R   0.161944 0.466515 0.252979 -0.102359
C28   C     C_R   0.218740 0.473460 0.310063 0.273418
C29   C     C_R   0.304498 0.503083 0.306142 -0.176599
C30   C     C_R   0.334918 0.530227 0.247089 -0.075012
C31   C     C_R   0.057055 0.501651 0.319341 -0.158796
H9    H     H_    0.109666 0.582875 0.356765 0.160428
C32   C     C_R   0.977160 0.469323 0.336895 -0.101425
C33   C     C_R   0.910500 0.364977 0.292524 -0.170110
H10   H     H_    0.849723 0.339913 0.307872 0.168636
C34   C     C_R   0.921938 0.292467 0.228314 -0.097422
H11   H     H_    0.868501 0.211968 0.193989 0.208228
C35   C     C_R   0.001805 0.323211 0.209358 0.392978
C36   C     C_R   0.070836 0.429607 0.257042 0.050192
H12   H     H_    0.576834 0.765357 0.959573 0.159417
C37   C     C_R   0.559872 0.832592 0.899353 -0.100675
H13   H     H_    0.499936 0.821650 0.914235 0.167205
C38   C     C_R   0.593673 0.878233 0.854386 -0.086992
H14   H     H_    0.559500 0.902347 0.834675 0.158758
C39   C     C_R   0.671929 0.893644 0.835856 0.159135
C40   C     C_R   0.716224 0.863434 0.863173 -0.008589
H15   H     H_    0.777180 0.875879 0.850089 0.151449
C41   C     C_R   0.681525 0.816567 0.907096 -0.109783
H16   H     H_    0.715397 0.792647 0.927489 0.130417
C42   C     C_R   0.603423 0.801201 0.925206 -0.084370
C43   C     C_R   0.760631 0.053247 0.844367 0.283733
C44   C     C_R   0.799416 0.107809 0.806206 -0.138180
C45   C     C_R   0.782276 0.052062 0.712809 0.112787
C46   C     C_R   0.729370 0.945354 0.660549 -0.112201
H17   H     H_    0.716962 0.904414 0.589479 0.198186
C47   C     C_R   0.693789 0.891193 0.698246 -0.125938
C48   C     C_R   0.709791 0.945824 0.791366 -0.121085
C49   C     C_R   0.761311 0.112187 0.624526 0.200322
C50   C     C_R   0.794129 0.162724 0.582488 0.213992
C51   C     C_R   0.882500 0.204093 0.582454 0.190304
C52   C     C_R   0.936805 0.193964 0.624190 -0.265519
H18   H     H_    0.004367 0.225055 0.623575 0.255618
C53   C     C_R   0.905012 0.142356 0.664880 0.262140
C54   C     C_R   0.816699 0.101849 0.665798 -0.140135
H19   H     H_    0.697606 0.239093 0.428539 0.256822
C55   C     C_R   0.758562 0.387836 0.456312 -0.210155
H20   H     H_    0.790148 0.425675 0.525993 0.208895
C56   C     C_R   0.772154 0.445629 0.422756 0.329513
C57   C     C_R   0.729314 0.393286 0.331105 -0.063106
C58   C     C_R   0.676471 0.285632 0.275620 -0.281389
H21   H     H_    0.644417 0.246394 0.205659 0.212441
C59   C     C_R   0.664806 0.228687 0.309501 0.313861
C60   C     C_R   0.705752 0.280944 0.400511 -0.171702
C61   C     C_R   0.786386 0.446443 0.233892 -0.207148
H22   H     H_    0.815642 0.404919 0.220755 0.181402
C62   C     C_R   0.799561 0.498707 0.195249 -0.048378
C63   C     C_R   0.760495 0.552206 0.212139 0.002452
C64   C     C_R   0.711347 0.554040 0.269094 -0.232187
H23   H     H_    0.681693 0.595077 0.281754 0.178577
C65   C     C_R   0.697997 0.501568 0.307650 -0.013012
C66   C     C_R   0.737228 0.448166 0.290867 0.097697
C67   C     C_R   0.822973 0.710833 0.217444 -0.110045
H24   H     H_    0.863114 0.756666 0.286288 0.164566
C68   C     C_R   0.828244 0.759137 0.176556 -0.068416
C69   C     C_R   0.776536 0.700758 0.087772 -0.114275
C70   C     C_R   0.719584 0.593953 0.039649 -0.123123
C71   C     C_R   0.714356 0.545319 0.080144 -0.134262
H25   H     H_    0.670086 0.462542 0.042336 0.142776
C72   C     C_R   0.766102 0.603596 0.169286 0.107083
Zn5   Zn    Zn3+2 0.953650 0.585790 0.045310 0.986611
Zn6   Zn    Zn3+2 0.953650 0.414090 0.873610 1.031936
Zn7   Zn    Zn3+2 0.954590 0.414100 0.046220 1.054607
Zn8   Zn    Zn3+2 0.127180 0.585790 0.045310 1.097222
O14   O     O_3   0.997270 0.499940 0.002610 -0.529886
O15   O     O_R   0.173180 0.560020 0.947500 -0.600418
O16   O     O_R   0.881750 0.560030 0.117490 -0.639768
O17   O     O_R   0.880830 0.439850 0.827330 -0.624703
O18   O     O_R   0.053310 0.439870 0.118130 -0.637039
O19   O     O_R   0.881750 0.270770 0.828220 -0.653792
O20   O     O_R   0.173180 0.729110 0.116590 -0.591526
O21   O     O_R   0.882410 0.270770 0.949030 -0.579498
O22   O     O_R   0.051730 0.729120 0.116590 -0.645628
O23   O     O_R   0.880830 0.560020 0.947500 -0.644116
O24   O     O_R   0.174110 0.560030 0.117490 -0.598065
O25   O     O_R   0.051730 0.439850 0.827330 -0.637932
O26   O     O_R   0.882410 0.439870 0.118130 -0.633597
C73   C     C_R   0.136317 0.500715 0.863103 0.893031
C74   C     C_R   0.856629 0.498875 0.140582 0.802727
C75   C     C_R   0.856298 0.499092 0.863404 0.877214
C76   C     C_R   0.137694 0.499077 0.141499 0.871649
C77   C     C_R   0.856967 0.221486 0.863761 0.879035
C78   C     C_R   0.136737 0.776970 0.138913 0.891979
N1    N     N_R   0.315549 0.898733 0.139476 0.241114
O27   O     O_R   0.396848 0.930164 0.168514 -0.287735
O28   O     O_R   0.274133 0.838466 0.054134 -0.367834
N2    N     N_R   0.225601 0.380995 0.655984 0.197823
O29   O     O_R   0.173088 0.326111 0.575120 -0.299846
O30   O     O_R   0.212105 0.338451 0.698129 -0.320067
N3    N     N_R   0.650620 0.813762 0.350167 0.222138
O31   O     O_R   0.727610 0.850801 0.338983 -0.379347
O32   O     O_R   0.640432 0.874469 0.418912 -0.347694
N4    N     N_R   0.369055 0.388553 0.107446 0.223845
O33   O     O_R   0.305692 0.340048 0.130972 -0.350750
O34   O     O_R   0.372626 0.336216 0.029113 -0.321029
N5    N     N_R   0.307370 0.544754 0.126492 0.217779
O35   O     O_R   0.266848 0.471187 0.042134 -0.317788
O36   O     O_R   0.374245 0.635448 0.151634 -0.347455
N6    N     N_R   0.190620 0.456204 0.376036 0.221017
O37   O     O_R   0.128580 0.364445 0.352747 -0.304950
O38   O     O_R   0.229724 0.531876 0.459869 -0.372271
H26   H     H_    0.967602 0.525171 0.386275 0.195951
N7    N     N_R   0.012780 0.246182 0.144976 0.233796
O39   O     O_R   0.065736 0.264847 0.100402 -0.317693
O40   O     O_R   0.964416 0.153850 0.125499 -0.319514
H27   H     H_    0.407362 0.094948 0.284418 0.223151
N8    N     N_R   0.769503 0.106005 0.936858 0.217511
O41   O     O_R   0.724223 0.144157 0.964934 -0.373011
O42   O     O_R   0.816888 0.108474 0.991395 -0.347123
N9    N     N_R   0.673545 0.077053 0.630115 0.232133
O43   O     O_R   0.604782 0.014374 0.558550 -0.269014
O44   O     O_R   0.662172 0.108955 0.707082 -0.384800
N10   N     N_R   0.740132 0.179975 0.547101 0.251626
O45   O     O_R   0.675964 0.105678 0.471296 -0.248886
O46   O     O_R   0.761124 0.272327 0.585783 -0.414192
N11   N     N_R   0.917999 0.256452 0.540367 0.256259
O47   O     O_R   0.003211 0.324183 0.566403 -0.321685
O48   O     O_R   0.866766 0.231356 0.471469 -0.293971
N12   N     N_R   0.963977 0.134462 0.706843 0.227536
O49   O     O_R   0.934059 0.054119 0.707160 -0.348231
O50   O     O_R   0.049392 0.203967 0.738472 -0.302969
N13   N     N_R   0.828334 0.555940 0.482285 0.198778
O51   O     O_R   0.840975 0.601316 0.567072 -0.379984
O52   O     O_R   0.872969 0.611598 0.453932 -0.392803
H28   H     H_    0.232436 0.077379 0.278499 0.176460
N14   N     N_R   0.612319 0.118497 0.251633 0.232079
O53   O     O_R   0.599522 0.065478 0.283331 -0.277086
O54   O     O_R   0.578671 0.070223 0.166371 -0.329779
H29   H     H_    0.872196 0.841817 0.213761 0.172749
H30   H     H_    0.780522 0.738263 0.056286 0.138010
H31   H     H_    0.679507 0.548854 0.970976 0.150211
H32   H     H_    0.813381 0.629568 0.909047 0.180512
H33   H     H_    0.728140 0.462839 0.659516 0.165374
H34   H     H_    0.312972 0.599047 0.908313 0.207575

loop_
_geom_bond_atom_site_label_1
_geom_bond_atom_site_label_2
_geom_bond_distance
_ccdc_geom_bond_type
C37   C38   1.397848 A    
C49   N9    1.437921 S    
C28   N6    1.438028 S    
C56   C57   1.419243 A    
Zn5   O16   1.937088 S    
C41   C42   1.398147 A    
C41   H16   1.082430 S    
O25   C73   1.278233 A    
C58   H21   1.083417 S    
C7    C9    1.473467 S    
C71   C72   1.404097 A    
N8    O41   1.301082 A    
Zn6   O14   1.941177 S    
C23   C24   1.395018 A    
O26   C74   1.287896 A    
C44   C45   1.423372 A    
C11   H32   1.086187 S    
C62   C63   1.415970 A    
Zn6   O17   1.952250 S    
C49   C50   1.410921 A    
Zn1   O1    1.955621 S    
N9    O43   1.300314 A    
N4    O34   1.301534 A    
C70   C71   1.398055 A    
C11   C13   1.459028 S    
Zn7   O14   1.948184 S    
C51   C52   1.401685 A    
C12   H2    1.082222 S    
C52   C53   1.401938 A    
N11   O47   1.301453 A    
O8    C5    1.273699 A    
Zn5   O22   1.930553 S    
C31   H9    1.083293 S    
O9    C6    1.285962 A    
C22   C23   1.404431 A    
O7    C6    1.280914 A    
C34   C35   1.405420 A    
Zn8   O14   1.954509 S    
O17   C75   1.272102 A    
Zn3   O8    1.931618 S    
C63   C64   1.385923 A    
O24   C76   1.284984 A    
C26   C76   1.465859 S    
C50   C51   1.412006 A    
C64   C65   1.396972 A    
N7    O39   1.300933 A    
C57   C66   1.483104 S    
N4    O33   1.301068 A    
C15   H34   1.086282 S    
C12   C75   1.437532 S    
C23   H8    1.082362 S    
C67   H24   1.083030 S    
C31   C36   1.403820 A    
C39   C40   1.404909 A    
Zn8   O20   1.930894 S    
N6    O38   1.301056 A    
Zn2   O12   1.950657 S    
Zn7   O21   1.928084 S    
C68   H29   1.082242 S    
N13   O52   1.301069 A    
C37   H13   1.082309 S    
O21   C77   1.288656 A    
C33   H10   1.077927 S    
N7    O40   1.301587 A    
O15   C73   1.277625 A    
C67   C68   1.398729 A    
C43   N8    1.436279 S    
C57   C58   1.405026 A    
O2    C1    1.285806 A    
H6    C24   1.078409 S    
C71   H25   1.083055 S    
N8    O42   1.300711 A    
N14   O54   1.301668 A    
C59   C60   1.402335 A    
N12   O50   1.301481 A    
C45   C54   1.485410 S    
C49   C54   1.415176 A    
C70   H31   1.082265 S    
C33   C34   1.393773 A    
O19   C77   1.281665 A    
C26   C27   1.416993 A    
C5    C47   1.475450 S    
O10   C3    1.274849 A    
C15   C17   1.469717 S    
C43   C44   1.415574 A    
N10   O46   1.300735 A    
C27   C36   1.482802 S    
C43   C48   1.402785 A    
N10   O45   1.300603 A    
C40   C41   1.398438 A    
C52   H18   1.082881 S    
C38   H14   1.083050 S    
C59   N14   1.439496 S    
O20   C78   1.280598 A    
C8    H1    1.083246 S    
N12   O49   1.301062 A    
O6    C5    1.293339 A    
C47   C48   1.421958 A    
Zn5   O23   1.945078 S    
C69   C70   1.398095 A    
O18   C76   1.275455 A    
C15   C16   1.340318 D    
C13   H3    1.086626 S    
C8    C78   1.453124 S    
C20   H7    1.083520 S    
C67   C72   1.403719 A    
C11   C12   1.337299 D    
Zn3   O5    1.941968 S    
O23   C75   1.272941 A    
C55   C56   1.405014 A    
N3    O32   1.301010 A    
C25   N5    1.438362 S    
C22   N4    1.441820 S    
C4    C18   1.462222 S    
C25   C26   1.408881 A    
C14   H33   1.082739 S    
O4    C3    1.287822 A    
C6    C10   1.449852 S    
C7    C8    1.354134 D    
Zn4   O7    1.931044 S    
C63   C72   1.477906 S    
C20   C21   1.406113 A    
C32   H26   1.081829 S    
C18   N2    1.443145 S    
Zn4   O2    1.947280 S    
N13   O51   1.301569 A    
C61   C62   1.395609 A    
Zn5   O14   1.955624 S    
C19   N3    1.439897 S    
N5    O36   1.301043 A    
C46   H17   1.084762 S    
C53   N12   1.441326 S    
Zn2   O1    1.948185 S    
Zn1   O9    1.930449 S    
C19   C20   1.402938 A    
C35   N7    1.442157 S    
C9    H27   1.086689 S    
Zn2   O6    1.928084 S    
C55   H20   1.082503 S    
C27   C28   1.397539 A    
C46   C47   1.395341 A    
C3    C65   1.457497 S    
C39   C48   1.483190 S    
C61   C66   1.386352 A    
C29   C30   1.418070 A    
C16   H4    1.085081 S    
Zn6   O19   1.931466 S    
C16   C73   1.451483 S    
Zn1   O3    1.945080 S    
Zn2   O4    1.940836 S    
C51   N11   1.441088 S    
C2    C14   1.438899 S    
Zn4   O1    1.954513 S    
Zn3   O1    1.941177 S    
C58   C59   1.403551 A    
C28   C29   1.407404 A    
N1    O28   1.301719 A    
C62   C74   1.457455 S    
C65   C66   1.417350 A    
C56   N13   1.441459 S    
O3    C2    1.272916 A    
C25   C30   1.399376 A    
H12   C42   1.082346 S    
C61   H22   1.082077 S    
N3    O31   1.301673 A    
C7    N1    1.439866 S    
C13   C14   1.339167 D    
Zn4   O11   1.935230 S    
N2    O30   1.301670 A    
C32   C33   1.393722 A    
C40   H15   1.083090 S    
C50   N10   1.431220 S    
N2    O29   1.301068 A    
C17   H5    1.084353 S    
C45   C46   1.392375 A    
O5    C4    1.282989 A    
C17   C18   1.347704 D    
N11   O48   1.301334 A    
C37   C42   1.398258 A    
N9    O44   1.300987 A    
O13   C2    1.272766 A    
C31   C32   1.394459 A    
Zn3   O13   1.952250 S    
C55   C60   1.395341 A    
Zn7   O18   1.950552 S    
C34   H11   1.082620 S    
Zn7   O26   1.940836 S    
C10   H28   1.083867 S    
Zn8   O15   1.935230 S    
N1    O27   1.300545 A    
C1    C29   1.465144 S    
C19   C24   1.400550 A    
C69   H30   1.082407 S    
C35   C36   1.420977 A    
C44   C77   1.483148 S    
C21   C22   1.417193 A    
O11   C4    1.276122 A    
Zn6   O25   1.941972 S    
C53   C54   1.416161 A    
C21   C30   1.485277 S    
O12   C1    1.274328 A    
C64   H23   1.081893 S    
Zn8   O24   1.947431 S    
C38   C39   1.403283 A    
N5    O35   1.301238 A    
Zn1   O10   1.936984 S    
O22   C78   1.287331 A    
O16   C74   1.274790 A    
N6    O37   1.300913 A    
C68   C69   1.398412 A    
H19   C60   1.080900 S    
N14   O53   1.301582 A    
C9    C10   1.338480 D    
