data_mof_unit_15952.cif
_audit_creation_date              2013-03-05T16:02:22-0500
_audit_creation_method            fapswitch 2.2
_symmetry_space_group_name_H-M    P1
_symmetry_Int_Tables_number       1
_space_group_crystal_system       triclinic
_cell_length_a                    15.053989
_cell_length_b                    14.171952
_cell_length_c                    10.84616
_cell_angle_alpha                 88.680072
_cell_angle_beta                  86.427394
_cell_angle_gamma                 89.283146
_cell_volume                      2308.71567042

loop_
_atom_site_label
_atom_site_type_symbol
_atom_site_description
_atom_site_fract_x
_atom_site_fract_y
_atom_site_fract_z
_atom_type_partial_charge
O1    O     O_R   0.367860 0.580280 0.500020 -0.633969
O2    O     O_R   0.367860 0.419720 0.500020 -0.573952
C1    C     C_R   0.327384 0.500418 0.493345 0.999041
O3    O     O_R   0.500000 0.580270 0.314790 -0.621359
O4    O     O_R   0.500000 0.419730 0.314790 -0.599540
C2    C     C_R   0.499142 0.500714 0.258043 0.922191
Zn1   Zn    Zn3+2 0.500020 0.607200 0.499990 1.029192
Zn2   Zn    Zn3+2 0.500020 0.392800 0.499990 1.094150
O5    O     O_R   0.632160 0.580270 0.499960 -0.606447
O6    O     O_R   0.632160 0.419730 0.499960 -0.572903
O7    O     O_R   0.500030 0.580270 0.685200 -0.603796
O8    O     O_R   0.500030 0.419730 0.685200 -0.571582
C3    C     C_R   0.673622 0.499176 0.495182 0.937476
C4    C     C_R   0.497255 0.499889 0.742677 0.975731
C5    C     C_3   0.458495 0.595729 0.074759 -0.482351
C6    C     C_3   0.441221 0.420462 0.080021 -0.401452
H1    H     H_    0.503842 0.655097 0.090532 0.217112
H2    H     H_    0.452567 0.351620 0.127781 0.225114
H3    H     H_    0.395279 0.612106 0.129076 0.234372
H4    H     H_    0.371355 0.439234 0.105969 0.292511
C7    C     C_3   0.443765 0.590139 0.934928 0.129457
C8    C     C_3   0.457734 0.407345 0.939752 0.095124
H5    H     H_    0.471371 0.655946 0.892566 0.172785
H6    H     H_    0.510440 0.352496 0.925664 0.163613
C9    C     C_3   0.598152 0.488479 0.063084 0.228331
C10   C     C_3   0.500533 0.501640 0.121960 -0.136987
C11   C     C_3   0.497297 0.501661 0.879480 -0.251204
C12   C     C_3   0.596992 0.514649 0.920530 0.111680
C13   C     C_R   0.820686 0.427819 0.426902 0.296237
C14   C     C_R   0.770309 0.496470 0.493602 -0.178139
C15   C     C_R   0.811980 0.564068 0.560840 -0.172574
C16   C     C_R   0.904253 0.566030 0.563373 0.048904
C17   C     C_R   0.954691 0.496576 0.497934 0.012621
C18   C     C_R   0.913328 0.424465 0.434450 -0.070441
C19   C     C_R   0.947360 0.636214 0.628093 0.127680
C20   C     C_R   0.040359 0.631012 0.636359 0.193013
C21   C     C_R   0.089411 0.559035 0.573985 -0.078092
C22   C     C_R   0.047221 0.499220 0.495023 -0.019628
C23   C     C_R   0.098187 0.440289 0.414608 -0.003289
C24   C     C_R   0.057732 0.367273 0.355882 -0.139490
C25   C     C_R   0.966800 0.353464 0.375019 0.314092
C26   C     C_R   0.179391 0.540256 0.591699 0.222701
C27   C     C_R   0.231348 0.500123 0.493053 -0.288794
C28   C     C_R   0.189939 0.451991 0.400883 0.247686
H7    H     H_    0.770829 0.614491 0.611879 0.212250
H8    H     H_    0.097853 0.315342 0.305242 0.230181
C29   C     C_R   0.577696 0.801059 0.489799 0.250636
C30   C     C_R   0.572622 0.196553 0.531192 0.307289
N1    N     N_R   0.500070 0.750030 0.500050 -0.135580
N2    N     N_R   0.500070 0.249970 0.500050 -0.138466
C31   C     C_R   0.420366 0.798567 0.498655 -0.023624
C32   C     C_R   0.423405 0.203767 0.476136 0.008905
C33   C     C_R   0.416475 0.899649 0.489689 -0.078988
C34   C     C_R   0.417851 0.102811 0.480139 -0.091502
C35   C     C_R   0.495567 0.949639 0.500034 0.049934
C36   C     C_R   0.495863 0.050147 0.498288 0.037794
C37   C     C_R   0.576031 0.899067 0.507409 -0.003826
C38   C     C_R   0.574908 0.097960 0.517239 -0.023034
C39   C     C_R   0.337235 0.952025 0.469890 0.135764
C40   C     C_R   0.337849 0.053058 0.465197 0.157460
C41   C     C_R   0.654117 0.045666 0.527820 -0.104650
C42   C     C_R   0.654582 0.948202 0.523334 -0.134423
H9    H     H_    0.360206 0.758115 0.499710 0.185447
H10   H     H_    0.365594 0.245932 0.459111 0.215778
H11   H     H_    0.717406 0.079256 0.536528 0.210344
H12   H     H_    0.717219 0.911708 0.534489 0.194312
I1    I     I_    0.108801 0.740760 0.724149 -0.037997
N3    N     N_R   0.208005 0.530385 0.715910 0.264705
O9    O     O_R   0.149659 0.533619 0.809587 -0.253438
O10   O     O_R   0.283429 0.488709 0.733969 -0.331502
N4    N     N_R   0.238710 0.417520 0.292846 0.172783
O11   O     O_R   0.209633 0.437753 0.184752 -0.293708
O12   O     O_R   0.297373 0.350179 0.302445 -0.420838
N5    N     N_R   0.931742 0.263794 0.344168 0.255998
O13   O     O_R   0.884172 0.215818 0.427384 -0.317570
O14   O     O_R   0.961528 0.222046 0.243993 -0.276968
I2    I     I_    0.695499 0.753197 0.388766 -0.224512
I3    I     I_    0.667769 0.247573 0.646889 -0.135727
I4    I     I_    0.218373 0.878709 0.434262 -0.190695
I5    I     I_    0.216884 0.130185 0.438190 -0.129372
N6    N     N_R   0.349263 0.595184 0.909431 0.266859
O15   O     O_R   0.324489 0.658616 0.829417 -0.334939
O16   O     O_R   0.288695 0.560537 0.987836 -0.252098
N7    N     N_R   0.378646 0.369830 0.884069 0.269607
O17   O     O_R   0.390192 0.303784 0.802957 -0.338465
O18   O     O_R   0.299845 0.377376 0.939729 -0.209608
I6    I     I_    0.696568 0.566548 0.155280 -0.125697
I7    I     I_    0.641468 0.341774 0.099771 -0.093544
I8    I     I_    0.647818 0.656423 0.868606 -0.251944
I9    I     I_    0.703669 0.445437 0.817749 -0.185148
N8    N     N_R   0.781705 0.375916 0.332475 0.214920
O19   O     O_R   0.729111 0.305852 0.362047 -0.317751
O20   O     O_R   0.817314 0.382463 0.220155 -0.307068
I10   I     I_    0.873969 0.752121 0.709902 -0.163110

loop_
_geom_bond_atom_site_label_1
_geom_bond_atom_site_label_2
_geom_bond_distance
_ccdc_geom_bond_type
C35   C36   1.424140 A    
C19   C20   1.409335 A    
C13   N8    1.433436 S    
N6    O15   1.302443 A    
C33   C39   1.422137 A    
C20   I1    2.148927 S    
C37   C42   1.401651 A    
C29   N1    1.379200 A    
C34   C40   1.422929 A    
C9    C12   1.582799 S    
C5    H3    1.112431 S    
C1    C27   1.445984 S    
C21   C22   1.403619 A    
N5    O14   1.301495 A    
C20   C21   1.412151 A    
N7    O18   1.301411 A    
C14   C15   1.395481 A    
O7    C4    1.285795 A    
N8    O20   1.301818 A    
C9    I6    2.166964 S    
C28   N4    1.435601 S    
C5    H1    1.112984 S    
C30   I3    2.107322 S    
C21   C26   1.401288 A    
O5    C3    1.301467 A    
C25   N5    1.436593 S    
N3    O9    1.302235 A    
N1    C31   1.376290 A    
N2    C32   1.375509 A    
C12   I8    2.207303 S    
C4    C11   1.484612 S    
C6    H4    1.102616 S    
C38   C41   1.405454 A    
C30   N2    1.376068 A    
C7    C11   1.591355 S    
C39   C40   1.431695 A    
C26   N3    1.443000 S    
C18   C25   1.421597 A    
O3    Zn1   2.053283 S    
N6    O16   1.300368 A    
C32   C34   1.433730 A    
Zn1   O7    2.036104 S    
C33   C35   1.404847 A    
C6    C10   1.558235 S    
C22   C23   1.407494 A    
C34   C36   1.405371 A    
N5    O13   1.301201 A    
C42   H12   1.081842 S    
C16   C19   1.417135 A    
C3    C14   1.454590 S    
C31   H9    1.077210 S    
N7    O17   1.301948 A    
Zn1   N1    2.024205 S    
O3    C2    1.297493 A    
C32   H10   1.072620 S    
C39   I4    2.140525 S    
N8    O19   1.299618 A    
N4    O12   1.298969 A    
C5    C10   1.558336 S    
C9    C10   1.576024 S    
C13   C18   1.402259 A    
C9    I7    2.206003 S    
O1    C1    1.297702 A    
C8    N7    1.478235 S    
C24   H8    1.083636 S    
C27   C28   1.404626 A    
C13   C14   1.410911 A    
C29   C37   1.406094 A    
C15   C16   1.391695 A    
Zn2   O8    2.053379 S    
C17   C18   1.417037 A    
C2    C10   1.474578 S    
Zn2   O6    2.030176 S    
C24   C25   1.387322 A    
C7    N6    1.466652 S    
C8    C11   1.581086 S    
C35   C37   1.405358 A    
C8    H6    1.109983 S    
C26   C27   1.411607 A    
C29   I2    2.137243 S    
Zn2   N2    2.024157 S    
C23   C24   1.393498 A    
C19   I10   2.146100 S    
Zn1   O5    2.020800 S    
C40   I5    2.144413 S    
C6    C8    1.541324 S    
O1    Zn1   2.030446 S    
O2    Zn2   2.021073 S    
O8    C4    1.307328 A    
O6    C3    1.292601 A    
O4    Zn2   2.036008 S    
C30   C38   1.408648 A    
C23   C28   1.391555 A    
C17   C22   1.392288 A    
C16   C17   1.412605 A    
C7    H5    1.104427 S    
O2    C1    1.291783 A    
N4    O11   1.301416 A    
O4    C2    1.290074 A    
C36   C38   1.405148 A    
C41   C42   1.383141 A    
C41   H11   1.080693 S    
C5    C7    1.550326 S    
C6    H2    1.110370 S    
C15   H7    1.079477 S    
C11   C12   1.605772 S    
N3    O10   1.296932 A    
C12   I9    2.138138 S    
C31   C33   1.434302 A    
