data_mof_unit_27428.cif
_audit_creation_date              2013-03-05T16:02:23-0500
_audit_creation_method            fapswitch 2.2
_symmetry_space_group_name_H-M    P1
_symmetry_Int_Tables_number       1
_space_group_crystal_system       triclinic
_cell_length_a                    15.027912
_cell_length_b                    14.099205
_cell_length_c                    10.61787
_cell_angle_alpha                 89.352459
_cell_angle_beta                  88.565938
_cell_angle_gamma                 91.188113
_cell_volume                      2248.38598716

loop_
_atom_site_label
_atom_site_type_symbol
_atom_site_description
_atom_site_fract_x
_atom_site_fract_y
_atom_site_fract_z
_atom_type_partial_charge
O1    O     O_R   0.367860 0.580280 0.500020 -0.626445
O2    O     O_R   0.367860 0.419720 0.500020 -0.620014
C1    C     C_R   0.327142 0.499086 0.501569 0.871031
O3    O     O_R   0.500000 0.580270 0.314790 -0.631627
O4    O     O_R   0.500000 0.419730 0.314790 -0.626436
C2    C     C_R   0.495927 0.500111 0.257843 0.853644
Zn1   Zn    Zn3+2 0.500020 0.607200 0.499990 0.980755
Zn2   Zn    Zn3+2 0.500020 0.392800 0.499990 0.970238
O5    O     O_R   0.632160 0.580270 0.499960 -0.579526
O6    O     O_R   0.632160 0.419730 0.499960 -0.608910
O7    O     O_R   0.500030 0.580270 0.685200 -0.633664
O8    O     O_R   0.500030 0.419730 0.685200 -0.631607
C3    C     C_R   0.673383 0.500742 0.502161 0.940445
C4    C     C_R   0.494682 0.499472 0.742090 0.828229
C5    C     C_3   0.441139 0.586257 0.072495 -0.375478
C6    C     C_3   0.444870 0.407905 0.075318 -0.368176
H1    H     H_    0.472330 0.653909 0.103517 0.207372
H2    H     H_    0.479044 0.343429 0.109123 0.202722
H3    H     H_    0.371483 0.583680 0.110876 0.168411
H4    H     H_    0.375097 0.404183 0.113146 0.176764
C7    C     C_3   0.440679 0.585895 0.928469 -0.355392
C8    C     C_3   0.445098 0.407194 0.931115 -0.373668
H5    H     H_    0.370808 0.583348 0.895884 0.174782
H6    H     H_    0.375451 0.402327 0.897915 0.174939
H7    H     H_    0.472154 0.653416 0.892436 0.223140
H8    H     H_    0.480239 0.343040 0.897629 0.206120
H9    H     H_    0.625945 0.566483 0.099823 0.231158
H10   H     H_    0.626129 0.439942 0.100402 0.198448
H11   H     H_    0.623299 0.569842 0.886741 0.189846
H12   H     H_    0.626914 0.442572 0.887057 0.190042
C9    C     C_3   0.589445 0.502754 0.067317 -0.362212
C10   C     C_3   0.492817 0.499623 0.121244 0.114504
C11   C     C_3   0.492145 0.498938 0.878446 0.130435
C12   C     C_3   0.589052 0.503929 0.923362 -0.402324
C13   C     C_R   0.819509 0.567972 0.435468 0.276682
C14   C     C_R   0.769730 0.502022 0.509620 -0.251864
C15   C     C_R   0.811968 0.437136 0.589588 -0.084791
C16   C     C_R   0.905326 0.436607 0.591582 0.060768
C17   C     C_R   0.955018 0.501843 0.514439 -0.004521
C18   C     C_R   0.912051 0.568279 0.437468 0.009735
C19   C     C_R   0.950250 0.372095 0.668333 -0.217011
C20   C     C_R   0.042805 0.370148 0.667208 -0.027327
C21   C     C_R   0.092455 0.433334 0.587860 0.070440
C22   C     C_R   0.048146 0.500295 0.512842 0.085402
C23   C     C_R   0.097233 0.565824 0.435278 0.130675
C24   C     C_R   0.054329 0.631800 0.360976 -0.224180
C25   C     C_R   0.962493 0.632942 0.361602 -0.110291
C26   C     C_R   0.185310 0.432086 0.581171 -0.241284
C27   C     C_R   0.232164 0.497622 0.504329 -0.062661
C28   C     C_R   0.188969 0.564454 0.432548 -0.238683
H13   H     H_    0.913705 0.322223 0.729552 0.165317
H14   H     H_    0.221870 0.381939 0.636928 0.168696
H15   H     H_    0.227089 0.614596 0.373258 0.155692
H16   H     H_    0.091845 0.682132 0.301500 0.166769
H17   H     H_    0.931697 0.684590 0.301463 0.212732
C29   C     C_R   0.545104 0.801431 0.407470 0.055564
C30   C     C_R   0.551684 0.203597 0.413987 0.065494
N1    N     N_R   0.500070 0.750030 0.500050 -0.139822
N2    N     N_R   0.500070 0.249970 0.500050 -0.135801
C31   C     C_R   0.454433 0.795974 0.593393 0.006972
C32   C     C_R   0.450681 0.200560 0.589527 0.005273
C33   C     C_R   0.453108 0.896921 0.597875 -0.150353
C34   C     C_R   0.449700 0.099717 0.594352 -0.150039
C35   C     C_R   0.500759 0.949901 0.503986 0.045322
C36   C     C_R   0.500173 0.050921 0.503221 0.048227
C37   C     C_R   0.548555 0.901836 0.409354 0.020448
C38   C     C_R   0.550978 0.103208 0.411360 0.020051
C39   C     C_R   0.404313 0.946008 0.691757 0.228724
C40   C     C_R   0.401552 0.046798 0.688885 0.225983
C41   C     C_R   0.600007 0.053882 0.319731 -0.178686
C42   C     C_R   0.598158 0.955325 0.317983 -0.153857
H18   H     H_    0.417804 0.753208 0.662911 0.178166
H19   H     H_    0.413514 0.240722 0.658252 0.174179
H20   H     H_    0.639522 0.091006 0.247386 0.156581
H21   H     H_    0.636816 0.921594 0.244406 0.163960
C43   C     C_1   0.084515 0.303223 0.750027 0.188912
N3    N     N_1   0.117512 0.249756 0.816847 -0.094909
C44   C     C_1   0.585206 0.754244 0.301972 0.313206
N4    N     N_1   0.617609 0.720174 0.214179 -0.153862
C45   C     C_1   0.610111 0.258126 0.329646 0.233643
N5    N     N_1   0.657870 0.300853 0.262105 -0.214620
N6    N     N_R   0.355629 0.894115 0.789040 0.224951
O9    O     O_R   0.270749 0.906963 0.806477 -0.313937
O10   O     O_R   0.397451 0.840279 0.867272 -0.411760
N7    N     N_R   0.351418 0.094864 0.784593 0.222622
O11   O     O_R   0.367308 0.080121 0.903028 -0.332223
O12   O     O_R   0.285045 0.147390 0.753873 -0.386447
N8    N     N_R   0.776188 0.631338 0.352100 0.195640
O13   O     O_R   0.770261 0.720160 0.382495 -0.404046
O14   O     O_R   0.767541 0.607071 0.235185 -0.428931
C46   C     C_1   0.759466 0.372074 0.670211 0.198934
N9    N     N_1   0.717783 0.319970 0.734042 -0.201402

loop_
_geom_bond_atom_site_label_1
_geom_bond_atom_site_label_2
_geom_bond_distance
_ccdc_geom_bond_type
C18   C25   1.406738 A    
C2    C10   1.452392 S    
C34   C36   1.408873 A    
C19   C20   1.391507 A    
C13   C14   1.403309 A    
C4    C11   1.447286 S    
C1    C27   1.426597 S    
C5    C10   1.551842 S    
C9    C10   1.547133 S    
C23   C24   1.391813 A    
C5    H3    1.113508 S    
C14   C15   1.412189 A    
Zn2   N2    2.013799 S    
C16   C17   1.413663 A    
O7    C4    1.283469 A    
C30   N2    1.364998 A    
C7    C11   1.554634 S    
C31   H18   1.080399 S    
N1    C31   1.367908 A    
C29   C44   1.435356 S    
C31   C33   1.425136 A    
C32   C34   1.421903 A    
O5    C3    1.292489 A    
C33   C35   1.410617 A    
C34   C40   1.418459 A    
C39   C40   1.422536 A    
C36   C38   1.414507 A    
C41   H20   1.082516 S    
C41   C42   1.389627 A    
C21   C26   1.395932 A    
Zn1   N1    2.013781 S    
C6    H4    1.113419 S    
C30   C45   1.442595 S    
C30   C38   1.415817 A    
O3    Zn1   2.006967 S    
N7    O12   1.300459 A    
N2    C32   1.366416 A    
C28   H15   1.085997 S    
H12   C12   1.112513 S    
H9    C9    1.106067 S    
C43   N3    1.156973 T    
C3    C14   1.451783 S    
O3    C2    1.288837 A    
C46   N9    1.157504 T    
C15   C46   1.454378 S    
C44   N4    1.154953 T    
C32   H19   1.080344 S    
N7    O11   1.301070 A    
H11   C12   1.114309 S    
O1    C1    1.286555 A    
C35   C37   1.408619 A    
Zn1   O7    1.998642 S    
C21   C22   1.415906 A    
C15   C16   1.403838 A    
C13   N8    1.428509 S    
C37   C42   1.410520 A    
C26   H14   1.084056 S    
Zn2   O8    2.007067 S    
C24   H16   1.084300 S    
C11   C12   1.544193 S    
C9    C12   1.528558 S    
C16   C19   1.408351 A    
C6    H2    1.113630 S    
C26   C27   1.393730 A    
N8    O14   1.300320 A    
N6    O9    1.301027 A    
N6    O10   1.301081 A    
C7    H5    1.113748 S    
C8    H6    1.113776 S    
C20   C21   1.408616 A    
C17   C18   1.412943 A    
C40   N7    1.434576 S    
C22   C23   1.414270 A    
C25   H17   1.081872 S    
C5    H1    1.110986 S    
C8    C11   1.552977 S    
C7    H7    1.113752 S    
C24   C25   1.380373 A    
C6    C8    1.531193 S    
O1    Zn1   2.014279 S    
H10   C9    1.111096 S    
O2    Zn2   2.029740 S    
O8    C4    1.285328 A    
C45   N5    1.157091 T    
O6    C3    1.288782 A    
O4    Zn2   1.998543 S    
C17   C22   1.399827 A    
C6    C10   1.556404 S    
C20   C43   1.445635 S    
C33   C39   1.417884 A    
C38   C41   1.404903 A    
C39   N6    1.435429 S    
C35   C36   1.424448 A    
C13   C18   1.391326 A    
C42   H21   1.082192 S    
O4    C2    1.281785 A    
C23   C28   1.378724 A    
C29   C37   1.415895 A    
C29   N1    1.371050 A    
O2    C1    1.286531 A    
Zn1   O5    2.029472 S    
C5    C7    1.529509 S    
N8    O13   1.301048 A    
Zn2   O6    2.014004 S    
C27   C28   1.387097 A    
C8    H8    1.114064 S    
C19   H13   1.083680 S    
