data_mof_unit_42890.cif
_audit_creation_date              2012-12-10T17:43:34-0500
_audit_creation_method            fapswitch 2.2
_symmetry_space_group_name_H-M    P1
_symmetry_Int_Tables_number       1
_space_group_crystal_system       triclinic
_cell_length_a                    14.989007
_cell_length_b                    10.626266
_cell_length_c                    9.915564
_cell_angle_alpha                 89.910804
_cell_angle_beta                  90.00511
_cell_angle_gamma                 91.65544
_cell_volume                      1578.66195016

loop_
_atom_site_label
_atom_site_type_symbol
_atom_type_description
_atom_site_fract_x
_atom_site_fract_y
_atom_site_fract_z
_atom_type_partial_charge
C1    C     C_R   0.502456 0.260744 0.500122 0.851325
C2    C     C_R   0.907801 0.527491 0.617244 0.129598
C3    C     C_R   0.953029 0.429244 0.260157 0.469832
C4    C     C_R   0.046108 0.430216 0.263042 -0.306737
C5    C     C_R   0.092399 0.462534 0.380825 0.041185
C6    C     C_R   0.046211 0.494048 0.499088 0.068478
C7    C     C_R   0.093112 0.526082 0.618380 0.116891
C8    C     C_R   0.047275 0.558260 0.735572 -0.171909
C9    C     C_R   0.954804 0.559523 0.734779 -0.149832
C10   C     C_R   0.184778 0.464325 0.381985 -0.224662
C11   C     C_R   0.230860 0.496619 0.500027 -0.070772
C12   C     C_R   0.326770 0.499080 0.500013 0.871071
C13   C     C_R   0.185384 0.526486 0.618108 -0.251310
C14   C     C_R   0.652029 0.137118 0.624783 -0.168975
C15   C     C_R   0.721989 0.074145 0.685169 -0.100212
C16   C     C_R   0.722089 0.943180 0.684870 -0.125627
C17   C     C_R   0.652238 0.874735 0.624166 -0.188871
C18   C     C_R   0.580174 0.937163 0.563871 0.097045
C19   C     C_R   0.580051 0.069103 0.564185 0.096618
C20   C     C_R   0.508607 0.128686 0.499946 -0.081677
C21   C     C_R   0.441223 0.061964 0.432282 -0.209497
C22   C     C_R   0.441353 0.933420 0.431998 -0.194906
C23   C     C_R   0.502695 0.739434 0.499871 0.873327
C24   C     C_R   0.508861 0.871990 0.499368 -0.096994
C25   C     C_R   0.382379 0.335929 0.140272 -0.164081
C26   C     C_R   0.324048 0.255599 0.070253 -0.200436
C27   C     C_R   0.324016 0.255586 0.930652 -0.171282
C28   C     C_R   0.382315 0.335907 0.860258 -0.151676
C29   C     C_R   0.441959 0.419223 0.927829 0.165417
C30   C     C_R   0.441981 0.419253 0.072404 0.176505
C31   C     C_R   0.555801 0.576880 0.071356 -0.087640
C32   C     C_R   0.555783 0.576854 0.928250 -0.108565
C33   C     C_R   0.673206 0.499800 0.499963 0.863185
C34   C     C_R   0.815747 0.528951 0.616938 -0.249190
C35   C     C_R   0.769031 0.497574 0.499705 -0.107903
C36   C     C_R   0.813399 0.463690 0.381945 -0.145311
C37   C     C_R   0.906136 0.461901 0.378658 -0.037978
C38   C     C_R   0.953357 0.494222 0.498175 0.004495
H1    H     H_    0.780550 0.555617 0.707677 0.155313
H2    H     H_    0.655777 0.238817 0.624433 0.157038
H3    H     H_    0.776714 0.127182 0.731125 0.167602
H4    H     H_    0.776890 0.894441 0.730573 0.147506
H5    H     H_    0.656147 0.773296 0.623250 0.142221
H6    H     H_    0.387645 0.881433 0.381719 0.155818
H7    H     H_    0.601414 0.639710 0.124952 0.161208
H8    H     H_    0.378792 0.329820 0.247198 0.196493
H9    H     H_    0.278757 0.192758 0.124848 0.154024
H10   H     H_    0.278715 0.192681 0.876369 0.159278
H11   H     H_    0.378778 0.329684 0.753316 0.204288
H12   H     H_    0.774603 0.438196 0.293876 0.232502
H13   H     H_    0.601367 0.639689 0.874365 0.146373
H14   H     H_    0.082971 0.405899 0.173231 0.195532
H15   H     H_    0.220685 0.440080 0.291139 0.160595
H16   H     H_    0.221694 0.551736 0.709252 0.166287
H17   H     H_    0.082906 0.583056 0.827333 0.161473
H18   H     H_    0.920058 0.585799 0.825810 0.191855
H19   H     H_    0.387447 0.109680 0.382119 0.139699
N1    N     N_R   0.499150 0.498800 0.142780 -0.125405
N2    N     N_R   0.499120 0.498720 0.857170 -0.124206
O1    O     O_R   0.500000 0.316780 0.614690 -0.641219
O2    O     O_R   0.499990 0.316750 0.385360 -0.624870
O3    O     O_R   0.367850 0.499980 0.614680 -0.640265
O4    O     O_R   0.367840 0.499960 0.385350 -0.643825
O5    O     O_R   0.500010 0.683250 0.614640 -0.617109
O6    O     O_R   0.500000 0.683220 0.385310 -0.610195
O7    O     O_R   0.632160 0.500040 0.614650 -0.634915
O8    O     O_R   0.632150 0.500020 0.385320 -0.611198
Zn1   Zn    Zn3+2 0.500010 0.500020 0.653130 0.934421
Zn2   Zn    Zn3+2 0.499990 0.499980 0.346870 0.953934
S1    S     S_3+6 0.898274 0.387082 0.107223 -0.016509
O9    O     O_2   0.964836 0.361920 0.997814 -0.314908
O10   O     O_2   0.841153 0.270439 0.130437 -0.308547
O11   O     O_3   0.833145 0.505181 0.058483 -0.601090
H20   H     H_    0.796878 0.470159 0.983114 0.371869

loop_
_geom_bond_atom_site_label_1
_geom_bond_atom_site_label_2
_ccdc_geom_bond_type
C27   H10   S    
O7    Zn1   S    
O11   H20   S    
C35   C36   A    
C7    C8    A    
C26   C27   A    
C29   C30   A    
C4    H14   S    
C18   C24   A    
O5    Zn1   S    
C31   N1    A    
C28   C29   A    
C34   C35   A    
C5    C6    A    
C15   C16   A    
C18   C19   A    
C10   H15   S    
C22   H6    S    
O4    Zn2   S    
C16   C17   A    
C23   C24   S    
C6    C38   A    
S1    O9    D    
C2    C34   A    
C21   C22   A    
C8    H17   S    
C33   O7    A    
C34   H1    S    
C29   N2    A    
C3    S1    S    
C15   H3    S    
C1    O1    A    
C12   O4    A    
C8    C9    A    
C25   C26   A    
O8    Zn2   S    
C17   H5    S    
C32   H13   S    
C21   H19   S    
C37   C38   A    
N2    Zn1   S    
C12   O3    A    
C28   H11   S    
C2    C38   A    
C31   C32   A    
S1    O11   S    
C17   C18   A    
C9    H18   S    
C3    C37   A    
C26   H9    S    
C23   O5    A    
C22   C24   A    
C3    C4    A    
C16   H4    S    
C36   H12   S    
C33   O8    A    
C13   H16   S    
O2    Zn2   S    
C25   C30   A    
C36   C37   A    
C1    C20   S    
C14   C19   A    
C4    C5    A    
C1    O2    A    
C11   C12   S    
N1    Zn2   S    
C6    C7    A    
O3    Zn1   S    
C23   O6    A    
C19   C20   A    
C5    C10   A    
C11   C13   A    
O6    Zn2   S    
C30   N1    A    
C33   C35   S    
C10   C11   A    
C14   H2    S    
C7    C13   A    
C20   C21   A    
O1    Zn1   S    
C31   H7    S    
C27   C28   A    
C14   C15   A    
S1    O10   D    
C32   N2    A    
C2    C9    A    
C25   H8    S    
