data_mof_unit_22487.cif
_audit_creation_date              2012-12-10T19:09:02-0500
_audit_creation_method            fapswitch 2.2
_symmetry_space_group_name_H-M    P1
_symmetry_Int_Tables_number       1
_space_group_crystal_system       triclinic
_cell_length_a                    17.752377
_cell_length_b                    10.908776
_cell_length_c                    9.610801
_cell_angle_alpha                 92.163255
_cell_angle_beta                  89.682785
_cell_angle_gamma                 92.71183
_cell_volume                      1857.77369608

loop_
_atom_site_label
_atom_site_type_symbol
_atom_type_description
_atom_site_fract_x
_atom_site_fract_y
_atom_site_fract_z
_atom_type_partial_charge
C1    C     C_R   0.498760 0.262896 0.497548 0.800550
C2    C     C_R   0.885435 0.480986 0.489263 0.037063
C3    C     C_1   0.966270 0.485160 0.492558 0.069461
C4    C     C_1   0.033838 0.486223 0.493949 0.056358
C5    C     C_R   0.152184 0.550358 0.604148 -0.235528
C6    C     C_R   0.230908 0.562014 0.607361 0.011091
C7    C     C_R   0.272824 0.503565 0.500051 -0.064301
C8    C     C_R   0.234431 0.440296 0.389706 -0.254388
C9    C     C_R   0.155565 0.430745 0.384758 0.006976
C10   C     C_R   0.114539 0.486794 0.494237 0.052597
C11   C     C_R   0.531341 0.073964 0.605290 0.151791
C12   C     C_R   0.355859 0.502876 0.500509 0.810074
C13   C     C_R   0.501949 0.130694 0.492728 -0.089298
C14   C     C_R   0.476261 0.057870 0.378094 -0.177709
C15   C     C_R   0.473664 0.929898 0.385101 -0.130879
C16   C     C_R   0.500252 0.872549 0.503644 -0.134236
C17   C     C_R   0.534056 0.947812 0.610584 0.132896
C18   C     C_3   0.522486 0.958323 0.767099 -0.121361
C19   C     C_3   0.515608 0.095667 0.755486 -0.546599
C20   C     C_R   0.562789 0.538059 0.072996 0.175732
C21   C     C_R   0.447699 0.429236 0.072508 0.059704
C22   C     C_R   0.443870 0.438499 0.923829 0.060515
C23   C     C_R   0.499914 0.738038 0.502261 0.853651
C24   C     C_R   0.563499 0.533929 0.926967 0.202397
C25   C     C_3   0.609377 0.649763 0.920297 -0.457330
C26   C     C_3   0.611032 0.654380 0.079325 -0.244078
C27   C     C_R   0.643804 0.487143 0.498844 0.856024
C28   C     C_R   0.847240 0.474284 0.615486 -0.188777
C29   C     C_R   0.768672 0.460526 0.620473 -0.026658
C30   C     C_R   0.726610 0.464698 0.495231 -0.127354
C31   C     C_R   0.766214 0.453434 0.365513 -0.103225
C32   C     C_R   0.846006 0.466909 0.362770 -0.053036
Cu1   Cu    Cu3+1 0.500000 0.499980 0.640670 1.003373
Cu2   Cu    Cu3+1 0.500000 0.500020 0.359330 0.983342
H1    H     H_    0.879581 0.473629 0.710971 0.181645
H2    H     H_    0.448417 0.876020 0.299272 0.166169
H3    H     H_    0.457816 0.127971 0.774747 0.186198
H4    H     H_    0.560820 0.154908 0.806883 0.233013
H5    H     H_    0.665334 0.638063 0.871397 0.234557
H6    H     H_    0.574699 0.716364 0.871206 0.234617
H7    H     H_    0.668192 0.641377 0.121144 0.179977
H8    H     H_    0.119652 0.595104 0.685675 0.140579
H9    H     H_    0.266418 0.395445 0.308031 0.186889
H10   H     H_    0.454042 0.099160 0.287248 0.189784
N1    N     N_R   0.500470 0.500930 0.147930 -0.241968
N2    N     N_R   0.500480 0.500890 0.852020 -0.219937
O1    O     O_R   0.500000 0.319640 0.618810 -0.603748
O2    O     O_R   0.500010 0.319680 0.381230 -0.590075
O3    O     O_R   0.391250 0.499990 0.618840 -0.566704
O4    O     O_R   0.391260 0.500020 0.381250 -0.623964
O5    O     O_R   0.499990 0.680320 0.618770 -0.546231
O6    O     O_R   0.500000 0.680360 0.381190 -0.587406
O7    O     O_R   0.608740 0.499980 0.618750 -0.565999
O8    O     O_R   0.608750 0.500010 0.381160 -0.558007
C33   C     C_2   0.450011 0.894851 0.815438 0.410716
H11   H     H_    0.397187 0.915484 0.767127 0.127596
O9    O     O_2   0.449222 0.820822 0.907344 -0.570534
C34   C     C_2   0.592259 0.937345 0.850553 0.424712
H12   H     H_    0.591613 0.955213 0.962226 0.119895
O10   O     O_2   0.650396 0.905749 0.793890 -0.515635
C35   C     C_2   0.404643 0.325785 0.138589 0.424432
H13   H     H_    0.387618 0.328659 0.245384 0.109710
O11   O     O_2   0.390437 0.229306 0.073258 -0.579211
C36   C     C_2   0.378855 0.377644 0.849419 0.512146
H14   H     H_    0.386898 0.318650 0.758312 0.070002
O12   O     O_2   0.314712 0.391816 0.891607 -0.537510
C37   C     C_2   0.734626 0.427261 0.756138 0.873784
O13   O     O_2   0.761338 0.472314 0.864506 -0.618624
O14   O     O_R   0.676174 0.336981 0.761021 -0.730128
H15   H     H_    0.659453 0.320158 0.859807 0.331638
C38   C     C_2   0.574447 0.763915 0.142012 0.463757
H16   H     H_    0.515352 0.776957 0.124102 0.119818
O15   O     O_2   0.611335 0.839334 0.213523 -0.525026
C39   C     C_2   0.726309 0.419950 0.233057 0.453584
H17   H     H_    0.741998 0.466205 0.138701 0.103098
O16   O     O_2   0.678693 0.335373 0.226917 -0.501202
C40   C     C_2   0.889035 0.461881 0.229164 0.873504
O17   O     O_2   0.876171 0.378083 0.143187 -0.537995
O18   O     O_R   0.945462 0.552105 0.203508 -0.740292
H18   H     H_    0.971395 0.538119 0.110385 0.347220
C41   C     C_2   0.265417 0.641969 0.720106 0.429136
H19   H     H_    0.235956 0.653578 0.818675 0.093454
O19   O     O_2   0.324411 0.701194 0.701980 -0.544210
C42   C     C_2   0.118958 0.361476 0.264396 0.854376
O20   O     O_2   0.053168 0.323501 0.270878 -0.567026
O21   O     O_R   0.160686 0.337720 0.143156 -0.729941
H20   H     H_    0.130070 0.289772 0.068855 0.356531

loop_
_geom_bond_atom_site_label_1
_geom_bond_atom_site_label_2
_ccdc_geom_bond_type
C8    C9    A    
C33   H11   S    
Cu1   N2    S    
C8    H9    S    
C5    H8    S    
C12   O3    A    
C27   O8    A    
C7    C8    A    
C40   O17   D    
C11   C19   S    
C39   O16   D    
C28   C29   A    
C42   O21   S    
C25   H6    S    
C30   C31   A    
Cu1   O3    S    
C15   C16   A    
C2    C32   A    
C18   C19   S    
C35   O11   D    
C19   H3    S    
C32   C40   S    
C29   C37   S    
C18   C34   S    
C20   C24   A    
C28   H1    S    
C16   C17   A    
C9    C10   A    
C21   C35   S    
C20   N1    A    
C6    C41   S    
C13   C14   A    
C27   C30   S    
C26   C38   S    
C35   H13   S    
C41   O19   D    
C41   H19   S    
C21   N1    A    
C40   O18   S    
Cu1   O7    S    
C7    C12   S    
Cu2   O4    S    
C39   H17   S    
C37   O13   D    
C42   O20   D    
C38   O15   D    
O21   H20   S    
C1    O1    A    
C31   C39   S    
C25   C26   S    
C37   O14   S    
C36   O12   D    
C29   C30   A    
C19   H4    S    
C23   O5    A    
C31   C32   A    
C17   C18   S    
Cu2   N1    S    
C24   C25   S    
C18   C33   S    
C22   N2    A    
Cu2   O8    S    
C16   C23   S    
C33   O9    D    
Cu1   O1    S    
C1    C13   S    
C4    C10   S    
C3    C4    T    
C15   H2    S    
C14   H10   S    
C11   C17   A    
C12   O4    A    
C27   O7    A    
C1    O2    A    
C6    C7    A    
Cu1   O5    S    
Cu2   O6    S    
C24   N2    A    
C36   H14   S    
C2    C3    S    
C34   H12   S    
C5    C10   A    
C25   H5    S    
C11   C13   A    
C23   O6    A    
C5    C6    A    
C20   C26   S    
Cu1   Cu2   S    
O14   H15   S    
C9    C42   S    
C22   C36   S    
O18   H18   S    
C38   H16   S    
Cu2   O2    S    
C14   C15   A    
C2    C28   A    
C21   C22   A    
C34   O10   D    
C26   H7    S    
