data_mof_unit_60116.cif
_audit_creation_date              2012-12-10T19:39:17-0500
_audit_creation_method            fapswitch 2.2
_symmetry_space_group_name_H-M    P1
_symmetry_Int_Tables_number       1
_space_group_crystal_system       triclinic
_cell_length_a                    25.89603
_cell_length_b                    43.201312
_cell_length_c                    25.169406
_cell_angle_alpha                 90.000039
_cell_angle_beta                  121.04315
_cell_angle_gamma                 89.999925
_cell_volume                      24125.2596028

loop_
_atom_site_label
_atom_site_type_symbol
_atom_type_description
_atom_site_fract_x
_atom_site_fract_y
_atom_site_fract_z
_atom_type_partial_charge
C1    C     C_R   0.359912 0.749974 0.999830 0.506803
C2    C     C_R   0.500000 0.032561 1.000000 0.027466
C3    C     C_R   0.531728 0.615607 0.056981 0.105477
C4    C     C_R   0.035997 0.885017 0.055768 0.094940
C5    C     C_R   0.968286 0.115607 0.943020 0.105500
C6    C     C_R   0.963994 0.885021 0.944248 0.094922
C7    C     C_R   0.031717 0.115609 0.056987 0.105515
C8    C     C_R   0.500002 0.368407 0.999997 0.088638
C9    C     C_R   0.500000 0.631858 0.999998 0.049698
C10   C     C_R   0.999998 0.868405 0.000005 0.088674
C11   C     C_R   0.000001 0.131858 0.000002 0.049712
C12   C     C_R   0.866471 0.720492 0.733911 -0.153360
C13   C     C_R   0.999999 0.467431 1.000000 0.027635
C14   C     C_R   0.085000 0.246035 0.265833 -0.153437
C15   C     C_R   0.133444 0.720493 0.266093 -0.153364
C16   C     C_R   0.915002 0.246037 0.734168 -0.153437
C17   C     C_R   0.366559 0.220491 0.733907 -0.153366
C18   C     C_R   0.584993 0.746092 0.265838 -0.153422
C19   C     C_R   0.633443 0.220490 0.266092 -0.153367
C20   C     C_R   0.415000 0.746040 0.734166 -0.153436
C21   C     C_R   0.831196 0.718595 0.669495 -0.102869
C22   C     C_R   0.114724 0.243875 0.330178 -0.103888
C23   C     C_R   0.168716 0.718593 0.330509 -0.102873
C24   C     C_R   0.999999 0.532561 1.000000 0.027465
C25   C     C_R   0.885280 0.243875 0.669823 -0.103890
C26   C     C_R   0.331287 0.218591 0.669492 -0.102875
C27   C     C_R   0.614712 0.743933 0.330183 -0.103884
C28   C     C_R   0.668716 0.218589 0.330507 -0.102875
C29   C     C_R   0.385276 0.743880 0.669821 -0.103887
C30   C     C_R   0.810753 0.745608 0.633626 -0.010778
C31   C     C_R   0.177702 0.245972 0.365874 -0.013078
C32   C     C_R   0.189246 0.745603 0.366378 -0.010776
C33   C     C_R   0.822301 0.245970 0.634126 -0.013077
C34   C     C_R   0.310752 0.245600 0.633622 -0.010777
C35   C     C_R   0.500003 0.532867 0.999992 0.030982
C36   C     C_R   0.677697 0.745976 0.365877 -0.013073
C37   C     C_R   0.689250 0.245598 0.366378 -0.010776
C38   C     C_R   0.322297 0.745973 0.634126 -0.013078
C39   C     C_R   0.825185 0.774509 0.663226 -0.064539
C40   C     C_R   0.210594 0.249615 0.336109 -0.065873
C41   C     C_R   0.174903 0.774503 0.336778 -0.064558
C42   C     C_R   0.789407 0.249611 0.663890 -0.065869
C43   C     C_R   0.325091 0.274500 0.663221 -0.064566
C44   C     C_R   0.710600 0.749564 0.336111 -0.065893
C45   C     C_R   0.674911 0.274499 0.336779 -0.064563
C46   C     C_R   0.500005 0.467881 0.999991 0.035709
C47   C     C_R   0.289404 0.749612 0.663892 -0.065874
C48   C     C_R   0.860535 0.776782 0.727652 0.253419
C49   C     C_R   0.181499 0.251688 0.271598 0.248209
C50   C     C_R   0.139553 0.776780 0.272354 0.253365
C51   C     C_R   0.818501 0.251685 0.728401 0.248217
C52   C     C_R   0.360443 0.276778 0.727645 0.253370
C53   C     C_R   0.681509 0.751638 0.271601 0.248190
C54   C     C_R   0.639558 0.276777 0.272355 0.253378
C55   C     C_R   0.318500 0.751685 0.728402 0.248211
C56   C     C_R   0.881111 0.749375 0.763708 0.037838
C57   C     C_R   0.999995 0.032866 0.000015 0.030986
C58   C     C_R   0.117701 0.249678 0.235932 0.033240
C59   C     C_R   0.118889 0.749375 0.236295 0.037776
C60   C     C_R   0.882300 0.249677 0.764068 0.033238
C61   C     C_R   0.381110 0.249374 0.763705 0.037787
C62   C     C_R   0.617705 0.749680 0.235935 0.033186
C63   C     C_R   0.618891 0.249373 0.236295 0.037789
C64   C     C_R   0.382298 0.749678 0.764068 0.033237
C65   C     C_R   0.723611 0.762435 0.532746 -0.134043
C66   C     C_R   0.260663 0.226138 0.466713 -0.134780
C67   C     C_R   0.276443 0.762386 0.467257 -0.134043
C68   C     C_R   0.999993 0.967879 0.000018 0.035708
C69   C     C_R   0.739343 0.226134 0.533286 -0.134780
C70   C     C_R   0.223550 0.262380 0.532743 -0.134045
C71   C     C_R   0.760591 0.726101 0.466716 -0.134779
C72   C     C_R   0.776452 0.262379 0.467257 -0.134046
C73   C     C_R   0.239342 0.726136 0.533287 -0.134778
C74   C     C_R   0.500000 0.665920 1.000000 0.500490
C75   C     C_R   0.500000 0.334193 0.999999 0.523318
C76   C     C_R   0.000000 0.165920 0.000000 0.500482
C77   C     C_R   1.000000 0.834193 0.000000 0.523325
C78   C     C_R   0.691287 0.763682 0.467917 0.145473
C79   C     C_R   0.606313 0.656671 0.922032 -0.107702
C80   C     C_R   0.294570 0.225964 0.531601 0.145522
C81   C     C_R   0.308770 0.763634 0.532087 0.145470
C82   C     C_R   0.705435 0.225961 0.468398 0.145522
C83   C     C_R   0.191224 0.263628 0.467913 0.145470
C84   C     C_R   0.794501 0.725928 0.531604 0.145525
C85   C     C_R   0.808778 0.263627 0.532087 0.145470
C86   C     C_R   0.205433 0.725963 0.468399 0.145522
C87   C     C_R   0.709625 0.745094 0.434385 0.027121
C88   C     C_R   0.275570 0.244114 0.565105 0.027331
C89   C     C_R   0.290369 0.745088 0.565618 0.027121
C90   C     C_R   0.378704 0.348940 0.075968 -0.110706
C91   C     C_R   0.724434 0.244111 0.434895 0.027332
C92   C     C_R   0.209630 0.245086 0.434382 0.027121
C93   C     C_R   0.775566 0.744123 0.565109 0.027333
C94   C     C_R   0.790373 0.245084 0.565618 0.027121
C95   C     C_R   0.224429 0.744116 0.434895 0.027331
C96   C     C_R   0.536245 0.417399 0.054943 -0.141378
C97   C     C_R   0.468313 0.583106 0.944059 -0.122843
C98   C     C_R   0.463765 0.417397 0.945043 -0.141372
C99   C     C_R   0.531689 0.583105 0.055932 -0.122852
C100  C     C_R   0.036197 0.917394 0.054973 -0.141369
C101  C     C_R   0.393706 0.656678 0.077987 -0.107697
C102  C     C_R   0.968324 0.083104 0.944070 -0.122835
C103  C     C_R   0.963790 0.917397 0.945053 -0.141378
C104  C     C_R   0.031674 0.083107 0.055946 -0.122843
C105  C     C_R   0.500005 0.433729 0.999992 -0.024985
C106  C     C_R   0.500002 0.566940 0.999994 -0.038856
C107  C     C_R   0.999993 0.933728 0.000015 -0.024980
C108  C     C_R   0.999997 0.066939 0.000010 -0.038862
C109  C     C_R   0.445733 0.484288 0.965538 -0.107861
C110  C     C_R   0.554241 0.516536 0.034571 -0.109082
C111  C     C_R   0.554276 0.484289 0.034443 -0.107861
C112  C     C_R   0.640053 0.250102 0.000009 0.553683
C113  C     C_R   0.621332 0.348956 0.924101 -0.110691
C114  C     C_R   0.445766 0.516535 0.965412 -0.109081
C115  C     C_R   0.945727 0.984287 0.965535 -0.107863
C116  C     C_R   0.054228 0.016533 0.034626 -0.109081
C117  C     C_R   0.054260 0.984286 0.034502 -0.107861
C118  C     C_R   0.945762 0.016534 0.965407 -0.109083
C119  C     C_R   0.500000 0.833983 0.000000 0.462811
C120  C     C_R   0.500000 0.166016 1.000000 0.469295
C121  C     C_R   1.000000 0.333983 0.000000 0.462812
C122  C     C_R   1.000000 0.666016 1.000000 0.469298
C123  C     C_R   0.551113 0.115388 0.008370 0.217539
C124  C     C_R   0.106259 0.156692 0.921951 -0.107719
C125  C     C_R   0.448830 0.884609 0.991477 0.221200
C126  C     C_R   0.448887 0.115388 0.991630 0.217539
C127  C     C_R   0.551169 0.884609 0.008522 0.221198
C128  C     C_R   0.051112 0.615387 0.008367 0.217541
C129  C     C_R   0.948831 0.384609 0.991480 0.221202
C130  C     C_R   0.948888 0.615388 0.991632 0.217537
C131  C     C_R   0.051168 0.384609 0.008519 0.221201
C132  C     C_R   0.549843 0.083105 0.007073 -0.065054
C133  C     C_R   0.450100 0.916891 0.992787 -0.064041
C134  C     C_R   0.450156 0.083105 0.992926 -0.065052
C135  C     C_R   0.878552 0.848996 0.075803 -0.110694
C136  C     C_R   0.549899 0.916892 0.007212 -0.064045
C137  C     C_R   0.049842 0.583104 0.007070 -0.065053
C138  C     C_R   0.950101 0.416891 0.992790 -0.064039
C139  C     C_R   0.950157 0.583105 0.992929 -0.065054
C140  C     C_R   0.049897 0.416892 0.007209 -0.064039
C141  C     C_R   0.500000 0.066761 1.000000 -0.074119
C142  C     C_R   0.500000 0.933233 1.000000 -0.075386
C143  C     C_R   0.999999 0.566761 1.000000 -0.074119
C144  C     C_R   0.999999 0.433233 1.000000 -0.075386
C145  C     C_R   0.500000 0.131991 1.000000 0.024951
C146  C     C_R   0.893696 0.156673 0.077997 -0.107709
C147  C     C_R   0.500000 0.868007 1.000000 0.028164
C148  C     C_R   1.000000 0.631991 1.000000 0.024950
C149  C     C_R   1.000000 0.368007 1.000000 0.028161
C150  C     C_R   0.478289 0.016133 0.032653 -0.101492
C151  C     C_R   0.521714 0.983858 0.967351 -0.101150
C152  C     C_R   0.521710 0.016133 0.967346 -0.101494
C153  C     C_R   0.478285 0.983857 0.032648 -0.101151
C154  C     C_R   0.978292 0.516132 0.032656 -0.101492
C155  C     C_R   0.021711 0.483857 0.967348 -0.101148
C156  C     C_R   0.021706 0.516132 0.967343 -0.101492
C157  C     C_R   0.121425 0.848987 0.924158 -0.110694
C158  C     C_R   0.978287 0.483857 0.032651 -0.101149
C159  C     C_3   0.535450 0.363294 0.142919 -0.290670
C160  C     C_3   0.398537 0.616783 0.828021 -0.275245
C161  C     C_3   0.464552 0.363289 0.857071 -0.290661
C162  C     C_3   0.601461 0.616779 0.171974 -0.275234
C163  C     C_3   0.035311 0.863274 0.142879 -0.290667
C164  C     C_3   0.898618 0.116772 0.828017 -0.275309
C165  C     C_3   0.964680 0.863287 0.857128 -0.290629
C166  C     C_3   0.101450 0.116787 0.171977 -0.275247
C167  C     C_3   0.655850 0.813292 0.418348 -0.288969
C168  C     C_R   0.638776 0.683623 0.928307 0.231507
C169  C     C_3   0.402917 0.225984 0.582044 -0.287955
C170  C     C_3   0.344369 0.813232 0.581653 -0.288961
C171  C     C_3   0.597087 0.225977 0.417956 -0.287954
C172  C     C_3   0.155611 0.313225 0.418347 -0.288963
C173  C     C_3   0.902850 0.725836 0.582045 -0.287957
C174  C     C_3   0.844385 0.313225 0.581651 -0.288963
C175  C     C_3   0.097087 0.725974 0.417956 -0.287961
C176  C     C_R   0.351414 0.320307 0.070484 0.245714
C177  C     C_R   0.361240 0.683630 0.071707 0.231508
C178  C     C_R   0.648609 0.320321 0.929563 0.245711
C179  C     C_R   0.138734 0.183643 0.928248 0.231485
C180  C     C_R   0.640087 0.749974 0.000170 0.506793
C181  C     C_R   0.851304 0.820355 0.070371 0.245766
C182  C     C_R   0.861233 0.183626 0.071716 0.231490
C183  C     C_R   0.148681 0.820348 0.929602 0.245771
C184  C     C_R   0.687704 0.692156 0.987817 -0.038451
C185  C     C_R   0.309761 0.308480 0.010486 0.023226
C186  C     C_R   0.312304 0.692157 0.012197 -0.038452
C187  C     C_R   0.690259 0.308482 0.989551 0.023240
C188  C     C_R   0.187674 0.192160 0.987763 -0.038466
C189  C     C_R   0.809708 0.808487 0.010394 0.023225
C190  C     C_R   0.812307 0.192157 0.012203 -0.038460
C191  C     C_R   0.359946 0.250101 0.999991 0.553689
C192  C     C_R   0.190280 0.808486 0.989584 0.023210
C193  C     C_R   0.702943 0.672873 0.039916 0.322095
C194  C     C_R   0.296889 0.326034 0.957023 0.353692
C195  C     C_R   0.297061 0.672869 0.960103 0.322095
C196  C     C_R   0.703140 0.326028 0.043028 0.353697
C197  C     C_R   0.202910 0.172864 0.039845 0.322117
C198  C     C_R   0.796851 0.826007 0.956898 0.353663
C199  C     C_R   0.797071 0.172873 0.960107 0.322120
C200  C     C_R   0.203131 0.826011 0.043073 0.353660
C201  C     C_R   0.669533 0.645869 0.032024 0.333403
C202  C     C_R   0.859912 0.249974 0.999830 0.506784
C203  C     C_R   0.325995 0.354478 0.964095 0.330144
C204  C     C_R   0.330472 0.645865 0.968001 0.333395
C205  C     C_R   0.674048 0.354473 0.035978 0.330154
C206  C     C_R   0.169488 0.145862 0.031931 0.333383
C207  C     C_R   0.825921 0.854457 0.963918 0.330147
C208  C     C_R   0.830481 0.145868 0.968005 0.333383
C209  C     C_R   0.174052 0.854459 0.036040 0.330142
C210  C     C_R   0.621400 0.637923 0.972951 -0.202468
C211  C     C_R   0.366853 0.365754 0.023710 -0.207904
C212  C     C_R   0.378613 0.637925 0.027073 -0.202469
C213  C     C_R   0.140053 0.750102 0.000008 0.553640
C214  C     C_R   0.633194 0.365760 0.976372 -0.207871
C215  C     C_R   0.121344 0.137932 0.972854 -0.202501
C216  C     C_R   0.866720 0.865775 0.023514 -0.207893
C217  C     C_R   0.878612 0.137923 0.027080 -0.202489
C218  C     C_R   0.133250 0.865772 0.976440 -0.207914
C219  C     C_R   0.275420 0.221787 0.995779 0.205929
C220  C     C_R   0.726032 0.778432 0.006044 0.212841
C221  C     C_R   0.724571 0.221787 0.004204 0.205935
C222  C     C_R   0.273964 0.778432 0.993949 0.212843
C223  C     C_R   0.775436 0.721787 0.995811 0.205916
C224  C     C_R   0.140088 0.249974 0.000170 0.506793
C225  C     C_R   0.226050 0.278431 0.006076 0.212836
C226  C     C_R   0.224568 0.721787 0.004197 0.205935
C227  C     C_R   0.773957 0.278431 0.993938 0.212833
C228  C     C_R   0.303663 0.250195 0.999766 0.008683
C229  C     C_R   0.696674 0.750051 0.001049 -0.010498
C230  C     C_R   0.696337 0.250195 0.000234 0.008673
C231  C     C_R   0.303326 0.750051 0.998951 -0.010509
C232  C     C_R   0.803662 0.750196 0.999764 0.008648
C233  C     C_R   0.196674 0.250051 0.001049 -0.010496
C234  C     C_R   0.196338 0.750196 0.000236 0.008655
C235  C     C_R   0.859947 0.750102 0.999992 0.553636
C236  C     C_R   0.803325 0.250051 0.998950 -0.010509
C237  C     C_R   0.415691 0.750096 0.831970 0.483284
C238  C     C_R   0.583981 0.250089 0.168159 0.484793
C239  C     C_R   0.584311 0.750097 0.168031 0.483301
C240  C     C_R   0.416019 0.250089 0.831841 0.484790
C241  C     C_R   0.915691 0.250096 0.831970 0.483286
C242  C     C_R   0.083980 0.750089 0.168159 0.484768
C243  C     C_R   0.084309 0.250096 0.168030 0.483283
C244  C     C_R   0.916019 0.750088 0.831842 0.484757
C245  C     C_R   0.278711 0.278449 0.003835 -0.072462
C246  C     C_R   0.499999 0.967431 1.000000 0.027636
C247  C     C_R   0.720989 0.721674 0.995885 -0.098153
C248  C     C_R   0.721296 0.278449 0.996180 -0.072463
C249  C     C_R   0.279016 0.721675 0.004123 -0.098156
C250  C     C_R   0.778690 0.778451 0.003797 -0.072469
C251  C     C_R   0.220973 0.221676 0.995855 -0.098155
C252  C     C_R   0.221305 0.778451 0.996195 -0.072469
C253  C     C_R   0.779018 0.221675 0.004128 -0.098158
C254  C     C_R   0.536043 0.385022 0.055746 0.094931
C255  C     C_R   0.468272 0.615609 0.943013 0.105495
C256  C     C_R   0.463964 0.385020 0.944244 0.094954
H1    H     H_    0.881423 0.699291 0.760697 0.139837
H2    H     H_    0.088511 0.240409 0.352069 0.159086
H3    H     H_    0.003729 0.843836 0.118680 0.149931
H4    H     H_    0.964792 0.149564 0.882076 0.251333
H5    H     H_    0.875105 0.134183 0.790573 0.165255
H6    H     H_    0.863927 0.103620 0.832047 0.175180
H7    H     H_    0.924425 0.101071 0.815179 0.123622
H8    H     H_    0.889888 0.880498 0.856322 0.276880
H9    H     H_    0.934001 0.856888 0.807910 0.183175
H10   H     H_    0.996253 0.843844 0.881312 0.149932
H11   H     H_    0.990195 0.884162 0.857866 0.127634
H12   H     H_    0.035207 0.149558 0.117944 0.251316
H13   H     H_    0.180213 0.696016 0.352304 0.155886
H14   H     H_    0.124977 0.134204 0.209407 0.165280
H15   H     H_    0.136125 0.103643 0.167906 0.175233
H16   H     H_    0.075691 0.101080 0.184865 0.123599
H17   H     H_    0.769404 0.699133 0.099948 0.330269
H18   H     H_    0.238973 0.296144 0.897316 0.326772
H19   H     H_    0.230608 0.699131 0.900063 0.330273
H20   H     H_    0.761042 0.296125 0.102712 0.326767
H21   H     H_    0.269375 0.199115 0.099900 0.330279
H22   H     H_    0.738994 0.796080 0.897244 0.326750
H23   H     H_    0.730624 0.199137 0.900065 0.330270
H24   H     H_    0.911494 0.240411 0.647933 0.159087
H25   H     H_    0.260999 0.796092 0.102740 0.326755
H26   H     H_    0.657134 0.609733 0.070214 0.311234
H27   H     H_    0.336678 0.390434 0.924264 0.307881
H28   H     H_    0.342869 0.609725 0.929819 0.311234
H29   H     H_    0.663389 0.390424 0.075837 0.307873
H30   H     H_    0.157074 0.109719 0.070092 0.311237
H31   H     H_    0.836593 0.890387 0.924021 0.307877
H32   H     H_    0.842884 0.109731 0.929821 0.311253
H33   H     H_    0.163365 0.890392 0.075922 0.307885
H34   H     H_    0.278260 0.176542 0.988088 0.345329
H35   H     H_    0.319795 0.196013 0.647696 0.155882
H36   H     H_    0.681467 0.803126 0.034201 0.332976
H37   H     H_    0.721710 0.176539 0.011856 0.345329
H38   H     H_    0.318531 0.803125 0.965792 0.332981
H39   H     H_    0.778319 0.676538 0.988200 0.345327
H40   H     H_    0.181477 0.303119 0.034234 0.332973
H41   H     H_    0.221696 0.676539 0.011829 0.345332
H42   H     H_    0.818527 0.303123 0.965782 0.332977
H43   H     H_    0.911431 0.804813 0.794681 0.332791
H44   H     H_    0.191751 0.263385 0.202677 0.336472
H45   H     H_    0.088718 0.804831 0.205344 0.332831
H46   H     H_    0.588489 0.740512 0.352076 0.159079
H47   H     H_    0.808246 0.263381 0.797319 0.336473
H48   H     H_    0.411287 0.304829 0.794649 0.332808
H49   H     H_    0.691801 0.763318 0.202700 0.336495
H50   H     H_    0.588711 0.304828 0.205353 0.332804
H51   H     H_    0.308245 0.763380 0.797322 0.336475
H52   H     H_    0.618799 0.787879 0.460154 0.252978
H53   H     H_    0.614238 0.827376 0.392255 0.156882
H54   H     H_    0.674155 0.809029 0.387656 0.170639
H55   H     H_    0.689342 0.826553 0.459801 0.143012
H56   H     H_    0.347360 0.188367 0.539198 0.251645
H57   H     H_    0.680210 0.196011 0.352301 0.155883
H58   H     H_    0.442864 0.210775 0.608178 0.158129
H59   H     H_    0.406689 0.245319 0.612928 0.172028
H60   H     H_    0.402893 0.235452 0.540964 0.143000
H61   H     H_    0.381337 0.787750 0.539848 0.252978
H62   H     H_    0.386026 0.827282 0.607747 0.156896
H63   H     H_    0.326047 0.809008 0.612344 0.170648
H64   H     H_    0.310920 0.826508 0.540199 0.143015
H65   H     H_    0.652650 0.188361 0.460801 0.251646
H66   H     H_    0.557142 0.210766 0.391822 0.158127
H67   H     H_    0.593312 0.245312 0.387073 0.172031
H68   H     H_    0.411489 0.740418 0.647930 0.159086
H69   H     H_    0.597110 0.235442 0.459038 0.143001
H70   H     H_    0.118650 0.287736 0.460152 0.252973
H71   H     H_    0.113949 0.327272 0.392253 0.156897
H72   H     H_    0.173934 0.309005 0.387657 0.170649
H73   H     H_    0.189055 0.326502 0.459802 0.143012
H74   H     H_    0.847151 0.688264 0.539203 0.251642
H75   H     H_    0.942739 0.710590 0.608180 0.158119
H76   H     H_    0.906695 0.745187 0.612926 0.172033
H77   H     H_    0.902861 0.735273 0.540963 0.143003
H78   H     H_    0.881350 0.287737 0.539849 0.252973
H79   H     H_    0.810584 0.795583 0.635989 0.138406
H80   H     H_    0.886045 0.327273 0.607745 0.156895
H81   H     H_    0.826062 0.309004 0.612341 0.170648
H82   H     H_    0.810939 0.326501 0.540196 0.143013
H83   H     H_    0.152655 0.688361 0.460802 0.251646
H84   H     H_    0.057144 0.710762 0.391823 0.158126
H85   H     H_    0.093308 0.745310 0.387073 0.172021
H86   H     H_    0.097108 0.735439 0.459038 0.143004
H87   H     H_    0.605239 0.151000 0.033094 0.350833
H88   H     H_    0.394709 0.848996 0.966597 0.336535
H89   H     H_    0.394761 0.151000 0.966905 0.350834
H90   H     H_    0.259238 0.251741 0.363262 0.140716
H91   H     H_    0.605291 0.848996 0.033403 0.336527
H92   H     H_    0.105238 0.650999 0.033091 0.350835
H93   H     H_    0.894710 0.348996 0.966600 0.336534
H94   H     H_    0.894761 0.651000 0.966908 0.350832
H95   H     H_    0.105290 0.348996 0.033400 0.336537
H96   H     H_    0.648670 0.718210 0.883964 0.338958
H97   H     H_    0.346762 0.284618 0.115942 0.335094
H98   H     H_    0.351348 0.718221 0.116043 0.338956
H99   H     H_    0.653243 0.284640 0.884077 0.335090
H100  H     H_    0.148638 0.218240 0.883934 0.338960
H101  H     H_    0.189571 0.795577 0.364015 0.138412
H102  H     H_    0.846697 0.784686 0.115897 0.335075
H103  H     H_    0.851341 0.218218 0.116050 0.338960
H104  H     H_    0.153302 0.784675 0.884091 0.335082
H105  H     H_    0.036297 0.244178 0.239130 0.151689
H106  H     H_    0.740763 0.251735 0.636736 0.140715
H107  H     H_    0.310420 0.295574 0.635984 0.138407
H108  H     H_    0.759251 0.751648 0.363264 0.140717
H109  H     H_    0.689581 0.295572 0.364018 0.138408
H110  H     H_    0.240761 0.751734 0.636738 0.140718
H111  H     H_    0.708979 0.776579 0.558130 0.114734
H112  H     H_    0.275207 0.211948 0.441313 0.112321
H113  H     H_    0.291120 0.776499 0.441873 0.114737
H114  H     H_    0.724800 0.211943 0.558687 0.112325
H115  H     H_    0.208870 0.276490 0.558127 0.114729
H116  H     H_    0.118426 0.699293 0.239309 0.139903
H117  H     H_    0.775083 0.711876 0.441315 0.112322
H118  H     H_    0.791132 0.276489 0.441873 0.114732
H119  H     H_    0.224802 0.711944 0.558687 0.112323
H120  H     H_    0.563262 0.429825 0.098111 0.117748
H121  H     H_    0.445371 0.569991 0.901394 0.119625
H122  H     H_    0.436748 0.429822 0.901874 0.117757
H123  H     H_    0.554631 0.569988 0.098595 0.119625
H124  H     H_    0.063184 0.929819 0.098148 0.117748
H125  H     H_    0.945391 0.069986 0.901408 0.119614
H126  H     H_    0.936802 0.929825 0.901881 0.117742
H127  H     H_    0.963706 0.244182 0.760871 0.151710
H128  H     H_    0.054605 0.069992 0.098612 0.119622
H129  H     H_    0.589150 0.070701 0.013795 0.154124
H130  H     H_    0.410758 0.929297 0.985962 0.155897
H131  H     H_    0.410850 0.070702 0.986204 0.154126
H132  H     H_    0.589242 0.929297 0.014037 0.155894
H133  H     H_    0.089147 0.570701 0.013790 0.154126
H134  H     H_    0.910759 0.429297 0.985968 0.155899
H135  H     H_    0.910852 0.570702 0.986209 0.154124
H136  H     H_    0.089239 0.429297 0.014031 0.155901
H137  H     H_    0.403188 0.472180 0.939376 0.109589
H138  H     H_    0.381582 0.199292 0.760692 0.139904
H139  H     H_    0.596650 0.528752 0.060956 0.110246
H140  H     H_    0.596821 0.472181 0.060605 0.109580
H141  H     H_    0.403356 0.528751 0.939028 0.110251
H142  H     H_    0.903185 0.972179 0.939348 0.109576
H143  H     H_    0.096635 0.028749 0.061033 0.110249
H144  H     H_    0.096802 0.972178 0.060689 0.109584
H145  H     H_    0.903355 0.028750 0.938998 0.110245
H146  H     H_    0.462132 0.028259 0.058941 0.117327
H147  H     H_    0.537880 0.971728 0.941073 0.118008
H148  H     H_    0.537867 0.028259 0.941058 0.117324
H149  H     H_    0.536285 0.744276 0.239138 0.151736
H150  H     H_    0.462119 0.971728 0.058926 0.118009
H151  H     H_    0.962137 0.528259 0.058946 0.117325
H152  H     H_    0.037874 0.471728 0.941067 0.118014
H153  H     H_    0.037861 0.528259 0.941053 0.117328
H154  H     H_    0.962124 0.471728 0.058932 0.118013
H155  H     H_    0.595368 0.617138 0.966292 0.110980
H156  H     H_    0.389508 0.387691 0.029782 0.110580
H157  H     H_    0.404647 0.617140 0.033737 0.110982
H158  H     H_    0.610549 0.387699 0.970317 0.110582
H159  H     H_    0.095304 0.117148 0.966178 0.110988
H160  H     H_    0.618421 0.199291 0.239306 0.139903
H161  H     H_    0.889344 0.887719 0.029546 0.110595
H162  H     H_    0.904643 0.117138 0.033744 0.110986
H163  H     H_    0.110619 0.887713 0.970398 0.110588
H164  H     H_    0.568891 0.650125 0.876936 0.150901
H165  H     H_    0.409813 0.358213 0.121536 0.152145
H166  H     H_    0.431134 0.650137 0.123083 0.150901
H167  H     H_    0.590226 0.358237 0.878540 0.152134
H168  H     H_    0.068829 0.150158 0.876852 0.150898
H169  H     H_    0.909615 0.858302 0.121354 0.152146
H170  H     H_    0.931116 0.150129 0.123095 0.150905
H171  H     H_    0.463704 0.744186 0.760868 0.151690
H172  H     H_    0.090359 0.858288 0.878603 0.152165
H173  H     H_    0.610202 0.380498 0.143636 0.276924
H174  H     H_    0.566162 0.356889 0.192127 0.183122
H175  H     H_    0.503855 0.343857 0.118749 0.149914
H176  H     H_    0.509965 0.384173 0.142222 0.127641
H177  H     H_    0.464770 0.649558 0.882053 0.251328
H178  H     H_    0.375009 0.634199 0.790589 0.165285
H179  H     H_    0.363860 0.603638 0.832088 0.175207
H180  H     H_    0.424301 0.601077 0.815137 0.123605
H181  H     H_    0.389802 0.380494 0.856357 0.276940
H182  H     H_    0.819630 0.696019 0.647700 0.155890
H183  H     H_    0.433835 0.356896 0.807856 0.183113
H184  H     H_    0.496129 0.343843 0.881223 0.149927
H185  H     H_    0.490059 0.384162 0.857788 0.127641
H186  H     H_    0.535231 0.649555 0.117945 0.251334
H187  H     H_    0.624989 0.634193 0.209408 0.165304
H188  H     H_    0.636138 0.603634 0.167907 0.175199
H189  H     H_    0.575696 0.601072 0.184854 0.123602
H190  H     H_    0.110102 0.880491 0.143693 0.276907
H191  H     H_    0.009806 0.884149 0.142160 0.127654
H192  H     H_    0.065986 0.856865 0.192092 0.183047
N1    N     N_2   0.569953 0.369616 0.113714 -0.462068
N2    N     N_2   0.348620 0.208252 0.562548 -0.525319
N3    N     N_2   0.358469 0.784322 0.562923 -0.523657
N4    N     N_2   0.651387 0.208247 0.437452 -0.525321
N5    N     N_2   0.141519 0.284312 0.437077 -0.523658
N6    N     N_2   0.848486 0.708164 0.562550 -0.525332
N7    N     N_2   0.858480 0.284312 0.562923 -0.523659
N8    N     N_2   0.151389 0.708247 0.437452 -0.525323
N9    N     N_2   0.438994 0.632443 0.885705 -0.476574
N10   N     N_2   0.430053 0.369613 0.886279 -0.462061
N11   N     N_2   0.561007 0.632440 0.114291 -0.476569
N12   N     N_2   0.069865 0.869608 0.113736 -0.462100
N13   N     N_2   0.939022 0.132439 0.885708 -0.476572
N14   N     N_2   0.930126 0.869615 0.886275 -0.462113
N15   N     N_2   0.060988 0.132445 0.114293 -0.476582
N16   N     N_2   0.641656 0.784410 0.437079 -0.523648
O1    O     O_3   0.500000 0.749970 0.000000 -0.463942
O2    O     O_R   0.097640 0.731860 0.963670 -0.484658
O3    O     O_3   0.133383 0.805108 0.875092 -0.679740
O4    O     O_R   0.097640 0.268140 0.963670 -0.516459
O5    O     O_R   0.902360 0.731860 0.036330 -0.484657
O6    O     O_R   0.400350 0.731780 0.861400 -0.524847
O7    O     O_R   0.599650 0.268220 0.138600 -0.514213
O8    O     O_R   0.599650 0.731780 0.138600 -0.524814
O9    O     O_R   0.400350 0.268220 0.861400 -0.514219
O10   O     O_R   0.900350 0.231780 0.861400 -0.524840
O11   O     O_R   0.099650 0.768220 0.138600 -0.514187
O12   O     O_R   0.099650 0.231780 0.138600 -0.524850
O13   O     O_3   0.500000 0.250030 0.000000 -0.471969
O14   O     O_R   0.900350 0.768220 0.861400 -0.514193
O15   O     O_R   0.451490 0.680670 0.963650 -0.515505
O16   O     O_R   0.548510 0.319330 0.036350 -0.513504
O17   O     O_R   0.548510 0.680670 0.036350 -0.515498
O18   O     O_R   0.451490 0.319330 0.963650 -0.513491
O19   O     O_R   0.951490 0.180670 0.963650 -0.515518
O20   O     O_R   0.048510 0.819330 0.036350 -0.513495
O21   O     O_R   0.048510 0.180670 0.036350 -0.515485
O22   O     O_R   0.951490 0.819330 0.963650 -0.513503
O23   O     O_R   0.487790 0.819270 0.036340 -0.530918
O24   O     O_3   0.000000 0.249970 0.000000 -0.463944
O25   O     O_R   0.512210 0.180730 0.963660 -0.524664
O26   O     O_R   0.512210 0.819270 0.963660 -0.530908
O27   O     O_R   0.487790 0.180730 0.036340 -0.524663
O28   O     O_R   0.987790 0.319270 0.036340 -0.530909
O29   O     O_R   0.012210 0.680730 0.963660 -0.524655
O30   O     O_R   0.012210 0.319270 0.963660 -0.530911
O31   O     O_R   0.987790 0.680730 0.036340 -0.524657
O32   O     O_R   0.461070 0.768120 0.861410 -0.532764
O33   O     O_R   0.538930 0.231880 0.138590 -0.543007
O34   O     O_R   0.538930 0.768120 0.138590 -0.532789
O35   O     O_3   1.000000 0.750030 0.000000 -0.471976
O36   O     O_R   0.461070 0.231880 0.861410 -0.543009
O37   O     O_R   0.961070 0.268120 0.861410 -0.532759
O38   O     O_R   0.038930 0.731880 0.138590 -0.543026
O39   O     O_R   0.038930 0.268120 0.138590 -0.532761
O40   O     O_R   0.961070 0.731880 0.861410 -0.543007
O41   O     O_R   0.366040 0.731790 0.963660 -0.534204
O42   O     O_R   0.633960 0.268210 0.036340 -0.547670
O43   O     O_R   0.633960 0.731790 0.036340 -0.534199
O44   O     O_R   0.366040 0.268210 0.963660 -0.547659
O45   O     O_R   0.866040 0.231790 0.963660 -0.534196
O46   O     O_R   0.402360 0.768140 0.036330 -0.516452
O47   O     O_R   0.133960 0.768210 0.036340 -0.547645
O48   O     O_R   0.133960 0.231790 0.036340 -0.534199
O49   O     O_R   0.866040 0.768210 0.963660 -0.547659
O50   O     O_3   0.749349 0.679585 0.099419 -0.612623
O51   O     O_3   0.256618 0.316383 0.897073 -0.606269
O52   O     O_3   0.250649 0.679576 0.900601 -0.612636
O53   O     O_3   0.743408 0.316365 0.102971 -0.606273
O54   O     O_3   0.249325 0.179562 0.099351 -0.612628
O55   O     O_3   0.756629 0.816316 0.896964 -0.606291
O56   O     O_3   0.750668 0.179584 0.900602 -0.612619
O57   O     O_R   0.597640 0.231860 0.963670 -0.484651
O58   O     O_3   0.243355 0.816327 0.103012 -0.606268
O59   O     O_3   0.684828 0.627732 0.083248 -0.621228
O60   O     O_3   0.313217 0.370890 0.911622 -0.621756
O61   O     O_3   0.315171 0.627722 0.916782 -0.621237
O62   O     O_3   0.686838 0.370877 0.088464 -0.621752
O63   O     O_3   0.184781 0.127713 0.083139 -0.621238
O64   O     O_3   0.813163 0.870834 0.911415 -0.621712
O65   O     O_3   0.815189 0.127729 0.916784 -0.621199
O66   O     O_3   0.186803 0.870842 0.088537 -0.621695
O67   O     O_3   0.301594 0.195010 0.989893 -0.657368
O68   O     O_R   0.597640 0.768140 0.963670 -0.516452
O69   O     O_3   0.705377 0.806542 0.014238 -0.641556
O70   O     O_3   0.698389 0.195009 0.010075 -0.657353
O71   O     O_3   0.294615 0.806542 0.985748 -0.641558
O72   O     O_3   0.801625 0.695008 0.989953 -0.657347
O73   O     O_3   0.205412 0.306540 0.014301 -0.641589
O74   O     O_3   0.198382 0.695009 0.010062 -0.657346
O75   O     O_3   0.794602 0.306541 0.985727 -0.641580
O76   O     O_3   0.875119 0.806082 0.752807 -0.690967
O77   O     O_3   0.217060 0.256424 0.246145 -0.675854
O78   O     O_3   0.125056 0.806082 0.247200 -0.690852
O79   O     O_R   0.402360 0.231860 0.036330 -0.484663
O80   O     O_3   0.782938 0.256418 0.753852 -0.675845
O81   O     O_3   0.374939 0.306080 0.752799 -0.690907
O82   O     O_3   0.717084 0.756323 0.246148 -0.675795
O83   O     O_3   0.625060 0.306079 0.247203 -0.690901
O84   O     O_3   0.282938 0.756416 0.753856 -0.675843
O85   O     O_3   0.603625 0.129442 0.019161 -0.666171
O86   O     O_3   0.396267 0.870549 0.980520 -0.659070
O87   O     O_3   0.396375 0.129443 0.980838 -0.666165
O88   O     O_3   0.603733 0.870549 0.019480 -0.659076
O89   O     O_3   0.103623 0.629442 0.019156 -0.666167
O90   O     O_R   0.902360 0.268140 0.036330 -0.516461
O91   O     O_3   0.896269 0.370549 0.980526 -0.659060
O92   O     O_3   0.896377 0.629443 0.980843 -0.666173
O93   O     O_3   0.103731 0.370550 0.019474 -0.659055
O94   O     O_3   0.620706 0.700758 0.875141 -0.690249
O95   O     O_3   0.366735 0.305038 0.124971 -0.679785
O96   O     O_3   0.379316 0.700770 0.124868 -0.690242
O97   O     O_3   0.633281 0.305061 0.875063 -0.679798
O98   O     O_3   0.120664 0.200790 0.875098 -0.690259
O99   O     O_3   0.866607 0.805121 0.124888 -0.679777
O100  O     O_3   0.879301 0.200763 0.124879 -0.690250
Zn1   Zn    Zn3+2 0.517420 0.775920 0.948090 0.962211
Zn2   Zn    Zn3+2 0.569330 0.276000 0.051920 0.978008
Zn3   Zn    Zn3+2 0.569330 0.724000 0.051920 0.974349
Zn4   Zn    Zn3+2 0.430670 0.276000 0.948080 0.978014
Zn5   Zn    Zn3+2 0.930670 0.224000 0.948080 0.974331
Zn6   Zn    Zn3+2 0.069330 0.776000 0.051920 0.978037
Zn7   Zn    Zn3+2 0.069330 0.224000 0.051920 0.974325
Zn8   Zn    Zn3+2 0.930670 0.776000 0.948080 0.978016
Zn9   Zn    Zn3+2 0.482580 0.224080 0.051910 0.979648
Zn10  Zn    Zn3+2 0.482580 0.775920 0.051910 0.962202
Zn11  Zn    Zn3+2 0.517420 0.224080 0.948090 0.979646
Zn12  Zn    Zn3+2 0.017420 0.275920 0.948090 0.962214
Zn13  Zn    Zn3+2 0.982580 0.724080 0.051910 0.979613
Zn14  Zn    Zn3+2 0.982580 0.275920 0.051910 0.962210
Zn15  Zn    Zn3+2 0.017420 0.724080 0.948090 0.979628
Zn16  Zn    Zn3+2 0.430670 0.724000 0.948080 0.974324

loop_
_geom_bond_atom_site_label_1
_geom_bond_atom_site_label_2
_ccdc_geom_bond_type
C67   C95   A    
C240  O9    A    
C220  C250  A    
C81   N3    S    
C214  H158  S    
C121  O28   A    
H42   O75   S    
O23   Zn10  S    
C43   H107  S    
H44   O77   S    
O2    Zn15  S    
C197  O54   S    
H96   O94   S    
O31   Zn13  S    
C50   C59   A    
C208  O65   S    
O11   Zn6   S    
C172  H72   S    
C159  H176  S    
O13   Zn4   S    
C54   C63   A    
C184  C193  A    
C46   C105  S    
C90   C176  A    
C208  C217  A    
C193  C201  A    
C239  O8    A    
C98   H122  S    
O35   Zn15  S    
C110  C111  A    
H32   O65   S    
C17   C61   A    
C227  C248  A    
C44   C53   A    
C123  C145  A    
C19   C63   A    
C142  C246  S    
C164  H6    S    
H97   O95   S    
O10   Zn5   S    
C122  C148  S    
C236  C253  A    
H61   N3    S    
C235  O5    A    
H100  O98   S    
C167  N16   S    
C197  C206  A    
C166  H16   S    
C210  H155  S    
C24   C154  A    
C190  C199  A    
C57   C116  A    
C101  C212  A    
C2    C152  A    
C243  O12   A    
C6    N14   S    
O9    Zn4   S    
C127  C136  A    
O49   Zn8   S    
C76   O21   A    
C72   C91   A    
C179  C188  A    
C174  H82   S    
C175  N8    S    
C8    C256  A    
C82   C91   A    
C189  C250  S    
O20   Zn6   S    
C224  C233  S    
O26   Zn1   S    
O24   Zn5   S    
O48   Zn7   S    
C1    C231  S    
C191  O79   A    
C79   H164  S    
C115  C118  A    
C153  C246  A    
C204  C212  A    
C238  O7    A    
C48   O76   S    
C28   H57   S    
H8    N14   S    
C238  O33   A    
C77   O22   A    
O32   Zn1   S    
C196  O53   S    
O14   Zn8   S    
C205  C214  A    
C164  N13   S    
C157  H172  S    
H173  N1    S    
C198  O55   S    
C131  C149  A    
H78   N7    S    
C183  O3    S    
C121  O30   A    
C175  H86   S    
O47   Zn6   S    
C223  C232  A    
C109  H137  S    
C16   C25   A    
C161  H185  S    
C85   N7    S    
C18   C62   A    
C159  H174  S    
C154  C158  A    
C17   H138  S    
C18   H149  S    
C165  N14   S    
C82   N4    S    
C200  C209  A    
C11   C76   S    
C223  C247  A    
C213  O2    A    
C200  O58   S    
O35   Zn13  S    
C115  H142  S    
C96   C254  A    
C80   C88   A    
C50   O78   S    
C134  C141  A    
C168  O94   S    
H23   O56   S    
C207  C216  A    
C121  C149  S    
H99   O97   S    
C84   C93   A    
C44   H108  S    
C69   H114  S    
C86   C95   A    
C170  H64   S    
H38   O71   S    
C126  C134  A    
H103  O100  S    
H31   O64   S    
O24   Zn14  S    
C103  C107  A    
C182  C190  A    
H104  O3    S    
O21   Zn7   S    
O22   Zn8   S    
C244  O40   A    
C57   C118  A    
C39   H79   S    
C78   C87   A    
C136  H132  S    
C79   C210  A    
C20   C64   A    
O34   Zn10  S    
C123  C132  A    
C166  H15   S    
C119  O26   A    
H181  N10   S    
C33   C94   S    
O7    Zn2   S    
C72   C85   A    
C172  N5    S    
C31   C40   A    
C174  H80   S    
H102  O99   S    
C133  C142  A    
C132  H129  S    
C220  C229  A    
C171  H66   S    
C33   C42   A    
C99   H123  S    
C243  O39   A    
H47   O80   S    
C90   C211  A    
C43   C52   A    
C24   C143  S    
C40   C49   A    
C163  H3    S    
C159  N1    S    
C16   C60   A    
C13   C144  S    
C205  O62   S    
C157  C218  A    
C186  C249  S    
C173  H77   S    
C69   C82   A    
C173  N6    S    
C139  C143  A    
C75   O18   A    
C135  C216  A    
C171  N4    S    
C221  C230  A    
C113  H167  S    
C190  C253  S    
C32   C41   A    
C112  O42   A    
C169  N2    S    
C131  C140  A    
C219  C228  A    
C193  O50   S    
C162  N11   S    
C192  C200  A    
C67   H113  S    
C162  H188  S    
O35   Zn8   S    
C255  N9    S    
C203  C211  A    
H49   O82   S    
C9    C255  A    
C113  C214  A    
C173  H76   S    
C181  O99   S    
C133  H130  S    
C126  C145  A    
C41   H101  S    
C169  H58   S    
C239  O34   A    
C135  H169  S    
O18   Zn4   S    
H36   O69   S    
C221  C253  A    
C180  C229  S    
C167  H54   S    
C217  H162  S    
C20   H171  S    
C209  O66   S    
H19   O52   S    
C15   H116  S    
H89   O87   S    
C66   C92   A    
C40   H90   S    
C192  C252  S    
C162  H189  S    
H45   O78   S    
C138  H134  S    
C86   N8    S    
C134  H131  S    
C212  H157  S    
C129  C149  A    
C3    C9    A    
C170  H62   S    
H27   O60   S    
C218  H163  S    
C102  H125  S    
H17   O50   S    
C128  O89   S    
C171  H69   S    
C242  O38   A    
C19   C28   A    
C49   O77   S    
H18   O51   S    
C109  C114  A    
C241  O37   A    
C215  H159  S    
C67   C81   A    
H70   N5    S    
C139  H135  S    
C165  H10   S    
C180  O43   A    
C45   H109  S    
C4    N12   S    
C202  O45   A    
C9    C74   S    
C135  C181  A    
C231  C249  A    
C240  O36   A    
H98   O96   S    
H26   O59   S    
C132  C141  A    
C99   C106  A    
C65   H111  S    
H28   O61   S    
C198  C207  A    
H52   N16   S    
C34   C43   A    
C45   C54   A    
C163  H192  S    
C225  O73   S    
C179  O98   S    
C66   C80   A    
H34   O67   S    
C51   O80   S    
C226  C234  A    
C119  O23   A    
C203  O60   S    
C14   C22   A    
H83   N8    S    
H51   O84   S    
C138  C144  A    
C28   C37   A    
C154  H151  S    
C30   C39   A    
O1    Zn10  S    
C229  C247  A    
C3    C99   A    
C178  O97   S    
C12   H1    S    
O35   Zn6   S    
H93   O91   S    
C51   C60   A    
H50   O83   S    
C129  O91   S    
C169  H60   S    
C25   C33   A    
C100  H124  S    
C124  C215  A    
C206  C215  A    
C96   C105  A    
C160  H179  S    
C161  H183  S    
C191  C228  S    
C187  C196  A    
C226  C249  A    
C116  H143  S    
O25   Zn11  S    
C122  O31   A    
O1    Zn1   S    
C185  C194  A    
C235  O49   A    
C183  C192  A    
O27   Zn9   S    
C176  C185  A    
C22   H2    S    
C227  C236  A    
C42   H106  S    
H87   O85   S    
C2    C150  A    
C59   C242  S    
C222  C252  A    
C27   H46   S    
C185  C245  S    
O36   Zn11  S    
C5    C11   A    
C146  H170  S    
C172  H73   S    
C120  O25   A    
C213  O47   A    
C166  N15   S    
C119  C147  S    
C123  O85   S    
O19   Zn5   S    
C112  C230  S    
C1    O46   A    
C224  O48   A    
O45   Zn5   S    
C126  O87   S    
C103  H126  S    
O38   Zn13  S    
C124  C179  A    
C136  C142  A    
C211  H156  S    
C57   C108  S    
C181  C189  A    
C96   H120  S    
H74   N6    S    
C150  C153  A    
C227  O75   S    
O43   Zn3   S    
C151  C152  A    
C68   C107  S    
C70   H115  S    
C47   H110  S    
C80   N2    S    
O41   Zn16  S    
H37   O70   S    
C97   C255  A    
C176  O95   S    
C81   C89   A    
C113  C178  A    
C120  C145  S    
C219  C251  A    
C46   C111  A    
C151  C246  A    
C25   H24   S    
C130  C139  A    
C175  H85   S    
C219  O67   S    
C8    C75   S    
C191  O44   A    
C101  H166  S    
C14   C58   A    
C53   O82   S    
C158  H154  S    
H30   O63   S    
C5    N13   S    
H12   N15   S    
C241  O10   A    
C177  C186  A    
C172  H71   S    
O46   Zn10  S    
C69   C94   A    
C125  C147  A    
C220  O69   S    
C182  O100  S    
C146  C182  A    
C128  C148  A    
O8    Zn3   S    
C195  C204  A    
C66   H112  S    
C222  O71   S    
C112  O57   A    
C167  H55   S    
C71   C84   A    
C188  C251  S    
O15   Zn16  S    
C73   H119  S    
H20   O53   S    
C26   H35   S    
H22   O55   S    
C164  H5    S    
H95   O93   S    
C34   C88   S    
C6    C103  A    
C70   C83   A    
C254  N1    S    
C64   C237  S    
C35   C110  A    
C77   O20   A    
C24   C156  A    
H56   N2    S    
C97   C106  A    
O44   Zn4   S    
C74   O17   A    
C170  N3    S    
C184  C247  S    
H177  N9    S    
C237  O32   A    
C122  O29   A    
C209  C218  A    
C213  C234  S    
C41   C50   A    
C104  C108  A    
O33   Zn9   S    
C233  C251  A    
C140  H136  S    
O24   Zn7   S    
C5    C102  A    
C23   H13   S    
C65   C78   A    
O6    Zn16  S    
C124  H168  S    
C61   C240  S    
C15   C59   A    
C140  C144  A    
O68   Zn1   S    
C137  H133  S    
C6    C10   A    
C155  H152  S    
C224  O4    A    
O13   Zn9   S    
C27   C36   A    
C83   N5    S    
C174  H81   S    
C21   C30   A    
H48   O81   S    
C225  C233  A    
C23   C32   A    
C73   C89   A    
C175  H84   S    
O1    Zn16  S    
C160  N9    S    
H190  N12   S    
O4    Zn12  S    
C188  C197  A    
O30   Zn12  S    
H186  N11   S    
O29   Zn15  S    
H88   O86   S    
C58   C243  S    
C101  C177  A    
C62   C239  S    
C68   C115  A    
O42   Zn2   S    
C117  H144  S    
C46   C109  A    
C199  O56   S    
C127  O88   S    
C159  H175  S    
C223  O72   S    
C157  C183  A    
O79   Zn9   S    
C155  C156  A    
C74   O15   A    
C177  O96   S    
C39   C48   A    
C189  C198  A    
C226  O74   S    
C17   C26   A    
C54   O83   S    
C29   H68   S    
C207  O64   S    
C104  H128  S    
C173  H75   S    
C70   C88   A    
C63   C238  S    
C98   C256  A    
H25   O58   S    
O12   Zn7   S    
H4    N13   S    
C7    C11   A    
C83   C92   A    
C38   C89   S    
C160  H178  S    
C167  H53   S    
C98   C105  A    
H29   O62   S    
C75   O16   A    
C30   C93   S    
C90   H165  S    
C152  H148  S    
H33   O66   S    
C170  H63   S    
O28   Zn14  S    
O24   Zn12  S    
C164  H7    S    
H91   O88   S    
C116  C117  A    
C35   C114  A    
C237  O6    A    
C8    C254  A    
C196  C205  A    
C199  C208  A    
C146  C217  A    
C55   O84   S    
C26   C34   A    
C118  H145  S    
C13   C155  A    
C129  C138  A    
C168  C184  A    
C102  C108  A    
C79   C168  A    
C201  C210  A    
C52   O81   S    
C42   C51   A    
O39   Zn14  S    
C161  H184  S    
C15   C23   A    
C137  C143  A    
C180  O68   A    
C256  N10   S    
C166  H14   S    
O5    Zn13  S    
C151  H147  S    
H39   O72   S    
C10   C77   S    
C131  O93   S    
O17   Zn3   S    
C20   C29   A    
O13   Zn11  S    
C36   C87   S    
C225  C245  A    
C156  H153  S    
C73   C86   A    
C16   H127  S    
C78   N16   S    
H40   O73   S    
C22   C31   A    
C37   C91   S    
C130  C148  A    
C186  C195  A    
H41   O74   S    
C72   H118  S    
C153  H150  S    
C163  H191  S    
C228  C245  A    
C201  O59   S    
C12   C21   A    
C232  C235  S    
C49   C58   A    
C216  H161  S    
C29   C38   A    
C128  C137  A    
C187  C248  S    
O37   Zn12  S    
C68   C117  A    
C3    N11   S    
C85   C94   A    
H21   O54   S    
C195  O52   S    
C55   C64   A    
C32   C95   S    
O13   Zn2   S    
C125  O86   S    
C174  N7    S    
H65   N4    S    
C38   C47   A    
C12   C56   A    
C110  H139  S    
C222  C231  A    
C7    C104  A    
C4    C100  A    
C120  O27   A    
C162  H187  S    
C71   C87   A    
C232  C250  A    
C178  C187  A    
C4    C10   A    
C13   C158  A    
C230  C248  A    
C169  H59   S    
C47   C55   A    
C194  O51   S    
C125  C133  A    
C48   C56   A    
C160  H180  S    
C100  C107  A    
C97   H121  S    
O57   Zn11  S    
C14   H105  S    
C18   C27   A    
O16   Zn2   S    
C52   C61   A    
C171  H67   S    
C242  O11   A    
C84   N6    S    
C204  O61   S    
C35   C106  S    
C60   C241  S    
C206  O63   S    
C76   O19   A    
C244  O14   A    
C221  O70   S    
C194  C203  A    
C65   C93   A    
C111  H140  S    
C1    O41   A    
C56   C244  S    
C21   H182  S    
C163  N12   S    
C202  O90   A    
O40   Zn15  S    
C36   C44   A    
C71   H117  S    
C202  C236  S    
H43   O76   S    
C114  H141  S    
C234  C252  A    
C161  N10   S    
C53   C62   A    
C7    N15   S    
C31   C92   S    
C165  H11   S    
C130  O92   S    
O90   Zn14  S    
C2    C141  S    
O1    Zn3   S    
H92   O89   S    
C165  H9    S    
C19   H160  S    
H94   O92   S    
C37   C45   A    
C150  H146  S    
C127  C147  A    
