data_mof_unit_42577.cif
_audit_creation_date              2012-10-26T19:40:09-0400
_audit_creation_method            fapswitch 2.2
_symmetry_space_group_name_H-M    P1
_symmetry_Int_Tables_number       1
_space_group_crystal_system       triclinic
_cell_length_a                    14.962995
_cell_length_b                    8.683467
_cell_length_c                    7.510282
_cell_angle_alpha                 103.394257
_cell_angle_beta                  94.022701
_cell_angle_gamma                 93.325685
_cell_volume                      944.157340074

loop_
_atom_site_label
_atom_site_type_symbol
_atom_type_description
_atom_site_fract_x
_atom_site_fract_y
_atom_site_fract_z
_atom_type_partial_charge
C1    C     C_R   0.496637 0.199748 0.453052 0.519939
C2    C     C_R   0.180443 0.350018 0.471873 0.083431
C3    C     C_R   0.766913 0.504709 0.492761 0.021150
C4    C     C_R   0.233084 0.495293 0.507207 0.021145
C5    C     C_R   0.806011 0.360086 0.458059 -0.140477
C6    C     C_R   0.193984 0.639915 0.541810 -0.140475
C7    C     C_R   0.898879 0.357214 0.460326 0.008810
C8    C     C_R   0.101112 0.642784 0.539410 0.008815
C9    C     C_R   0.953039 0.501510 0.497748 0.032242
C10   C     C_R   0.046950 0.498487 0.501938 0.032239
C11   C     C_R   0.913424 0.648679 0.531225 0.063627
C12   C     C_R   0.503362 0.800252 0.546948 0.519927
C13   C     C_R   0.086564 0.351318 0.468479 0.063622
C14   C     C_R   0.938301 0.212181 0.427020 -0.143288
C15   C     C_R   0.061688 0.787815 0.572669 -0.143275
C16   C     C_3   0.381994 0.237625 0.963909 -0.027820
C17   C     C_3   0.618021 0.762358 0.036092 -0.027859
C18   C     C_R   0.031296 0.209055 0.431044 -0.113183
C19   C     C_R   0.968691 0.790940 0.568625 -0.113188
C20   C     C_2   0.493204 0.031221 0.427602 -0.159815
C21   C     C_2   0.506795 0.968779 0.572398 -0.159815
C22   C     C_R   0.329328 0.497993 0.502221 0.530513
C23   C     C_R   0.670671 0.502004 0.497777 0.530503
C24   C     C_R   0.819549 0.649983 0.527975 0.083435
Cu1   Cu    Cu3+1 0.510010 0.517380 0.684380 1.040077
Cu2   Cu    Cu3+1 0.489990 0.482620 0.315620 1.040056
H1    H     H_    0.763790 0.249862 0.431407 0.106869
H2    H     H_    0.733175 0.797060 0.447220 0.238052
H3    H     H_    0.258105 0.192340 0.324606 0.224754
H4    H     H_    0.266537 0.202797 0.553193 0.237966
H5    H     H_    0.348727 0.244683 0.092058 0.141465
H6    H     H_    0.443557 0.171741 0.964342 0.110363
H7    H     H_    0.334558 0.167898 0.849827 0.086191
H8    H     H_    0.556463 0.828261 0.035693 0.110342
H9    H     H_    0.651273 0.755302 0.907924 0.141461
H10   H     H_    0.665472 0.832063 0.150162 0.086286
H11   H     H_    0.236206 0.750139 0.568500 0.106858
H12   H     H_    0.897093 0.100949 0.397695 0.120561
H13   H     H_    0.102896 0.899048 0.602011 0.120542
H14   H     H_    0.059505 0.094749 0.403986 0.151535
H15   H     H_    0.940483 0.905246 0.595685 0.151523
H16   H     H_    0.478623 0.958273 0.288982 0.119754
H17   H     H_    0.521377 0.041727 0.711017 0.119756
H18   H     H_    0.742226 0.807866 0.675845 0.224719
N1    N     N_2   0.474890 0.456420 0.038520 0.102358
N2    N     N_2   0.525110 0.543580 0.961480 0.102360
N3    N     N_3   0.778325 0.798179 0.560213 -0.660442
N4    N     N_3   0.221669 0.201825 0.439774 -0.660356
O1    O     O_R   0.506510 0.286130 0.619770 -0.482504
O2    O     O_3   0.600141 0.610612 0.066777 -0.461133
O3    O     O_R   0.493490 0.713870 0.380230 -0.482530
O4    O     O_R   0.489600 0.256770 0.308360 -0.547619
O5    O     O_R   0.510400 0.743230 0.691640 -0.547590
O6    O     O_R   0.378710 0.514640 0.655720 -0.455390
O7    O     O_R   0.621290 0.485360 0.344280 -0.455409
O8    O     O_R   0.361800 0.485290 0.344300 -0.509981
O9    O     O_R   0.638200 0.514710 0.655700 -0.509959
O10   O     O_3   0.399865 0.389370 0.933213 -0.461139

loop_
_geom_bond_atom_site_label_1
_geom_bond_atom_site_label_2
_ccdc_geom_bond_type
C17   O2    S    
C2    C4    A    
H2    N3    S    
C23   O7    A    
C17   H10   S    
Cu2   O4    S    
C16   H7    S    
C14   H12   S    
C4    C22   S    
C9    C10   A    
N2    O2    S    
C20   H16   S    
C12   O5    A    
H18   N3    S    
C5    H1    S    
C11   C19   A    
Cu2   O7    S    
C6    H11   S    
C22   O6    A    
C16   O10   S    
N1    N2    D    
Cu1   O6    S    
C16   H5    S    
C15   C19   A    
C9    C11   A    
C15   H13   S    
C3    C24   A    
Cu1   O9    S    
C13   C18   A    
C23   O9    A    
C6    C8    A    
C4    C6    A    
Cu1   O5    S    
C14   C18   A    
C8    C15   A    
C1    O4    A    
Cu1   O1    S    
N1    O10   S    
C16   H6    S    
C17   H8    S    
H3    N4    S    
C12   C21   S    
C7    C9    A    
C11   C24   A    
C12   O3    A    
C20   C21   D    
C8    C10   A    
H4    N4    S    
C5    C7    A    
C2    C13   A    
C18   H14   S    
C1    C20   S    
C22   O8    A    
C3    C23   S    
C17   H9    S    
Cu2   N1    S    
C2    N4    S    
Cu1   Cu2   S    
Cu2   O3    S    
C24   N3    S    
C1    O1    A    
Cu1   N2    S    
C7    C14   A    
C21   H17   S    
C19   H15   S    
C3    C5    A    
C10   C13   A    
Cu2   O8    S    
