data_mof_unit_22244.cif
_audit_creation_date              2012-12-11T14:50:54-0500
_audit_creation_method            fapswitch 2.2
_symmetry_space_group_name_H-M    P1
_symmetry_Int_Tables_number       1
_space_group_crystal_system       triclinic
_cell_length_a                    10.979101
_cell_length_b                    10.992179
_cell_length_c                    18.781229
_cell_angle_alpha                 90.143906
_cell_angle_beta                  89.759586
_cell_angle_gamma                 60.013373
_cell_volume                      1963.15119211

loop_
_atom_site_label
_atom_site_type_symbol
_atom_type_description
_atom_site_fract_x
_atom_site_fract_y
_atom_site_fract_z
_atom_type_partial_charge
C1    C     C_R   0.227617 0.650217 0.606738 0.603275
C2    C     C_R   0.555710 0.171539 0.787837 -0.078287
C3    C     C_R   0.547727 0.168477 0.714588 0.223163
C4    C     C_R   0.656465 0.622763 0.600206 0.577867
C5    C     C_R   0.656167 0.173906 0.674464 0.019663
C6    C     C_R   0.218174 0.558894 0.725236 -0.023980
C7    C     C_R   0.187830 0.578885 0.797241 -0.097180
C8    C     C_R   0.106435 0.714864 0.823594 -0.004926
C9    C     C_R   0.060791 0.829221 0.777938 -0.137486
C10   C     C_R   0.085717 0.809182 0.705070 -0.106415
C11   C     C_R   0.166020 0.672701 0.678053 0.053779
C12   C     C_3   0.726738 0.548655 0.800162 0.123987
C13   C     C_R   0.787678 0.557584 0.282218 0.251567
C14   C     C_R   0.778321 0.560069 0.209284 -0.070802
C15   C     C_R   0.669031 0.673803 0.173127 -0.020051
C16   C     C_R   0.628134 0.224952 0.601669 0.585569
C17   C     C_R   0.559834 0.782114 0.212193 -0.160444
C18   C     C_R   0.558598 0.773034 0.286262 -0.186783
C19   C     C_R   0.669497 0.658926 0.321776 0.012077
C20   C     C_R   0.555928 0.142214 0.289700 -0.154474
C21   C     C_R   0.554897 0.136454 0.216737 -0.177558
C22   C     C_R   0.651830 0.156096 0.176621 0.038717
C23   C     C_3   0.734760 0.685640 0.807089 -0.006379
C24   C     C_R   0.747832 0.186146 0.210888 0.212999
C25   C     C_R   0.747462 0.192001 0.284189 -0.090757
C26   C     C_R   0.649386 0.174367 0.323678 -0.008840
C27   C     C_R   0.263120 0.732907 0.278018 -0.128400
C28   C     C_R   0.292367 0.618400 0.393294 0.551004
C29   C     C_R   0.222095 0.750713 0.208021 -0.112203
C30   C     C_R   0.183205 0.659421 0.175785 0.016028
C31   C     C_R   0.211247 0.536153 0.210471 -0.106609
C32   C     C_R   0.255650 0.516485 0.281274 -0.078503
C33   C     C_R   0.270598 0.621339 0.316645 0.023439
C34   C     C_3   0.685872 0.649538 0.674236 -0.012648
C35   C     C_R   0.699836 0.103220 0.896150 0.534133
C36   C     C_R   0.756482 0.709269 0.882941 0.522044
C37   C     C_R   0.060267 0.740593 0.897182 0.522008
C38   C     C_R   0.674504 0.107451 0.103844 0.581738
C39   C     C_R   0.697231 0.690849 0.098674 0.566359
C40   C     C_R   0.645783 0.624583 0.393645 0.543624
C41   C     C_R   0.099102 0.706970 0.110995 0.554262
C42   C     C_R   0.618150 0.227861 0.395466 0.527184
C43   C     C_3   0.597383 0.812984 0.779435 -0.235875
C44   C     C_3   0.584326 0.800132 0.699023 -0.180090
C45   C     C_3   0.836347 0.629470 0.681147 -0.277423
C46   C     C_3   0.855831 0.669775 0.757979 -0.257414
C47   C     C_3   0.679375 0.539455 0.724952 0.150363
C48   C     C_R   0.771557 0.169217 0.709547 -0.164821
C49   C     C_R   0.781047 0.160961 0.783376 -0.113942
C50   C     C_R   0.676656 0.156093 0.822865 0.019352
Cl1   Cl    Cl    0.869841 0.218282 0.165340 -0.580156
Cl2   Cl    Cl    0.892613 0.389690 0.816287 -0.628249
Cr1   Cr    Cr6+3 0.392930 0.397900 0.502230 1.133638
Cr2   Cr    Cr6+3 0.398240 0.708600 0.501260 1.088583
Cr3   Cr    Cr6+3 0.708800 0.393470 0.496460 1.099180
Cr4   Cr    Cr6+3 0.937620 0.938540 0.007640 1.099484
Cr5   Cr    Cr6+3 0.625150 0.937450 0.994520 1.036811
Cr6   Cr    Cr6+3 0.937990 0.625080 0.001190 1.087363
H1    H     H_    0.599013 0.911139 0.790680 0.151396
H2    H     H_    0.007147 0.932928 0.799569 0.130523
H3    H     H_    0.504639 0.821565 0.807746 0.188404
H4    H     H_    0.050783 0.899562 0.670792 0.132556
H5    H     H_    0.866128 0.477434 0.180468 0.240060
H6    H     H_    0.476969 0.873265 0.185797 0.139836
H7    H     H_    0.469924 0.853814 0.315738 0.136324
H8    H     H_    0.478575 0.128540 0.319194 0.148309
H9    H     H_    0.481559 0.110555 0.192191 0.148636
H10   H     H_    0.819093 0.217744 0.309921 0.215351
H11   H     H_    0.280406 0.811735 0.302972 0.142679
H12   H     H_    0.751297 0.433169 0.702846 0.176756
H13   H     H_    0.473882 0.838000 0.683720 0.267413
H14   H     H_    0.210129 0.843323 0.181359 0.168166
H15   H     H_    0.192859 0.459836 0.183699 0.180205
H16   H     H_    0.271145 0.423896 0.309205 0.172659
H17   H     H_    0.619898 0.867046 0.672965 0.169943
H18   H     H_    0.855584 0.770782 0.756726 0.100328
H19   H     H_    0.852940 0.695625 0.641914 0.121161
H20   H     H_    0.652494 0.551584 0.841543 0.197444
H21   H     H_    0.192152 0.276281 0.638512 0.371040
H22   H     H_    0.158464 0.281534 0.275619 0.356230
H23   H     H_    0.957382 0.586948 0.778701 0.197996
H24   H     H_    0.366000 0.718941 0.798006 0.357994
H25   H     H_    0.917445 0.518349 0.669943 0.178238
H26   H     H_    0.852637 0.176346 0.679959 0.146612
H27   H     H_    0.870727 0.155657 0.809657 0.194826
H28   H     H_    0.469424 0.175240 0.817730 0.184727
H29   H     H_    0.299465 0.457078 0.709160 0.244438
H30   H     H_    0.230821 0.488767 0.832207 0.171019
O1    O     O_R   0.507430 0.255570 0.581420 -0.402716
O2    O     O_R   0.837200 0.593290 0.915250 -0.436577
O3    O     O_R   0.065330 0.635370 0.931590 -0.508713
O4    O     O_R   0.280190 0.527390 0.578910 -0.453153
O5    O     O_R   0.068300 0.828790 0.091860 -0.496170
O6    O     O_R   0.798730 0.057480 0.079370 -0.433033
O7    O     O_R   0.584680 0.080480 0.076790 -0.530660
O8    O     O_R   0.626790 0.809640 0.067050 -0.494996
O9    O     O_R   0.816010 0.596460 0.076500 -0.496735
O10   O     O_R   0.045680 0.638310 0.081070 -0.496974
O11   O     O_3   0.833590 0.833690 0.001120 -0.313553
O12   O     O_R   0.524460 0.695920 0.424060 -0.543536
O13   O     O_R   0.260310 0.739740 0.584580 -0.470121
O14   O     O_R   0.532250 0.695150 0.573830 -0.449626
O15   O     O_R   0.744930 0.503430 0.576380 -0.521832
O16   O     O_R   0.699250 0.276390 0.571950 -0.504729
O17   O     O_R   0.499020 0.256400 0.419850 -0.530294
O18   O     O_R   0.272400 0.528160 0.429140 -0.479590
O19   O     O_R   0.251910 0.740570 0.423020 -0.515625
O20   O     O_2   0.451851 0.056163 0.613748 -0.315841
O21   O     O_2   0.350048 0.089761 0.733829 -0.323729
O22   O     O_3   0.264974 0.300682 0.650965 -0.520636
O23   O     O_R   0.736530 0.504260 0.414810 -0.433548
O24   O     O_2   0.999124 0.512028 0.370152 -0.269365
O25   O     O_2   0.954353 0.316385 0.356886 -0.275048
O26   O     O_3   0.076944 0.363421 0.253620 -0.565626
O27   O     O_2   0.492352 0.498804 0.659826 -0.277393
O28   O     O_2   0.513196 0.456081 0.787423 -0.355058
O29   O     O_3   0.381799 0.714235 0.745874 -0.546842
O30   O     O_R   0.691460 0.277160 0.422180 -0.505409
O31   O     O_3   0.499990 0.499990 0.499980 -0.291093
O32   O     O_R   0.089490 0.825610 0.930610 -0.495202
O33   O     O_R   0.818370 0.054540 0.929880 -0.502149
O34   O     O_R   0.605870 0.077310 0.915530 -0.536686
O35   O     O_R   0.646440 0.806700 0.917570 -0.512267
S1    S     S_3+6 0.403578 0.150097 0.678337 -0.030672
S2    S     S_3+6 0.956079 0.435498 0.318804 0.013891
S3    S     S_3+6 0.512977 0.550260 0.729680 -0.068530

loop_
_geom_bond_atom_site_label_1
_geom_bond_atom_site_label_2
_ccdc_geom_bond_type
C27   C29   A    
Cr2   O13   S    
Cr6   O10   S    
C46   H18   S    
C7    C8    A    
C10   H4    S    
C45   C46   S    
C27   C33   A    
C18   H7    S    
Cr4   O6    S    
C25   H10   S    
C12   C23   S    
C43   H3    S    
O27   S3    D    
Cr2   O19   S    
C20   H8    S    
Cr2   O31   S    
C17   H6    S    
C32   H16   S    
C30   C31   A    
C39   O9    A    
O25   S2    D    
C28   O19   A    
C22   C38   S    
C4    O15   A    
Cr3   O15   S    
C23   C43   S    
C44   H13   S    
C18   C19   A    
C5    C16   S    
C2    C50   A    
O22   S1    S    
Cr5   O34   S    
Cr1   O18   S    
C16   O16   A    
C41   O5    A    
C7    H30   S    
C28   O18   A    
C8    C9    A    
Cr5   O8    S    
C12   H20   S    
C38   O7    A    
C30   C41   S    
Cr6   O3    S    
C27   H11   S    
C43   H1    S    
C29   H14   S    
C13   S2    S    
C24   Cl1   S    
C16   O1    A    
C23   C46   S    
O28   S3    D    
C13   C14   A    
C21   H9    S    
Cr4   O32   S    
Cr2   O12   S    
C45   H25   S    
Cr6   O9    S    
O20   S1    D    
C12   C47   S    
C12   Cl2   S    
C40   O23   A    
Cr4   O5    S    
C5    C48   A    
C4    C34   S    
C35   C50   S    
C13   C19   A    
C49   H27   S    
C35   O33   A    
C36   O35   A    
C34   C44   S    
C24   C25   A    
C10   C11   A    
C6    C11   A    
O26   S2    S    
C37   O3    A    
C42   O30   A    
Cr3   O31   S    
C25   C26   A    
Cr3   O16   S    
C6    H29   S    
C48   H26   S    
C4    O14   A    
C44   H17   S    
C43   C44   S    
C47   H12   S    
C29   C30   A    
Cr5   O35   S    
C46   H23   S    
C31   C32   A    
C38   O6    A    
Cr1   O4    S    
C17   C18   A    
C34   C45   S    
Cr6   O2    S    
C15   C39   S    
O24   S2    D    
C48   C49   A    
H22   O26   S    
C28   C33   S    
C23   C36   S    
C1    O4    A    
Cr1   O1    S    
C22   C24   A    
C8    C37   S    
C1    O13   A    
C3    S1    S    
C26   C42   S    
C47   S3    S    
C9    C10   A    
C36   O2    A    
C15   C17   A    
H21   O22   S    
Cr3   O23   S    
C14   C15   A    
Cr2   O14   S    
C35   O34   A    
Cr6   O11   S    
C3    C5    A    
C40   O12   A    
Cr1   O31   S    
O21   S1    D    
C6    C7    A    
C34   C47   S    
H24   O29   S    
C9    H2    S    
Cr4   O33   S    
C2    C3    A    
C32   C33   A    
C37   O32   A    
C20   C26   A    
C14   H5    S    
C2    H28   S    
C42   O17   A    
C39   O8    A    
C31   H15   S    
C19   C40   S    
Cr1   O17   S    
C20   C21   A    
C49   C50   A    
Cr5   O7    S    
C41   O10   A    
O29   S3    S    
C45   H19   S    
C1    C11   S    
Cr4   O11   S    
C21   C22   A    
Cr3   O30   S    
Cr5   O11   S    
