data_mof_unit_50303.cif
_audit_creation_date              2012-12-10T19:45:45-0500
_audit_creation_method            fapswitch 2.2
_symmetry_space_group_name_H-M    P1
_symmetry_Int_Tables_number       1
_space_group_crystal_system       triclinic
_cell_length_a                    10.889399
_cell_length_b                    14.72418
_cell_length_c                    14.955473
_cell_angle_alpha                 64.077562
_cell_angle_beta                  103.328332
_cell_angle_gamma                 101.151967
_cell_volume                      2086.7808858

loop_
_atom_site_label
_atom_site_type_symbol
_atom_type_description
_atom_site_fract_x
_atom_site_fract_y
_atom_site_fract_z
_atom_type_partial_charge
C1    C     C_R   0.473092 0.120679 0.312303 0.777014
C2    C     C_R   0.688286 0.769280 0.964521 -0.223734
C3    C     C_R   0.348160 0.167210 0.132440 0.157890
C4    C     C_R   0.658747 0.840885 0.865226 0.169191
C5    C     C_R   0.491814 0.293967 0.178460 -0.281834
C6    C     C_R   0.501318 0.714299 0.830748 -0.272553
C7    C     C_R   0.442706 0.372853 0.088806 0.049564
C8    C     C_R   0.521012 0.646653 0.933040 0.058599
C9    C     C_R   0.355071 0.346863 0.015560 0.081709
C10   C     C_R   0.625534 0.670493 0.998358 0.030897
C11   C     C_R   0.488635 0.476641 0.065378 -0.033716
C12   C     C_R   0.531091 0.879957 0.687396 0.785704
C13   C     C_R   0.447688 0.551104 0.968862 0.014238
C14   C     C_R   0.335530 0.525078 0.911623 0.136873
C15   C     C_R   0.574282 0.509208 0.134460 0.140063
C16   C     C_R   0.263464 0.000381 0.501839 0.778566
C17   C     C_R   0.736416 0.999257 0.498142 0.769818
C18   C     C_R   0.310653 0.424530 0.922365 0.072210
C19   C     C_R   0.660117 0.596389 0.097214 0.130921
C20   C     C_R   0.716464 0.280477 0.666003 -0.335289
C21   C     C_R   0.262618 0.707869 0.354369 -0.328245
C22   C     C_R   0.687851 0.203970 0.631628 0.048586
C23   C     C_R   0.869617 0.996450 0.497814 -0.086630
C24   C     C_R   0.306970 0.793629 0.373501 0.076595
C25   C     C_R   0.508367 0.280970 0.518707 0.023270
C26   C     C_R   0.482702 0.713615 0.489812 0.028969
C27   C     C_R   0.534914 0.363218 0.547899 -0.013687
C28   C     C_R   0.440190 0.622453 0.476347 -0.021894
C29   C     C_R   0.641638 0.361121 0.623394 0.176802
C30   C     C_R   0.328253 0.621777 0.405987 0.175010
C31   C     C_R   0.461813 0.447684 0.503843 0.067794
C32   C     C_R   0.504641 0.533118 0.529049 0.060370
C33   C     C_R   0.608986 0.525620 0.607183 -0.263461
C34   C     C_R   0.130038 0.000634 0.503763 -0.087573
C35   C     C_R   0.347715 0.449782 0.435455 -0.246859
C36   C     C_R   0.674271 0.440127 0.654749 -0.233424
C37   C     C_R   0.281924 0.535113 0.388197 -0.247008
C38   C     C_R   0.327917 0.127969 0.738043 -0.177367
C39   C     C_R   0.676000 0.856303 0.270766 -0.180115
C40   C     C_R   0.263289 0.071890 0.683325 -0.080213
C41   C     C_R   0.741137 0.916996 0.320593 -0.093307
C42   C     C_R   0.172642 0.115742 0.597827 0.090319
C43   C     C_R   0.826743 0.875199 0.410200 0.093544
C44   C     C_R   0.146025 0.215009 0.569237 -0.215483
C45   C     C_R   0.911020 0.940392 0.456185 0.014049
C46   C     C_R   0.846866 0.772582 0.448675 -0.195868
C47   C     C_R   0.203722 0.268838 0.627518 0.227593
C48   C     C_R   0.784893 0.712419 0.397291 0.215874
C49   C     C_R   0.297107 0.225414 0.711259 -0.159652
C50   C     C_R   0.698382 0.754845 0.308475 -0.163470
C51   C     C_R   0.959217 0.051398 0.543572 -0.241862
C52   C     C_R   0.040361 0.944461 0.458846 -0.241762
C53   C     C_3   0.230001 0.594410 0.854083 -0.410658
C54   C     C_3   0.206045 0.651140 0.912057 -0.826224
C55   C     C_3   0.538930 0.482511 0.236208 -0.412074
C56   C     C_R   0.088562 0.054494 0.547433 0.017883
C57   C     C_3   0.468641 0.566581 0.229382 -0.831033
C58   C     C_3   0.155835 0.367675 0.603387 -0.409379
C59   C     C_3   0.037938 0.348919 0.650071 -0.891359
C60   C     C_3   0.816906 0.605412 0.434884 -0.416754
C61   C     C_3   0.946961 0.604528 0.413420 -0.868705
C62   C     C_3   0.293052 0.411538 0.825402 -0.437821
C63   C     C_3   0.423124 0.433437 0.792471 -0.818925
C64   C     C_3   0.785412 0.606304 0.164922 -0.421600
C65   C     C_3   0.858348 0.513917 0.202141 -0.849685
C66   C     C_3   0.738605 0.942699 0.836859 -0.408993
C67   C     C_R   0.440211 0.192393 0.204911 -0.088503
C68   C     C_3   0.840699 0.948373 0.779224 -0.819134
C69   C     C_3   0.282347 0.061386 0.152824 -0.392392
C70   C     C_3   0.363303 0.997678 0.136719 -0.809827
C71   C     C_R   0.564488 0.812184 0.795924 -0.087247
C72   C     C_R   0.310827 0.244437 0.037766 -0.218285
Cu1   Cu    Cu3+1 0.466270 0.918260 0.475690 0.931942
Cu2   Cu    Cu3+1 0.533730 0.081740 0.524310 0.930162
H1    H     H_    0.343914 0.264537 0.757895 0.146977
H2    H     H_    0.747836 0.143564 0.661843 0.136770
H3    H     H_    0.797749 0.277442 0.724427 0.144620
H4    H     H_    0.176528 0.708363 0.300713 0.138536
H5    H     H_    0.641682 0.584167 0.634550 0.143608
H6    H     H_    0.306038 0.386218 0.417111 0.145811
H7    H     H_    0.398460 0.094435 0.803625 0.134636
H8    H     H_    0.611326 0.888601 0.200921 0.134023
H9    H     H_    0.282009 0.994087 0.708506 0.119876
H10   H     H_    0.727316 0.996732 0.288303 0.116268
H11   H     H_    0.073617 0.248098 0.504728 0.132669
H12   H     H_    0.651324 0.710807 0.266512 0.127751
H13   H     H_    0.915205 0.740668 0.516597 0.133316
H14   H     H_    0.928599 0.091894 0.578743 0.163496
H15   H     H_    0.070620 0.903482 0.423926 0.159873
H16   H     H_    0.190092 0.596847 0.989284 0.250861
H17   H     H_    0.287413 0.708048 0.917142 0.256836
H18   H     H_    0.120330 0.691845 0.872165 0.236530
H19   H     H_    0.245770 0.648375 0.777234 0.195215
H20   H     H_    0.139610 0.547477 0.842648 0.195591
H21   H     H_    0.492575 0.574044 0.301927 0.256258
H22   H     H_    0.494994 0.642013 0.170346 0.241182
H23   H     H_    0.239362 0.224158 0.984199 0.126363
H24   H     H_    0.364574 0.548184 0.211512 0.253660
H25   H     H_    0.474824 0.411116 0.262282 0.209554
H26   H     H_    0.624658 0.471629 0.295157 0.200474
H27   H     H_    0.959754 0.307793 0.615395 0.260896
H28   H     H_    0.057014 0.303030 0.732658 0.246341
H29   H     H_    0.007641 0.422566 0.635745 0.251633
H30   H     H_    0.229548 0.417988 0.628767 0.216645
H31   H     H_    0.129567 0.408897 0.520670 0.211097
H32   H     H_    0.961861 0.525606 0.431119 0.254972
H33   H     H_    0.953815 0.652278 0.332899 0.252026
H34   H     H_    0.758662 0.793654 0.015561 0.124541
H35   H     H_    0.023075 0.633862 0.460806 0.256323
H36   H     H_    0.818890 0.566399 0.517343 0.219587
H37   H     H_    0.743755 0.561629 0.399668 0.203037
H38   H     H_    0.467297 0.510951 0.783264 0.249769
H39   H     H_    0.487516 0.377164 0.849250 0.254577
H40   H     H_    0.414539 0.429589 0.719294 0.242479
H41   H     H_    0.250152 0.334724 0.833186 0.201294
H42   H     H_    0.228457 0.465468 0.765300 0.208169
H43   H     H_    0.805304 0.443698 0.250321 0.247993
H44   H     H_    0.875836 0.503659 0.136972 0.255670
H45   H     H_    0.754463 0.437796 0.713919 0.143971
H46   H     H_    0.951320 0.525643 0.247501 0.234256
H47   H     H_    0.851143 0.672411 0.126759 0.199452
H48   H     H_    0.766691 0.615177 0.229944 0.217896
H49   H     H_    0.440239 0.689929 0.776006 0.163703
H50   H     H_    0.570217 0.311033 0.230024 0.161839
H51   H     H_    0.903679 0.887438 0.826333 0.248146
H52   H     H_    0.797234 0.939041 0.708772 0.250024
H53   H     H_    0.899621 0.022730 0.760581 0.227921
H54   H     H_    0.678711 0.005831 0.795476 0.215566
H55   H     H_    0.788108 0.954798 0.905264 0.184216
H56   H     H_    0.195003 0.533731 0.335770 0.142383
H57   H     H_    0.377372 0.031967 0.056779 0.237852
H58   H     H_    0.457459 0.993152 0.185494 0.264376
H59   H     H_    0.314687 0.919681 0.154646 0.231763
H60   H     H_    0.256405 0.024743 0.229077 0.199932
H61   H     H_    0.190269 0.064441 0.100979 0.182557
H62   H     H_    0.567847 0.721688 0.540349 0.123907
H63   H     H_    0.429258 0.276127 0.462044 0.121886
H64   H     H_    0.252944 0.858161 0.337524 0.123846
N1    N     N_R   0.584450 0.204570 0.560790 -0.177318
N2    N     N_R   0.415550 0.795430 0.439210 -0.178698
O1    O     O_R   0.455540 0.022090 0.338120 -0.576264
O2    O     O_R   0.544460 0.977910 0.661880 -0.580965
O3    O     O_R   0.512510 0.160150 0.379180 -0.584888
O4    O     O_R   0.487490 0.839850 0.620820 -0.585487
O5    O     O_R   0.291160 0.930970 0.479480 -0.594705
O6    O     O_R   0.708840 0.069030 0.520520 -0.590709
O7    O     O_R   0.348130 0.069020 0.520540 -0.577057
O8    O     O_R   0.651870 0.930980 0.479460 -0.575615

loop_
_geom_bond_atom_site_label_1
_geom_bond_atom_site_label_2
_ccdc_geom_bond_type
C66   C68   S    
Cu2   O3    S    
C34   C56   A    
C69   H60   S    
C23   C45   A    
C27   C29   A    
Cu1   Cu2   S    
C14   C18   A    
C2    C4    A    
C9    C72   A    
C22   H2    S    
C5    C67   A    
C61   H35   S    
C47   C49   A    
C38   C49   A    
Cu1   O1    S    
C53   C54   S    
C24   N2    A    
C7    C11   A    
C29   C36   A    
C8    C13   A    
C20   H3    S    
C16   O7    A    
C3    C69   S    
C54   H16   S    
C26   N2    A    
C64   H47   S    
C35   H6    S    
C33   C36   A    
C37   H56   S    
C51   C56   A    
C63   H38   S    
C36   H45   S    
C16   C34   S    
C15   C19   A    
C63   H40   S    
C11   C15   A    
C12   O2    A    
C57   H22   S    
C55   H26   S    
C70   H59   S    
C65   H44   S    
C49   H1    S    
C19   C64   S    
C44   C47   A    
C20   C29   A    
C66   H55   S    
C42   C56   S    
C40   C42   A    
Cu2   O2    S    
C69   H61   S    
C13   C14   A    
C41   C43   A    
C40   H9    S    
C52   H15   S    
C42   C44   A    
C6    H49   S    
C48   C60   S    
C72   H23   S    
C6    C71   A    
C46   C48   A    
Cu1   O8    S    
C27   C31   A    
C59   H27   S    
Cu2   O7    S    
C28   C32   A    
C17   O8    A    
C60   H36   S    
C39   C41   A    
C5    C7    A    
C33   H5    S    
C6    C8    A    
C45   C52   A    
C24   H64   S    
C58   C59   S    
C41   H10   S    
C53   H19   S    
C22   N1    A    
C48   C50   A    
C12   O4    A    
C30   C37   A    
Cu1   O5    S    
C16   O5    A    
C15   C55   S    
C21   H4    S    
C25   H63   S    
C54   H18   S    
C62   C63   S    
C1    O3    A    
C23   C51   A    
C31   C32   A    
C5    H50   S    
C10   C19   A    
C14   C53   S    
C70   H58   S    
C17   C23   S    
C61   H32   S    
C43   C45   S    
C68   H53   S    
C12   C71   S    
C20   C22   A    
C55   C57   S    
C38   H7    S    
C31   C35   A    
C58   H30   S    
C44   H11   S    
C2    C10   A    
C26   H62   S    
C68   H52   S    
C35   C37   A    
C46   H13   S    
Cu2   N1    S    
C7    C9    A    
C25   N1    A    
C53   H20   S    
C59   H28   S    
C34   C52   A    
Cu2   O6    S    
C18   C62   S    
C39   H8    S    
C51   H14   S    
Cu1   N2    S    
C25   C27   A    
C21   C30   A    
C26   C28   A    
C58   H31   S    
C59   H29   S    
C64   C65   S    
C28   C30   A    
C17   O6    A    
C54   H17   S    
C60   H37   S    
C32   C33   A    
C47   C58   S    
C38   C40   A    
C11   C13   A    
C3    C67   A    
C64   H48   S    
C57   H24   S    
C2    H34   S    
C70   H57   S    
C1    C67   S    
C65   H46   S    
C66   H54   S    
C3    C72   A    
C69   C70   S    
C61   H33   S    
C43   C46   A    
C1    O1    A    
C62   H42   S    
C50   H12   S    
C63   H39   S    
C9    C18   A    
C62   H41   S    
C39   C50   A    
C4    C66   S    
C8    C10   A    
C57   H21   S    
C21   C24   A    
C55   H25   S    
C65   H43   S    
C60   C61   S    
C68   H51   S    
C4    C71   A    
Cu1   O4    S    
