data_mof_unit_60639.cif
_audit_creation_date              2012-12-10T17:04:16-0500
_audit_creation_method            fapswitch 2.2
_symmetry_space_group_name_H-M    P1
_symmetry_Int_Tables_number       1
_space_group_crystal_system       triclinic
_cell_length_a                    15.128399
_cell_length_b                    15.104026
_cell_length_c                    16.030136
_cell_angle_alpha                 89.597633
_cell_angle_beta                  90.287091
_cell_angle_gamma                 89.955531
_cell_volume                      3662.74426966

loop_
_atom_site_label
_atom_site_type_symbol
_atom_type_description
_atom_site_fract_x
_atom_site_fract_y
_atom_site_fract_z
_atom_type_partial_charge
C1    C     C_R   0.259648 0.485834 0.488011 0.503102
C2    C     C_R   0.978565 0.479008 0.470102 0.013223
C3    C     C_R   0.019253 0.525469 0.536506 0.013806
C4    C     C_R   0.739609 0.514668 0.512588 0.497729
C5    C     C_R   0.111829 0.527171 0.540950 -0.129974
C6    C     C_R   0.121692 0.434027 0.418676 -0.128471
C7    C     C_R   0.030014 0.433261 0.412122 -0.128842
C8    C     C_R   0.522636 0.163518 0.514338 0.025571
C9    C     C_R   0.479425 0.835410 0.481718 0.037547
C10   C     C_R   0.389267 0.966185 0.461646 -0.134603
C11   C     C_R   0.398141 0.874498 0.461272 -0.124641
C12   C     C_1   0.478400 0.519925 0.886750 -0.048034
C13   C     C_R   0.551947 0.887649 0.503739 -0.120371
C14   C     C_R   0.542735 0.979549 0.507384 0.047126
C15   C     C_R   0.460983 0.019116 0.485173 0.043751
C16   C     C_R   0.513484 0.259752 0.512981 0.504603
C17   C     C_R   0.451975 0.110906 0.487697 -0.122008
C18   C     C_R   0.602814 0.124024 0.538593 -0.129034
C19   C     C_R   0.613157 0.032465 0.534288 -0.136312
C20   C     C_R   0.486353 0.739751 0.486363 0.498720
C21   C     C_R   0.512752 0.488513 0.277328 0.502431
C22   C     C_R   0.487347 0.511344 0.722778 0.502163
C23   C     C_1   0.522254 0.479512 0.113397 -0.045265
C24   C     C_1   0.517957 0.483564 0.188276 0.014512
C25   C     C_2   0.527121 0.474931 0.023909 -0.122240
C26   C     C_2   0.473639 0.524493 0.976240 -0.122264
C27   C     C_3   0.021158 0.709619 0.646674 -0.288051
C28   C     C_3   0.807164 0.563453 0.724851 -0.277113
C29   C     C_1   0.482481 0.515995 0.811857 0.009970
C30   C     C_R   0.163036 0.481667 0.482554 0.019367
C31   C     C_R   0.834856 0.522145 0.520419 0.011111
C32   C     C_R   0.966202 0.569940 0.595725 0.160812
C33   C     C_R   0.873607 0.567277 0.587997 0.159158
C34   C     C_R   0.886932 0.478629 0.462253 -0.159821
H1    H     H_    0.425812 0.568889 0.004192 0.135995
H2    H     H_    0.999300 0.397074 0.361544 0.110724
H3    H     H_    0.855612 0.443033 0.411498 0.110955
H4    H     H_    0.389742 0.141427 0.469705 0.121365
H5    H     H_    0.054943 0.585155 0.694586 0.237574
H6    H     H_    0.072174 0.716635 0.597444 0.133616
H7    H     H_    0.045406 0.742117 0.704317 0.142675
H8    H     H_    0.959495 0.743532 0.626140 0.175115
H9    H     H_    0.762333 0.638258 0.624165 0.239886
H10   H     H_    0.768993 0.604912 0.768854 0.136550
H11   H     H_    0.871593 0.546776 0.754524 0.173519
H12   H     H_    0.658113 0.164164 0.558817 0.132120
H13   H     H_    0.769662 0.501549 0.713046 0.160942
H14   H     H_    0.326141 0.995539 0.445056 0.107701
H15   H     H_    0.675903 0.003102 0.552124 0.108318
H16   H     H_    0.341716 0.833889 0.444953 0.115728
H17   H     H_    0.614083 0.856492 0.521047 0.103733
H18   H     H_    0.574952 0.430528 0.995972 0.135303
H19   H     H_    0.145075 0.563994 0.589389 0.134718
H20   H     H_    0.160241 0.398654 0.372910 0.135942
N1    N     N_2   0.004073 0.617110 0.663748 -0.506793
N2    N     N_2   0.820258 0.611832 0.647687 -0.497549
O1    O     O_3   0.500000 0.500000 0.500000 -0.435713
O2    O     O_R   0.461330 0.435620 0.316920 -0.537760
O3    O     O_R   0.434750 0.558200 0.677930 -0.536374
O4    O     O_R   0.559650 0.545720 0.316320 -0.534501
O5    O     O_R   0.544270 0.460460 0.688830 -0.542848
O6    O     O_R   0.559890 0.307360 0.561630 -0.542972
O7    O     O_R   0.434610 0.697530 0.534530 -0.541625
O8    O     O_R   0.307380 0.433810 0.444990 -0.545135
O9    O     O_R   0.698130 0.561300 0.458860 -0.540324
O10   O     O_R   0.296270 0.542620 0.535390 -0.549473
O11   O     O_R   0.698230 0.462280 0.560770 -0.546176
O12   O     O_R   0.461480 0.296280 0.460320 -0.543448
O13   O     O_R   0.544020 0.698820 0.443520 -0.539448
Zn1   Zn    Zn3+2 0.574310 0.433680 0.576480 0.928779
Zn2   Zn    Zn3+2 0.433700 0.417860 0.431740 0.937956
Zn3   Zn    Zn3+2 0.574160 0.575160 0.430870 0.939176
Zn4   Zn    Zn3+2 0.417840 0.573310 0.560900 0.934092

loop_
_geom_bond_atom_site_label_1
_geom_bond_atom_site_label_2
_ccdc_geom_bond_type
O5    Zn1   S    
O13   Zn3   S    
C23   C24   T    
C31   C33   A    
C28   H13   S    
C6    C7    A    
C16   O12   A    
C22   C29   S    
O1    Zn1   S    
C4    O11   A    
O9    Zn3   S    
O7    Zn4   S    
C7    H2    S    
C19   H15   S    
C32   N1    S    
C8    C17   A    
H9    N2    S    
C27   H6    S    
C17   H4    S    
O11   Zn1   S    
C32   C33   A    
C2    C34   A    
C20   O7    A    
C8    C18   A    
C1    O10   A    
C28   N2    S    
C25   H18   S    
C21   O2    A    
C8    C16   S    
C11   H16   S    
C13   H17   S    
C13   C14   A    
O1    Zn2   S    
C22   O5    A    
C21   C24   S    
C9    C11   A    
C27   H8    S    
C4    O9    A    
C16   O6    A    
C33   N2    S    
O12   Zn2   S    
C18   H12   S    
C5    H19   S    
C1    C30   S    
C6    C30   A    
C6    H20   S    
C2    C3    A    
C10   C15   A    
C23   C25   S    
O1    Zn3   S    
C10   H14   S    
C3    C32   A    
C12   C29   T    
C27   N1    S    
O2    Zn2   S    
C31   C34   A    
C4    C31   S    
C10   C11   A    
O4    Zn3   S    
C34   H3    S    
C1    O8    A    
C26   H1    S    
O6    Zn1   S    
C21   O4    A    
C5    C30   A    
O8    Zn2   S    
O1    Zn4   S    
C22   O3    A    
C15   C17   A    
C28   H11   S    
C9    C13   A    
C20   O13   A    
C18   C19   A    
C9    C20   S    
C25   C26   D    
C14   C15   A    
O10   Zn4   S    
C14   C19   A    
C28   H10   S    
H5    N1    S    
C2    C7    A    
C12   C26   S    
C27   H7    S    
C3    C5    A    
O3    Zn4   S    
