data_mof_unit_33403.cif
_audit_creation_date              2012-12-11T15:54:42-0500
_audit_creation_method            fapswitch 2.2
_symmetry_space_group_name_H-M    P1
_symmetry_Int_Tables_number       1
_space_group_crystal_system       triclinic
_cell_length_a                    6.924773
_cell_length_b                    14.436939
_cell_length_c                    16.221376
_cell_angle_alpha                 90.135082
_cell_angle_beta                  90.551196
_cell_angle_gamma                 89.895134
_cell_volume                      1621.60972623

loop_
_atom_site_label
_atom_site_type_symbol
_atom_type_description
_atom_site_fract_x
_atom_site_fract_y
_atom_site_fract_z
_atom_type_partial_charge
O1    O     O_R   0.638180 0.333920 0.163320 -0.540001
O2    O     O_R   0.361820 0.666080 0.836680 -0.540001
O3    O     O_R   0.308470 0.344960 0.336080 -0.503813
O4    O     O_R   0.691530 0.655040 0.663920 -0.503813
O5    O     O_R   0.138140 0.166110 0.336680 -0.516782
O6    O     O_R   0.861860 0.833890 0.663320 -0.516782
C1    C     C_R   0.477816 0.367778 0.364471 0.874778
C2    C     C_R   0.522183 0.632222 0.635529 0.874778
O7    O     O_R   0.308460 0.344950 0.163930 -0.512925
O8    O     O_R   0.691540 0.655050 0.836070 -0.512925
O9    O     O_R   0.138140 0.166100 0.163310 -0.510802
O10   O     O_R   0.861860 0.833900 0.836690 -0.510802
C3    C     C_R   0.476961 0.365819 0.133946 0.881417
C4    C     C_R   0.523039 0.634181 0.866054 0.881416
O11   O     O_R   0.638180 0.333930 0.336700 -0.528906
O12   O     O_R   0.361820 0.666070 0.663300 -0.528907
O13   O     O_3   0.471670 0.191340 0.250000 -0.378796
O14   O     O_3   0.528330 0.808660 0.750000 -0.378796
V1    V     V_3+5 0.196830 0.260900 0.250000 1.823254
V2    V     V_3+5 0.803170 0.739100 0.750000 1.823254
O15   O     O_R   0.808420 0.155070 0.163920 -0.528051
O16   O     O_R   0.191580 0.844930 0.836080 -0.528051
C5    C     C_R   0.976139 0.134059 0.134038 0.927280
C6    C     C_R   0.023860 0.865941 0.865962 0.927280
O17   O     O_R   0.808420 0.155080 0.336070 -0.550691
O18   O     O_R   0.191580 0.844920 0.663930 -0.550692
C7    C     C_R   0.979561 0.131678 0.363730 0.854703
C8    C     C_R   0.020439 0.868322 0.636270 0.854703
V3    V     V_3+5 0.696830 0.239130 0.250000 1.739118
V4    V     V_3+5 0.303170 0.760870 0.750000 1.739118
O19   O     O_3   0.971850 0.308690 0.250010 -0.359929
O20   O     O_3   0.028150 0.691310 0.749990 -0.359929
C9    C     C_R   0.092634 0.189535 0.530806 0.480031
C10   C     C_R   0.907366 0.810465 0.469194 0.480031
C11   C     C_R   0.128619 0.219702 0.611091 0.282141
C12   C     C_R   0.871381 0.780298 0.388909 0.282141
C13   C     C_R   0.087212 0.162492 0.676951 0.622311
C14   C     C_R   0.912788 0.837508 0.323049 0.622311
C15   C     C_R   0.023288 0.072209 0.663055 0.169645
C16   C     C_R   0.976711 0.927791 0.336944 0.169645
C17   C     C_R   0.022997 0.033479 0.582131 -0.179427
C18   C     C_R   0.977003 0.966521 0.417869 -0.179427
C19   C     C_R   0.038658 0.095794 0.514192 -0.158981
C20   C     C_R   0.961342 0.904206 0.485808 -0.158981
C21   C     C_R   0.999716 0.936531 0.567469 0.008598
C22   C     C_R   0.000284 0.063469 0.432531 0.008598
C23   C     C_R   0.154588 0.005465 0.944622 0.330650
C24   C     C_R   0.845411 0.994535 0.055378 0.330650
C25   C     C_R   0.139157 0.069382 0.009425 0.627925
C26   C     C_R   0.860842 0.930617 0.990575 0.627925
C27   C     C_R   0.985387 0.065145 0.065564 -0.385246
C28   C     C_R   0.014613 0.934854 0.934436 -0.385246
C29   C     C_R   0.370749 0.516092 0.434310 0.305465
C30   C     C_R   0.629251 0.483907 0.565690 0.305465
C31   C     C_R   0.381650 0.578665 0.500676 0.615851
C32   C     C_R   0.618349 0.421335 0.499324 0.615851
C33   C     C_R   0.511104 0.563733 0.566816 -0.369555
C34   C     C_R   0.488896 0.436267 0.433184 -0.369555
C35   C     C_R   0.355480 0.507197 0.059546 0.618875
C36   C     C_R   0.644520 0.492803 0.940454 0.618875
C37   C     C_R   0.366786 0.573308 0.996329 0.294200
C38   C     C_R   0.633214 0.426692 0.003671 0.294200
C39   C     C_R   0.511797 0.566551 0.935457 -0.404119
C40   C     C_R   0.488203 0.433449 0.064543 -0.404118
F1    F     F_    0.902050 0.803344 0.245021 -0.505215
F2    F     F_    0.097949 0.196656 0.754979 -0.505215
Cl1   Cl    Cl    0.201477 0.666577 0.998868 -0.436825
Cl2   Cl    Cl    0.798523 0.333423 0.001132 -0.436824
F3    F     F_    0.115379 0.253320 0.470601 -0.627374
F4    F     F_    0.884621 0.746680 0.529399 -0.627374
Cl3   Cl    Cl    0.213436 0.332794 0.629370 -0.391553
Cl4   Cl    Cl    0.786564 0.667206 0.370630 -0.391553
Cl5   Cl    Cl    0.897346 0.022563 0.745194 -0.550187
Cl6   Cl    Cl    0.102654 0.977437 0.254805 -0.550187
Cl7   Cl    Cl    0.347821 0.020385 0.875579 -0.392037
Cl8   Cl    Cl    0.652179 0.979615 0.124421 -0.392037
F5    F     F_    0.273265 0.137725 0.016067 -0.587067
F6    F     F_    0.726735 0.862275 0.983932 -0.587067
Cl9   Cl    Cl    0.216264 0.543278 0.350769 -0.371703
Cl10  Cl    Cl    0.783736 0.456722 0.649231 -0.371703
F7    F     F_    0.269963 0.656121 0.499140 -0.601769
F8    F     F_    0.730037 0.343879 0.500859 -0.601769
F9    F     F_    0.217437 0.516966 0.117937 -0.564488
F10   F     F_    0.782563 0.483034 0.882063 -0.564488

loop_
_geom_bond_atom_site_label_1
_geom_bond_atom_site_label_2
_ccdc_geom_bond_type
C6    C28   S    
C14   C16   A    
O13   V3    S    
C24   Cl8   S    
O4    C2    A    
V1    O19   S    
C23   C25   A    
O9    V1    S    
C35   C40   A    
C36   C39   A    
C11   C13   A    
C35   F9    S    
O3    C1    A    
C25   F5    S    
O12   V4    S    
C36   C38   A    
C18   C22   A    
C37   C39   A    
O7    C3    A    
C38   C40   A    
O13   V1    S    
O5    C7    A    
O7    V1    S    
C24   C27   A    
O6    C8    A    
O8    V2    S    
C25   C27   A    
C26   C28   A    
O3    V1    S    
O14   V4    S    
C31   F7    S    
C10   F4    S    
C1    C34   S    
C10   C12   A    
C9    F3    S    
C24   C26   A    
C11   Cl3   S    
C2    O12   A    
C17   C19   A    
C18   C20   A    
C26   F6    S    
O11   V3    S    
C30   Cl10  S    
C29   C31   A    
O15   C5    A    
O17   V3    S    
C30   C32   A    
C8    C21   S    
C35   C37   A    
C9    C19   A    
C10   C20   A    
C15   C17   A    
O8    C4    A    
C1    O11   A    
O15   V3    S    
C2    C33   S    
C37   Cl1   S    
C5    C27   S    
C14   F1    S    
C13   F2    S    
O10   V2    S    
O1    V3    S    
C7    C22   S    
O18   V4    S    
C31   C33   A    
O16   C6    A    
O1    C3    A    
C20   C21   A    
V2    O20   S    
C16   Cl6   S    
O16   V4    S    
C29   Cl9   S    
C16   C18   A    
C29   C34   A    
C32   F8    S    
C23   C28   A    
O5    V1    S    
O17   C7    A    
O6    V2    S    
O10   C6    A    
O18   C8    A    
C38   Cl2   S    
O2    V4    S    
C12   C14   A    
C23   Cl7   S    
V3    O19   S    
V4    O20   S    
C36   F10   S    
C3    C40   S    
C4    C39   S    
O9    C5    A    
C9    C11   A    
C32   C34   A    
O14   V2    S    
C15   Cl5   S    
O2    C4    A    
C19   C22   A    
O4    V2    S    
C13   C15   A    
C17   C21   A    
C12   Cl4   S    
C30   C33   A    
