data_mof_unit_40276.cif
_audit_creation_date              2012-12-10T19:31:20-0500
_audit_creation_method            fapswitch 2.2
_symmetry_space_group_name_H-M    P1
_symmetry_Int_Tables_number       1
_space_group_crystal_system       triclinic
_cell_length_a                    19.001127
_cell_length_b                    15.735843
_cell_length_c                    14.919864
_cell_angle_alpha                 90.60401
_cell_angle_beta                  91.09989
_cell_angle_gamma                 89.837694
_cell_volume                      4459.93548573

loop_
_atom_site_label
_atom_site_type_symbol
_atom_type_description
_atom_site_fract_x
_atom_site_fract_y
_atom_site_fract_z
_atom_type_partial_charge
C1    C     C_R   0.500108 0.337529 0.499504 0.964614
C2    C     C_R   0.499662 0.662364 0.500297 0.862222
C3    C     C_3   0.546700 0.971464 0.554740 -0.445650
C4    C     C_3   0.447291 0.028578 0.435257 -0.431852
C5    C     C_3   0.560073 0.026132 0.471210 0.438502
C6    C     C_3   0.434035 0.972800 0.517981 0.453456
C7    C     C_1   0.499576 0.248835 0.498034 -0.057116
C8    C     C_1   0.498390 0.750843 0.500204 -0.144503
C9    C     C_3   0.482826 0.028426 0.576654 0.481116
C10   C     C_3   0.510931 0.970760 0.412593 0.421005
C11   C     C_3   0.497417 0.083075 0.494662 -0.134515
C12   C     C_3   0.496898 0.916215 0.495429 -0.184079
C13   C     C_1   0.498776 0.173711 0.496229 0.167085
C14   C     C_1   0.497394 0.825806 0.498195 0.094051
C15   C     C_3   0.558068 0.464741 0.970784 0.278438
C16   C     C_3   0.442919 0.543566 0.029808 0.352673
C17   C     C_3   0.558377 0.545737 0.031034 0.259265
C18   C     C_3   0.442366 0.463511 0.969262 0.318482
C19   C     C_3   0.500884 0.423472 0.028578 0.257788
C20   C     C_3   0.498894 0.584822 0.970477 0.260070
C21   C     C_3   0.501184 0.503463 0.090229 -0.347287
C22   C     C_3   0.499087 0.504005 0.910192 -0.292883
C23   C     C_R   0.364773 0.498560 0.498898 0.979198
C24   C     C_R   0.635209 0.498766 0.500991 0.987685
C25   C     C_1   0.500669 0.501170 0.189992 0.347728
C26   C     C_1   0.499521 0.501812 0.810148 0.389572
C27   C     C_R   0.257140 0.557210 0.560662 -0.311714
C28   C     C_R   0.741060 0.561690 0.441938 -0.334609
C29   C     C_R   0.186294 0.577437 0.554626 0.483327
C30   C     C_R   0.812334 0.580961 0.446226 0.480523
C31   C     C_R   0.146264 0.547506 0.480992 -0.241107
C32   C     C_R   0.854098 0.545419 0.514528 -0.225028
C33   C     C_R   0.177607 0.500415 0.411011 0.225804
C34   C     C_R   0.824344 0.495896 0.582698 0.279772
C35   C     C_R   0.248062 0.472915 0.422147 0.326473
C36   C     C_R   0.753282 0.470382 0.573221 0.286274
C37   C     C_R   0.288434 0.506628 0.495024 -0.281160
C38   C     C_R   0.711429 0.507494 0.504322 -0.275450
C39   C     C_R   0.929926 0.548439 0.505859 0.470317
C40   C     C_R   0.070242 0.549535 0.487262 0.470830
H1    H     H_    0.287795 0.580602 0.617670 0.204714
H2    H     H_    0.708620 0.588837 0.389021 0.204187
H3    H     H_    0.586709 0.947252 0.603344 0.205096
H4    H     H_    0.407813 0.053583 0.386487 0.211016
N1    N     N_R   0.035221 0.475035 0.491172 -0.084306
N2    N     N_R   0.964723 0.623356 0.501381 -0.136880
N3    N     N_R   0.966052 0.474492 0.500070 -0.101961
N4    N     N_R   0.034258 0.623883 0.492725 -0.166946
N5    N     N_1   0.500020 0.500000 0.268010 -0.081013
N6    N     N_1   0.499980 0.500000 0.731990 -0.078650
O1    O     O_R   0.500000 0.376780 0.574460 -0.573893
O2    O     O_R   0.500000 0.623220 0.425540 -0.615608
O3    O     O_R   0.500010 0.376780 0.425520 -0.593674
O4    O     O_R   0.499990 0.623220 0.574480 -0.620518
O5    O     O_R   0.398130 0.499990 0.574490 -0.615206
O6    O     O_R   0.601870 0.500010 0.425510 -0.617386
O7    O     O_R   0.398140 0.499990 0.425550 -0.581438
O8    O     O_R   0.601860 0.500010 0.574450 -0.566111
Zn1   Zn    Zn3+2 0.499990 0.500000 0.599450 1.084674
Zn2   Zn    Zn3+2 0.500010 0.500000 0.400550 1.059166
O9    O     O_3   0.489251 0.664057 0.927932 -0.616578
C41   C     C_3   0.521852 0.730440 0.976758 0.151323
H5    H     H_    0.579361 0.729127 0.965087 0.224484
H6    H     H_    0.511564 0.726355 0.049458 0.159088
C42   C     C_3   0.492459 0.815125 0.943412 -0.355651
H7    H     H_    0.504430 0.822350 0.871242 0.262327
H8    H     H_    0.434331 0.815915 0.950624 0.236473
C43   C     C_3   0.523955 0.889814 0.996311 -0.879642
H9    H     H_    0.510903 0.884942 0.068329 0.295910
H10   H     H_    0.501843 0.950201 0.970110 0.268801
H11   H     H_    0.582056 0.890939 0.989495 0.270365
O10   O     O_3   0.500631 0.341464 0.066324 -0.607195
C44   C     C_3   0.503273 0.277292 0.999436 0.148690
H12   H     H_    0.554768 0.244442 0.005490 0.135555
H13   H     H_    0.497971 0.301065 0.929485 0.178869
C45   C     C_3   0.446229 0.211403 0.016448 -0.282168
H14   H     H_    0.455825 0.182272 0.083158 0.238349
H15   H     H_    0.393837 0.242602 0.016981 0.281780
C46   C     C_3   0.445768 0.141681 0.944637 -0.859610
H16   H     H_    0.432926 0.169003 0.877945 0.325926
H17   H     H_    0.405336 0.093542 0.960329 0.257380
H18   H     H_    0.497959 0.109862 0.942222 0.263497
O11   O     O_3   0.154618 0.617507 0.626400 -0.590939
C47   C     C_3   0.155846 0.706673 0.614944 0.111265
H19   H     H_    0.107167 0.732670 0.645065 0.199302
H20   H     H_    0.154543 0.726435 0.543198 0.108536
C48   C     C_3   0.219820 0.745735 0.663940 -0.391788
H21   H     H_    0.225722 0.717800 0.731803 0.270704
H22   H     H_    0.268135 0.731446 0.625817 0.202305
C49   C     C_3   0.212232 0.841919 0.673489 -0.848868
H23   H     H_    0.201809 0.870723 0.607029 0.257453
H24   H     H_    0.261557 0.869183 0.702561 0.298054
H25   H     H_    0.168105 0.857863 0.718493 0.268794
O12   O     O_3   0.843288 0.626775 0.378530 -0.600970
C50   C     C_3   0.815733 0.710517 0.374455 0.068921
H26   H     H_    0.860260 0.755402 0.384898 0.180071
H27   H     H_    0.776546 0.726216 0.427088 0.116014
C51   C     C_3   0.782783 0.725551 0.281541 -0.295471
H28   H     H_    0.822810 0.713747 0.229461 0.247251
H29   H     H_    0.738568 0.680595 0.269495 0.267210
C52   C     C_3   0.755146 0.816279 0.272851 -0.873443
H30   H     H_    0.715799 0.829764 0.325179 0.279899
H31   H     H_    0.729552 0.824409 0.205941 0.294957
H32   H     H_    0.799094 0.862380 0.280028 0.247307
S1    S     S_3+6 0.128698 0.481995 0.309266 0.105419
O13   O     O_2   0.088670 0.400184 0.316142 -0.176713
O14   O     O_2   0.076840 0.552926 0.293696 -0.299648
O15   O     O_3   0.181693 0.476156 0.220468 -0.427173
H33   H     H_    0.203587 0.533056 0.217250 0.348078
S2    S     S_3+6 0.875648 0.473346 0.681276 0.089694
O16   O     O_2   0.914080 0.390627 0.668432 -0.247838
O17   O     O_2   0.928675 0.542729 0.698124 -0.282302
O18   O     O_3   0.824561 0.467293 0.771716 -0.472556
H34   H     H_    0.857069 0.451708 0.821610 0.381758
S3    S     S_3+6 0.283167 0.388892 0.354556 0.091780
O19   O     O_2   0.319745 0.426122 0.275687 -0.271188
O20   O     O_2   0.335349 0.337692 0.408585 -0.318536
O21   O     O_3   0.219596 0.322528 0.317480 -0.443582
H35   H     H_    0.243262 0.283151 0.275409 0.389518
S4    S     S_3+6 0.718397 0.386419 0.638956 0.104025
O22   O     O_2   0.684670 0.423841 0.720728 -0.186986
O23   O     O_2   0.663597 0.337608 0.585904 -0.330745
O24   O     O_3   0.781146 0.317260 0.671573 -0.451989
H36   H     H_    0.796404 0.289072 0.615500 0.361676
O25   O     O_3   0.625139 0.059924 0.444933 -0.591482
C53   C     C_3   0.676190 0.994754 0.436917 0.151436
H37   H     H_    0.700406 0.000355 0.370050 0.190425
H38   H     H_    0.654727 0.928951 0.440607 0.141778
C54   C     C_3   0.733389 0.006675 0.509350 -0.347693
H39   H     H_    0.757941 0.070234 0.502300 0.253459
H40   H     H_    0.709428 0.003585 0.576581 0.238436
C55   C     C_3   0.790178 0.938251 0.502289 -0.948016
H41   H     H_    0.766914 0.874235 0.510890 0.258827
H42   H     H_    0.830898 0.948634 0.555611 0.287913
H43   H     H_    0.815736 0.941035 0.436061 0.265813
O26   O     O_3   0.368259 0.943956 0.547648 -0.582515
C56   C     C_3   0.332179 0.898319 0.478700 0.075426
H44   H     H_    0.311928 0.838919 0.508241 0.159583
H45   H     H_    0.365716 0.878348 0.421540 0.154748
C57   C     C_3   0.269976 0.950932 0.443332 -0.320236
H46   H     H_    0.237259 0.972556 0.500129 0.246262
H47   H     H_    0.289679 0.008179 0.409075 0.234172
C58   C     C_3   0.224363 0.899430 0.377456 -0.923864
H48   H     H_    0.255619 0.879516 0.318670 0.276196
H49   H     H_    0.179438 0.938982 0.353606 0.283791
H50   H     H_    0.203293 0.842175 0.410547 0.254403
S5    S     S_3+6 0.527755 0.930691 0.302734 0.000744
O27   O     O_2   0.575086 0.854235 0.308721 -0.334617
O28   O     O_2   0.459322 0.905840 0.257793 -0.328197
O29   O     O_3   0.566639 0.006780 0.243027 -0.532322
H51   H     H_    0.581280 0.978016 0.187012 0.374641
S6    S     S_3+6 0.462473 0.066117 0.686098 0.053544
O30   O     O_2   0.522334 0.119150 0.722532 -0.288145
O31   O     O_2   0.396486 0.118896 0.681440 -0.263908
O32   O     O_3   0.450245 0.982140 0.752753 -0.544874
H52   H     H_    0.429460 0.005979 0.807946 0.372928
S7    S     S_3+6 0.635112 0.595689 0.079561 -0.020658
O33   O     O_2   0.613817 0.669723 0.137487 -0.338614
O34   O     O_2   0.675006 0.533329 0.136823 -0.327759
O35   O     O_3   0.687031 0.629686 0.997404 -0.551599
H53   H     H_    0.727794 0.656442 0.028862 0.382840
S8    S     S_3+6 0.362227 0.417412 0.927921 0.080703
O36   O     O_2   0.319787 0.484458 0.880245 -0.232793
O37   O     O_2   0.377645 0.345961 0.863601 -0.319445
O38   O     O_3   0.316434 0.380921 0.014716 -0.487204
H54   H     H_    0.273333 0.355704 0.987306 0.393958
O39   O     O_3   0.616992 0.426830 0.929783 -0.581510
C59   C     C_3   0.659471 0.382190 0.992222 0.177708
H55   H     H_    0.653967 0.313271 0.977960 0.131198
H56   H     H_    0.645425 0.393410 0.063547 0.175108
C60   C     C_3   0.736572 0.405278 0.978477 -0.260438
H57   H     H_    0.751685 0.386591 0.909420 0.268018
H58   H     H_    0.743699 0.474948 0.985999 0.286877
C61   C     C_3   0.784986 0.360266 0.045626 -0.883609
H59   H     H_    0.771936 0.379608 0.115191 0.291820
H60   H     H_    0.840485 0.377786 0.033160 0.284728
H61   H     H_    0.779584 0.290249 0.038324 0.264982
O40   O     O_3   0.379243 0.579752 0.059799 -0.549418
C62   C     C_3   0.391918 0.650684 0.116756 0.134796
H62   H     H_    0.384340 0.709561 0.077214 0.165739
H63   H     H_    0.445712 0.652020 0.147594 0.121744
C63   C     C_3   0.339052 0.650142 0.192707 -0.330873
H64   H     H_    0.284732 0.654533 0.164131 0.239630
H65   H     H_    0.344124 0.589508 0.229774 0.256468
C64   C     C_3   0.351486 0.723955 0.258314 -0.914358
H66   H     H_    0.405068 0.719837 0.289159 0.294862
H67   H     H_    0.312326 0.721411 0.312529 0.248027
H68   H     H_    0.345645 0.785531 0.223206 0.288605

loop_
_geom_bond_atom_site_label_1
_geom_bond_atom_site_label_2
_ccdc_geom_bond_type
C58   H50   S    
C60   H57   S    
C9    S6    S    
C16   C21   S    
O5    Zn1   S    
C27   C29   A    
C11   C13   S    
C44   H12   S    
C50   H26   S    
C45   C46   S    
C60   C61   S    
C48   H21   S    
C6    C9    S    
O40   C62   S    
C49   H23   S    
C50   C51   S    
O24   H36   S    
C15   C22   S    
O15   H33   S    
C15   C19   S    
C60   H58   S    
C3    H3    S    
O38   H54   S    
N5    Zn2   S    
C53   H37   S    
N6    Zn1   S    
C45   H15   S    
C19   C21   S    
C57   H47   S    
C29   O11   S    
C26   N6    T    
C6    C12   S    
C61   H59   S    
C64   H67   S    
C58   H48   S    
C17   C20   S    
C31   C40   S    
C58   H49   S    
C18   C19   S    
C32   C39   S    
C28   H2    S    
C20   O9    S    
C27   C37   A    
C1    O3    A    
S2    O16   D    
C41   H6    S    
C3    C12   S    
O2    Zn2   S    
S2    O17   D    
O21   H35   S    
C59   C60   S    
S5    O27   D    
S4    O23   D    
C43   H9    S    
S3    O20   D    
C24   C38   S    
C57   C58   S    
C35   S3    S    
C17   S7    S    
C56   H45   S    
C41   C42   S    
S4    O24   S    
C10   S5    S    
C62   C63   S    
C42   C43   S    
C59   H56   S    
C56   H44   S    
C23   O5    A    
S7    O34   D    
C1    C7    S    
S7    O33   D    
C44   H13   S    
C15   O39   S    
C19   O10   S    
O12   C50   S    
C29   C31   A    
C10   C12   S    
C56   C57   S    
O3    Zn2   S    
C16   O40   S    
S8    O37   D    
O4    Zn1   S    
N1    N3    A    
C40   N1    A    
S1    O15   S    
N2    N4    A    
C52   H30   S    
S5    O29   S    
C33   S1    S    
C47   H19   S    
C4    C6    S    
C2    O4    A    
O39   C59   S    
C46   H17   S    
C55   H41   S    
C64   H68   S    
C4    H4    S    
C53   C54   S    
C42   H8    S    
O8    Zn1   S    
C23   C37   S    
C17   C21   S    
O6    Zn2   S    
C63   C64   S    
C32   C34   A    
C41   H5    S    
C3    C9    S    
S8    O38   S    
S1    O14   D    
C27   H1    S    
C49   H24   S    
O11   C47   S    
S2    O18   S    
S6    O32   S    
C28   C38   A    
C16   C20   S    
S3    O21   S    
C31   C33   A    
C43   H11   S    
C16   C18   S    
C57   H46   S    
C4    C11   S    
C53   H38   S    
C9    C11   S    
C61   H61   S    
C62   H62   S    
C2    O2    A    
C39   N2    A    
C55   H42   S    
C59   H55   S    
S6    O31   D    
C42   H7    S    
C52   H32   S    
C51   H29   S    
C48   H22   S    
O25   C53   S    
C34   S2    S    
C44   C45   S    
O1    Zn1   S    
C20   C22   S    
C4    C10   S    
C3    C5    S    
S4    O22   D    
C35   C37   A    
C49   H25   S    
C39   N3    A    
O18   H34   S    
C6    O26   S    
C23   O7    A    
C21   C25   S    
C40   N4    A    
C8    C14   T    
C63   H65   S    
S5    O28   D    
C18   C22   S    
C2    C8    S    
C12   C14   S    
O10   C44   S    
O7    Zn2   S    
C46   H18   S    
C50   H27   S    
C5    C11   S    
C47   C48   S    
S7    O35   S    
S8    O36   D    
C51   C52   S    
S1    O13   D    
C1    O1    A    
C52   H31   S    
O35   H53   S    
C54   C55   S    
C36   C38   A    
C54   H39   S    
C5    C10   S    
C30   O12   S    
C30   C32   A    
C45   H14   S    
C18   S8    S    
C64   H66   S    
C24   O6    A    
C55   H43   S    
C28   C30   A    
C33   C35   A    
C61   H60   S    
C34   C36   A    
O9    C41   S    
C36   S4    S    
C25   N5    T    
C46   H16   S    
C7    C13   T    
S6    O30   D    
C24   O8    A    
C51   H28   S    
C22   C26   S    
C48   C49   S    
C5    O25   S    
O32   H52   S    
C43   H10   S    
O29   H51   S    
C47   H20   S    
C62   H63   S    
S3    O19   D    
C15   C17   S    
O26   C56   S    
C63   H64   S    
C54   H40   S    
