data_mof_unit_37277.cif
_audit_creation_date              2012-12-11T15:14:40-0500
_audit_creation_method            fapswitch 2.2
_symmetry_space_group_name_H-M    P1
_symmetry_Int_Tables_number       1
_space_group_crystal_system       monoclinic
_cell_length_a                    22.305165
_cell_length_b                    7.230306
_cell_length_c                    19.230362
_cell_angle_alpha                 90.0
_cell_angle_beta                  99.121175
_cell_angle_gamma                 90.0
_cell_volume                      3062.12583988

loop_
_atom_site_label
_atom_site_type_symbol
_atom_type_description
_atom_site_fract_x
_atom_site_fract_y
_atom_site_fract_z
_atom_type_partial_charge
O1    O     O_R   0.448470 0.506130 0.415700 -0.532347
O2    O     O_R   0.551530 0.006130 0.584300 -0.532347
O3    O     O_R   0.436320 0.174490 0.555800 -0.533032
O4    O     O_R   0.563680 0.674490 0.444200 -0.533032
C1    C     C_R   0.421235 0.344395 0.575205 0.703802
C2    C     C_R   0.578765 0.844395 0.424795 0.703802
O5    O     O_R   0.441350 0.176340 0.414480 -0.534231
O6    O     O_R   0.558650 0.676340 0.585520 -0.534231
O7    O     O_R   0.556600 0.007100 0.441970 -0.532907
O8    O     O_R   0.443400 0.507100 0.558030 -0.532907
C3    C     C_R   0.427213 0.344735 0.389027 0.681610
C4    C     C_R   0.572787 0.844735 0.610973 0.681610
O9    O     O_3   0.537810 0.339550 0.509190 -0.372638
O10   O     O_3   0.462190 0.839550 0.490810 -0.372638
V1    V     V_3+5 0.492990 0.064280 0.498300 1.445609
V2    V     V_3+5 0.507010 0.564280 0.501700 1.445609
C5    C     C_R   0.866921 0.975693 0.695003 -0.146621
C6    C     C_R   0.133079 0.475695 0.304996 -0.146621
C7    C     C_R   0.884596 0.941989 0.821794 -0.037256
C8    C     C_R   0.115404 0.441990 0.178206 -0.037256
C9    C     C_R   0.589756 0.818333 0.740074 -0.190741
C10   C     C_R   0.410244 0.318331 0.259926 -0.190741
C11   C     C_R   0.626383 0.817068 0.805867 0.005631
C12   C     C_R   0.373617 0.317065 0.194133 0.005631
C13   C     C_R   0.688872 0.847207 0.811722 -0.195607
C14   C     C_R   0.311128 0.347205 0.188278 -0.195607
C15   C     C_R   0.716466 0.879833 0.751486 0.069227
C16   C     C_R   0.283534 0.379833 0.248514 0.069227
C17   C     C_R   0.678239 0.882479 0.684092 0.066500
C18   C     C_R   0.321761 0.382479 0.315908 0.066499
C19   C     C_R   0.780663 0.909786 0.755925 0.080862
C20   C     C_R   0.219336 0.409787 0.244075 0.080862
C21   C     C_R   0.804584 0.943244 0.692815 0.128752
C22   C     C_R   0.195416 0.443246 0.307185 0.128752
C23   C     C_R   0.766300 0.944870 0.627739 -0.182155
C24   C     C_R   0.233700 0.444872 0.372261 -0.182154
C25   C     C_R   0.704280 0.914705 0.623328 -0.183874
C26   C     C_R   0.295720 0.414707 0.376672 -0.183874
C27   C     C_R   0.822239 0.908490 0.820476 -0.209172
C28   C     C_R   0.177761 0.408489 0.179524 -0.209172
C29   C     C_R   0.906386 0.976178 0.758869 -0.164424
C30   C     C_R   0.093614 0.476180 0.241131 -0.164424
C31   C     C_R   0.614656 0.851176 0.678960 -0.090256
C32   C     C_R   0.385344 0.351175 0.321040 -0.090256
H1    H     H_    0.807809 0.883986 0.870552 0.097069
H2    H     H_    0.192191 0.383984 0.129448 0.097069
H3    H     H_    0.676760 0.917190 0.571616 0.111293
H4    H     H_    0.323240 0.417193 0.428384 0.111293
C33   C     C_3   0.777496 0.852828 0.314210 -0.007027
C34   C     C_3   0.222504 0.352827 0.685790 -0.007027
C35   C     C_3   0.790566 0.030173 0.274371 -0.164561
C36   C     C_3   0.209433 0.530173 0.725628 -0.164561
H5    H     H_    0.696939 0.193024 0.254655 0.147701
H6    H     H_    0.303061 0.693024 0.745345 0.147701
C37   C     C_1   0.875271 0.940189 0.121092 -0.179739
C38   C     C_1   0.124729 0.440189 0.878908 -0.179738
C39   C     C_1   0.624706 0.854220 0.379213 -0.160131
C40   C     C_1   0.375294 0.354220 0.620787 -0.160131
C41   C     C_3   0.779622 0.734047 0.247767 -0.209739
C42   C     C_3   0.220378 0.234047 0.752233 -0.209739
C43   C     C_3   0.791365 0.912265 0.207503 0.141101
C44   C     C_3   0.208635 0.412265 0.792497 0.141101
C45   C     C_3   0.710651 0.766487 0.226332 -0.016050
C46   C     C_3   0.289349 0.266487 0.773668 -0.016050
C47   C     C_3   0.708836 0.881907 0.293013 0.077338
C48   C     C_3   0.291164 0.381907 0.706987 0.077338
C49   C     C_3   0.722456 0.942245 0.184864 -0.135644
C50   C     C_3   0.277544 0.442245 0.815136 -0.135644
C51   C     C_3   0.720999 0.059297 0.252508 -0.141532
C52   C     C_3   0.279001 0.559297 0.747492 -0.141532
C53   C     C_1   0.837337 0.928777 0.159865 -0.036638
C54   C     C_1   0.162663 0.428777 0.840135 -0.036638
C55   C     C_1   0.662719 0.865655 0.340577 -0.033520
C56   C     C_1   0.337281 0.365655 0.659423 -0.033520
H7    H     H_    0.803574 0.599887 0.245963 0.121385
H8    H     H_    0.196426 0.099887 0.754037 0.121384
O11   O     O_R   0.056650 0.288730 0.942060 -0.532963
O12   O     O_R   0.943350 0.788730 0.057940 -0.532963
O13   O     O_R   0.058660 0.616870 0.085540 -0.535459
O14   O     O_R   0.941340 0.116870 0.914460 -0.535459
C57   C     C_R   0.072816 0.448721 0.111047 0.682432
C58   C     C_R   0.927184 0.948721 0.888953 0.682432
O15   O     O_R   0.063700 0.618520 0.944220 -0.534723
O16   O     O_R   0.936300 0.118520 0.055780 -0.534723
O17   O     O_R   0.948460 0.787610 0.915680 -0.532912
O18   O     O_R   0.051540 0.287610 0.084320 -0.532912
C59   C     C_R   0.078874 0.450005 0.924663 0.713113
C60   C     C_R   0.921126 0.950005 0.075337 0.713113
O19   O     O_3   0.962230 0.453430 0.990860 -0.373101
O20   O     O_3   0.037770 0.953430 0.009140 -0.373101
V3    V     V_3+5 0.007010 0.728750 0.001700 1.432265
V4    V     V_3+5 0.992990 0.228750 0.998300 1.432264
H9    H     H_    0.954209 0.003316 0.759229 0.111114
H10   H     H_    0.045791 0.503319 0.240771 0.111114
C61   C     C_1   0.807806 0.804466 0.385217 0.294759
N1    N     N_1   0.831652 0.766373 0.441268 -0.359299
C62   C     C_1   0.192194 0.304465 0.614783 0.294759
N2    N     N_1   0.168348 0.266372 0.558732 -0.359298
H11   H     H_    0.699588 0.978390 0.131035 0.137219
H12   H     H_    0.300412 0.478391 0.868965 0.137219
C63   C     C_1   0.666870 0.621954 0.199568 0.302314
N3    N     N_1   0.632304 0.508012 0.178452 -0.338006
C64   C     C_1   0.333130 0.121954 0.800432 0.302314
N4    N     N_1   0.367696 0.008013 0.821548 -0.338006
H13   H     H_    0.784533 0.969862 0.579573 0.146760
H14   H     H_    0.215468 0.469866 0.420427 0.146759
H15   H     H_    0.885225 0.001913 0.646984 0.129456
H16   H     H_    0.114775 0.501917 0.353016 0.129455
H17   H     H_    0.541377 0.793390 0.736321 0.121095
H18   H     H_    0.458623 0.293388 0.263679 0.121095
H19   H     H_    0.714642 0.844246 0.864080 0.113832
H20   H     H_    0.285358 0.344243 0.135920 0.113832
C65   C     C_1   0.599582 0.783638 0.868123 0.318503
N5    N     N_1   0.578063 0.756793 0.918133 -0.306036
C66   C     C_1   0.400417 0.283634 0.131877 0.318503
N6    N     N_1   0.421937 0.256788 0.081867 -0.306036
H21   H     H_    0.823948 0.139094 0.294466 0.121603
H22   H     H_    0.176052 0.639094 0.705533 0.121603

loop_
_geom_bond_atom_site_label_1
_geom_bond_atom_site_label_2
_ccdc_geom_bond_type
C46   C64   S    
O15   C59   A    
C45   C47   S    
O11   V4    S    
O4    V2    S    
C63   N3    T    
C14   H20   S    
C15   C17   A    
C61   N1    T    
O1    C3    A    
C45   C63   S    
H5    C51   S    
C2    O7    A    
C62   N2    T    
O17   V3    S    
O5    C3    A    
C33   C47   S    
C1    C40   S    
C46   C50   S    
C23   C25   A    
C12   C14   A    
C4    C31   S    
C5    H15   S    
C8    C28   A    
C66   N6    T    
C48   C56   S    
C47   C55   S    
C18   C26   A    
C42   C44   S    
C39   C55   T    
C37   C60   S    
C21   C23   A    
C9    C31   A    
C29   H9    S    
C10   H18   S    
C35   C43   S    
C34   C36   S    
C19   C21   A    
C25   H3    S    
C7    C58   S    
O13   V3    S    
C57   O18   A    
C49   H11   S    
C27   H1    S    
C43   C53   S    
O5    V1    S    
O2    C4    A    
O6    V2    S    
C8    C57   S    
C17   C31   A    
C2    C39   S    
C18   C32   A    
C5    C21   A    
C14   C16   A    
C6    H16   S    
C45   C49   S    
C41   C43   S    
C24   H14   S    
C16   C20   A    
O14   C58   A    
O13   C57   A    
C38   C59   S    
C33   C35   S    
C15   C19   A    
C42   H8    S    
C49   C51   S    
C46   C48   S    
O14   V4    S    
C28   H2    S    
C50   H12   S    
C23   H13   S    
C11   C65   S    
C6    C22   A    
C43   C49   S    
C8    C30   A    
H6    C52   S    
O6    C4    A    
C44   C54   S    
C3    C32   S    
O1    V2    S    
C33   C61   S    
O19   V4    S    
O16   V4    S    
O2    V1    S    
C34   C48   S    
C7    C27   A    
O4    C2    A    
C9    C11   A    
C10   C12   A    
C24   C26   A    
C41   H7    S    
O3    V1    S    
C40   C56   T    
C65   N5    T    
O12   C60   A    
C34   C62   S    
C10   C32   A    
C38   C54   T    
C30   H10   S    
C26   H4    S    
O16   C60   A    
O3    C1    A    
C9    H17   S    
O12   V3    S    
C13   C15   A    
C58   O17   A    
O15   V3    S    
C41   C45   S    
C33   C41   S    
C44   C50   S    
C42   C46   S    
C34   C42   S    
C6    C30   A    
O7    V1    S    
C1    O8    A    
O18   V4    S    
O20   V3    S    
C48   C52   S    
C47   C51   S    
C16   C18   A    
C35   H21   S    
C19   C27   A    
C22   C24   A    
C20   C28   A    
C5    C29   A    
C36   C52   S    
C13   H19   S    
C11   C13   A    
O11   C59   A    
C12   C66   S    
C50   C52   S    
O9    V2    S    
C17   C25   A    
C64   N4    T    
O10   V1    S    
C36   C44   S    
O8    V2    S    
C35   C51   S    
C37   C53   T    
C7    C29   A    
C20   C22   A    
C36   H22   S    
