data_mof_unit_38561.cif
_audit_creation_date              2013-03-05T16:38:39-0500
_audit_creation_method            fapswitch 2.2
_symmetry_space_group_name_H-M    P1
_symmetry_Int_Tables_number       1
_space_group_crystal_system       triclinic
_cell_length_a                    19.127807
_cell_length_b                    18.887771
_cell_length_c                    19.53612
_cell_angle_alpha                 111.118662
_cell_angle_beta                  111.69185
_cell_angle_gamma                 103.615096
_cell_volume                      5537.11831073

loop_
_atom_site_label
_atom_site_type_symbol
_atom_site_description
_atom_site_fract_x
_atom_site_fract_y
_atom_site_fract_z
_atom_type_partial_charge
O1    O     O_R   0.916810 0.468940 0.051330 -0.615444
O2    O     O_R   0.917640 0.365500 0.948670 -0.582859
C1    C     C_R   0.890357 0.390743 0.999673 0.891278
O3    O     O_R   0.907960 0.551720 0.959710 -0.623166
O4    O     O_R   0.908790 0.448280 0.857050 -0.604471
C2    C     C_R   0.879926 0.502026 0.881595 0.877671
Zn1   Zn    Zn3+2 0.999450 0.569070 0.068540 1.079373
Zn2   Zn    Zn3+2 0.000550 0.430930 0.931460 1.151755
O5    O     O_R   0.082360 0.634500 0.051330 -0.615123
O6    O     O_R   0.083190 0.531060 0.948670 -0.567304
O7    O     O_R   0.091210 0.551720 0.142950 -0.605508
O8    O     O_R   0.092040 0.448280 0.040290 -0.563113
C3    C     C_R   0.109408 0.609220 0.000013 0.904063
C4    C     C_R   0.118529 0.497545 0.118780 0.939434
C5    C     C_R   0.843294 0.726852 0.049179 -0.125333
C6    C     C_R   0.809529 0.655357 0.970487 0.312803
C7    C     C_R   0.844629 0.654293 0.918095 -0.122136
C8    C     C_R   0.916423 0.724703 0.947178 -0.051964
C9    C     C_R   0.948556 0.797850 0.025110 0.273337
C10   C     C_R   0.911577 0.799004 0.075896 0.144102
C11   C     C_R   0.741523 0.578048 0.763880 0.064635
C12   C     C_R   0.681613 0.500665 0.692187 -0.077992
C13   C     C_R   0.675404 0.425186 0.693628 0.044568
C14   C     C_R   0.743907 0.425684 0.753292 0.089565
C15   C     C_R   0.809429 0.502884 0.820415 -0.093713
C16   C     C_R   0.802748 0.579144 0.832094 -0.033950
C17   C     C_R   0.536444 0.321389 0.652311 0.160549
C18   C     C_R   0.462001 0.247979 0.590937 0.237771
C19   C     C_R   0.450673 0.198972 0.510329 -0.040245
C20   C     C_R   0.514008 0.223003 0.491668 0.018315
C21   C     C_R   0.587696 0.295841 0.553117 0.054869
C22   C     C_R   0.598981 0.345264 0.632575 -0.085721
C23   C     C_1   0.828801 0.330530 0.998302 -0.093219
C24   C     C_1   0.777110 0.279462 0.997118 0.094806
C25   C     C_1   0.717633 0.219909 0.996693 0.139086
C26   C     C_1   0.667613 0.169224 0.997643 -0.006356
H1    H     H_    0.896541 0.453560 0.269082 0.231869
C27   C     C_R   0.011639 0.540199 0.297659 0.003700
C28   C     C_R   0.085087 0.550690 0.293762 0.376516
C29   C     C_R   0.095388 0.478924 0.250621 -0.185027
C30   C     C_R   0.031239 0.397630 0.210300 0.195766
C31   C     C_R   0.960287 0.388024 0.219881 0.242222
C32   C     C_R   0.950860 0.459732 0.262004 -0.299569
C33   C     C_R   0.239472 0.490646 0.313148 0.349548
C34   C     C_R   0.314069 0.499209 0.311377 -0.211742
C35   C     C_R   0.323171 0.504591 0.244484 -0.039538
C36   C     C_R   0.257370 0.502795 0.180105 0.293704
C37   C     C_R   0.183950 0.495192 0.182898 -0.209945
C38   C     C_R   0.174037 0.488441 0.248399 -0.018322
C39   C     C_R   0.456220 0.586811 0.257115 0.255370
C40   C     C_R   0.517135 0.587924 0.232268 0.082669
C41   C     C_R   0.516338 0.511117 0.182791 0.166382
C42   C     C_R   0.461277 0.435283 0.167532 0.039945
C43   C     C_R   0.404500 0.435944 0.196259 -0.129554
H2    H     H_    0.359868 0.377374 0.180545 0.248885
C44   C     C_R   0.399159 0.510198 0.237827 -0.046632
C45   C     C_1   0.171189 0.668824 0.000972 -0.065112
C46   C     C_1   0.223210 0.718535 0.001156 0.121680
C47   C     C_1   0.282891 0.777165 0.000805 0.109065
C48   C     C_1   0.332734 0.828488 0.000329 -0.110855
O9    O     O_R   0.547440 0.455060 0.409050 -0.648011
O10   O     O_R   0.453980 0.361630 0.409070 -0.586420
C49   C     C_R   0.502989 0.379414 0.381584 0.895312
O11   O     O_R   0.638350 0.546700 0.591580 -0.609510
O12   O     O_R   0.544890 0.453260 0.591610 -0.609959
C50   C     C_R   0.619525 0.499572 0.621192 0.928416
Zn3   Zn    Zn3+2 0.562400 0.562360 0.499960 1.028757
Zn4   Zn    Zn3+2 0.437600 0.437590 0.500000 1.187550
O13   O     O_R   0.546020 0.638330 0.590880 -0.615917
O14   O     O_R   0.452560 0.544900 0.590910 -0.550963
O15   O     O_R   0.455110 0.546690 0.408340 -0.615989
O16   O     O_R   0.361650 0.453260 0.408370 -0.547130
C51   C     C_R   0.498264 0.621134 0.618688 0.965010
C52   C     C_R   0.380005 0.499010 0.378004 0.971478
O17   O     O_R   0.446640 0.909720 0.856320 -0.582269
O18   O     O_R   0.550070 0.907030 0.957060 -0.633955
C53   C     C_R   0.497504 0.878241 0.879560 0.920135
O19   O     O_R   0.531060 0.084080 0.949590 -0.592054
O20   O     O_R   0.634490 0.081390 0.050330 -0.560789
C54   C     C_R   0.608766 0.109288 0.999369 0.934608
Zn5   Zn    Zn3+2 0.430940 0.001750 0.932690 1.146945
Zn6   Zn    Zn3+2 0.569060 0.998160 0.067220 1.185427
O21   O     O_R   0.449930 0.092880 0.042850 -0.632376
O22   O     O_R   0.553360 0.090200 0.143600 -0.519640
O23   O     O_R   0.365510 0.918520 0.949590 -0.609056
O24   O     O_R   0.468940 0.915840 0.050330 -0.604944
C55   C     C_R   0.501539 0.120751 0.120196 0.934412
C56   C     C_R   0.391303 0.889998 0.999969 0.845814
H3    H     H_    0.873641 0.572433 0.568531 0.194772
C57   C     C_R   0.761199 0.540231 0.459539 0.067321
C58   C     C_R   0.684522 0.475211 0.389294 0.137069
C59   C     C_R   0.660921 0.392664 0.376632 -0.017955
C60   C     C_R   0.721914 0.373217 0.425650 0.270842
C61   C     C_R   0.797495 0.439452 0.496636 0.019540
C62   C     C_R   0.815531 0.522107 0.513779 -0.194527
C63   C     C_R   0.571869 0.263844 0.236832 0.269254
C64   C     C_R   0.499937 0.188371 0.182276 -0.170551
C65   C     C_R   0.426044 0.178090 0.185398 -0.017022
C66   C     C_R   0.426854 0.242679 0.249813 0.252238
C67   C     C_R   0.502512 0.314746 0.312429 -0.260258
C68   C     C_R   0.576162 0.325216 0.306410 -0.020178
C69   C     C_R   0.296223 0.100154 0.042631 0.217958
C70   C     C_R   0.225473 0.026575 0.975096 0.146397
C71   C     C_R   0.200443 0.956107 0.984762 0.204363
C72   C     C_R   0.245936 0.960449 0.063402 -0.068436
C73   C     C_R   0.321697 0.031397 0.127809 0.297229
C74   C     C_R   0.346430 0.101952 0.117852 -0.162741
C75   C     C_R   0.633339 0.848524 0.595069 0.137230
C76   C     C_R   0.616241 0.817964 0.646051 0.271371
C77   C     C_R   0.534678 0.790505 0.633464 -0.071125
C78   C     C_R   0.471029 0.793806 0.570051 0.021971
C79   C     C_R   0.489472 0.827905 0.522450 0.222391
C80   C     C_R   0.569873 0.854479 0.534162 0.026365
C81   C     C_R   0.519273 0.831648 0.759734 0.299583
C82   C     C_R   0.501829 0.813922 0.816548 -0.227257
C83   C     C_R   0.491569 0.736999 0.814755 -0.119212
C84   C     C_R   0.491816 0.674022 0.749969 0.262825
C85   C     C_R   0.501828 0.688690 0.687543 -0.228872
C86   C     C_R   0.517742 0.768652 0.693503 -0.070961
C87   C     C_R   0.556835 0.748360 0.958576 0.046481
C88   C     C_R   0.548858 0.737731 0.023436 0.352062
C89   C     C_R   0.469273 0.695250 0.009602 -0.079380
C90   C     C_R   0.397265 0.664621 0.930676 0.255919
C91   C     C_R   0.406503 0.682576 0.869927 -0.202042
H4    H     H_    0.352235 0.661917 0.810340 0.218471
C92   C     C_R   0.485090 0.723464 0.882877 0.000944
N1    N     N_R   0.940068 0.874895 0.152032 0.254622
O25   O     O_R   0.963958 0.876182 0.224222 -0.303212
O26   O     O_R   0.941766 0.943034 0.149217 -0.232800
N2    N     N_3   0.375562 0.123851 0.448809 -0.336315
H5    H     H_    0.390773 0.072897 0.432409 0.227146
H6    H     H_    0.346284 0.128560 0.394713 0.267182
N3    N     N_3   0.504385 0.174681 0.410408 -0.365392
H7    H     H_    0.452630 0.172711 0.364461 0.247120
H8    H     H_    0.494370 0.113827 0.399346 0.258472
N4    N     N_3   0.651374 0.322353 0.534714 -0.452408
H9    H     H_    0.670814 0.274594 0.518616 0.265863
H10   H     H_    0.624702 0.331539 0.483345 0.200228
N5    N     N_3   0.000246 0.611782 0.341497 -0.350518
H11   H     H_    0.992306 0.607420 0.390224 0.219895
H12   H     H_    0.945407 0.609057 0.298926 0.225439
N6    N     N_R   0.147330 0.634033 0.331039 0.239081
O27   O     O_R   0.225710 0.653677 0.376493 -0.384497
O28   O     O_R   0.125613 0.691524 0.321142 -0.321170
N7    N     N_R   0.036500 0.325668 0.156828 0.246408
O29   O     O_R   0.976882 0.275845 0.078571 -0.330485
O30   O     O_R   0.101200 0.310538 0.184967 -0.255628
N8    N     N_R   0.899840 0.306638 0.191597 0.230532
O31   O     O_R   0.829472 0.298398 0.189527 -0.335582
O32   O     O_R   0.919446 0.243558 0.181023 -0.233938
N9    N     N_R   0.230559 0.486582 0.381909 0.227322
O33   O     O_R   0.280450 0.547835 0.459343 -0.399185
O34   O     O_R   0.173869 0.420681 0.367551 -0.287243
N10   N     N_R   0.266011 0.511338 0.113023 0.218561
O35   O     O_R   0.275608 0.454242 0.060226 -0.304486
O36   O     O_R   0.262576 0.575439 0.103655 -0.357722
N11   N     N_3   0.803576 0.726924 0.098721 -0.316965
H13   H     H_    0.787282 0.777348 0.110726 0.270831
H14   H     H_    0.845724 0.734850 0.156371 0.262627
N12   N     N_R   0.452159 0.662892 0.302666 0.231075
O37   O     O_R   0.423938 0.701563 0.263550 -0.297211
O38   O     O_R   0.457155 0.681558 0.375586 -0.422067
N13   N     N_R   0.583171 0.666035 0.261657 0.257450
O39   O     O_R   0.658839 0.672790 0.286626 -0.306115
O40   O     O_R   0.569702 0.731922 0.268044 -0.271019
N14   N     N_R   0.567548 0.510272 0.144166 0.245472
O41   O     O_R   0.571172 0.554055 0.106191 -0.249915
O42   O     O_R   0.607583 0.463308 0.142959 -0.346369
N15   N     N_3   0.458663 0.356073 0.119061 -0.343823
H15   H     H_    0.515157 0.354912 0.151933 0.240480
H16   H     H_    0.450187 0.349365 0.060678 0.281837
N16   N     N_3   0.784961 0.625390 0.477207 -0.388828
H17   H     H_    0.785737 0.628169 0.425013 0.226749
H18   H     H_    0.740531 0.644687 0.485966 0.217053
N17   N     N_3   0.631643 0.491663 0.328666 -0.424254
H19   H     H_    0.618043 0.539691 0.359856 0.188900
H20   H     H_    0.664822 0.513137 0.302702 0.243630
N18   N     N_R   0.710057 0.287575 0.402670 0.225789
O43   O     O_R   0.637036 0.227589 0.367591 -0.383961
O44   O     O_R   0.772993 0.268409 0.414387 -0.260878
N19   N     N_3   0.855627 0.422859 0.552897 -0.365917
H21   H     H_    0.912504 0.445990 0.555651 0.237940
H22   H     H_    0.864323 0.456241 0.613493 0.189313
N20   N     N_R   0.738237 0.583711 0.943380 0.245864
O45   O     O_R   0.741267 0.548191 0.989772 -0.285912
O46   O     O_R   0.667195 0.562059 0.879555 -0.281262
N21   N     N_R   0.640849 0.278832 0.221813 0.182938
O47   O     O_R   0.666576 0.342988 0.212370 -0.363884
O48   O     O_R   0.684669 0.235966 0.228734 -0.272875
N22   N     N_R   0.350630 0.235267 0.250772 0.234430
O49   O     O_R   0.309934 0.173591 0.256025 -0.334908
O50   O     O_R   0.321023 0.289515 0.245119 -0.349386
N23   N     N_R   0.319296 0.172153 0.032993 0.236093
O51   O     O_R   0.294411 0.229336 0.059940 -0.306045
O52   O     O_R   0.345944 0.170444 0.980302 -0.322192
N24   N     N_R   0.180498 0.022720 0.895509 0.272038
O53   O     O_R   0.154688 0.080015 0.892650 -0.215859
O54   O     O_R   0.167800 0.963434 0.825885 -0.282305
N25   N     N_R   0.129634 0.880268 0.914352 0.249655
O55   O     O_R   0.137578 0.810575 0.886193 -0.387764
O56   O     O_R   0.060448 0.882670 0.871317 -0.237327
N26   N     N_3   0.216989 0.893510 0.079070 -0.385854
H23   H     H_    0.159184 0.846410 0.028502 0.235343
H24   H     H_    0.206112 0.917771 0.129247 0.293507
N27   N     N_R   0.374322 0.030870 0.202392 0.213895
O57   O     O_R   0.451137 0.044685 0.223478 -0.369514
O58   O     O_R   0.345075 0.012944 0.247435 -0.391160
N28   N     N_3   0.586307 0.889169 0.484500 -0.347583
H25   H     H_    0.636427 0.948369 0.525412 0.227135
H26   H     H_    0.602423 0.850189 0.445602 0.286238
N29   N     N_R   0.716309 0.878573 0.608912 0.233629
O59   O     O_R   0.730297 0.849833 0.546349 -0.332147
O60   O     O_R   0.778518 0.933549 0.684651 -0.248079
N30   N     N_R   0.681084 0.812296 0.708376 0.250102
O61   O     O_R   0.694746 0.841313 0.785654 -0.335276
O62   O     O_R   0.727171 0.778195 0.687945 -0.323372
N31   N     N_3   0.959976 0.721391 0.900831 -0.355001
H27   H     H_    0.977400 0.671959 0.894864 0.175651
H28   H     H_    0.920103 0.708780 0.840091 0.228660
N32   N     N_3   0.387044 0.762841 0.553138 -0.379265
H29   H     H_    0.368420 0.700703 0.539806 0.251526
H30   H     H_    0.384914 0.796996 0.607252 0.242535
N33   N     N_3   0.426400 0.835951 0.461311 -0.344209
H31   H     H_    0.377352 0.776562 0.416887 0.281028
H32   H     H_    0.403877 0.873618 0.492709 0.225595
N34   N     N_R   0.546523 0.916209 0.774508 0.205684
O63   O     O_R   0.618764 0.973267 0.839004 -0.357742
O64   O     O_R   0.496357 0.938148 0.729542 -0.379016
N35   N     N_R   0.487678 0.597463 0.751002 0.231731
O65   O     O_R   0.422345 0.547953 0.744219 -0.285653
O66   O     O_R   0.548136 0.575661 0.755457 -0.342763
N36   N     N_3   0.638156 0.781346 0.969192 -0.383705
H33   H     H_    0.641089 0.736304 0.921183 0.224915
H34   H     H_    0.647438 0.834740 0.962673 0.244224
N37   N     N_R   0.621988 0.770593 0.103670 0.236432
O67   O     O_R   0.680863 0.844725 0.138827 -0.338334
O68   O     O_R   0.630374 0.726829 0.142018 -0.234376
N38   N     N_3   0.463131 0.687997 0.077966 -0.313171
H35   H     H_    0.420584 0.710296 0.087656 0.239962
H36   H     H_    0.443084 0.625090 0.062496 0.284249
N39   N     N_R   0.314873 0.616314 0.911054 0.215898
O69   O     O_R   0.303580 0.573970 0.948795 -0.320254
O70   O     O_R   0.249764 0.606689 0.848162 -0.359127
N40   N     N_R   0.018962 0.871073 0.052866 0.229742
O71   O     O_R   0.076441 0.916781 0.132424 -0.317347
O72   O     O_R   0.021888 0.896788 0.000163 -0.283284
N41   N     N_3   0.733129 0.653520 0.770153 -0.373481
H37   H     H_    0.787841 0.695760 0.781546 0.234721
H38   H     H_    0.723499 0.680543 0.820921 0.230215
N42   N     N_3   0.745895 0.348446 0.748635 -0.412728
H39   H     H_    0.739837 0.311329 0.690280 0.208599
H40   H     H_    0.695780 0.316407 0.751982 0.226403
N43   N     N_R   0.546951 0.373372 0.733179 0.265885
O73   O     O_R   0.606498 0.385134 0.802083 -0.305735
O74   O     O_R   0.491710 0.401126 0.737434 -0.206195
N44   N     N_R   0.398805 0.222049 0.611112 0.255127
O75   O     O_R   0.418864 0.223680 0.683163 -0.269925
O76   O     O_R   0.320724 0.194517 0.556716 -0.263098

loop_
_geom_bond_atom_site_label_1
_geom_bond_atom_site_label_2
_geom_bond_distance
_ccdc_geom_bond_type
C33   C38   1.391226 A    
O21   C55   1.270569 A    
C11   C16   1.401028 A    
H3    C62   1.083598 S    
N11   H13   1.045015 S    
N37   O68   1.300052 A    
C30   C31   1.416380 A    
C43   H2    1.078786 S    
N13   O39   1.302082 A    
O22   C55   1.284092 A    
O12   C50   1.255025 A    
C31   N8    1.443608 S    
C87   N36   1.436269 S    
C73   N27   1.437819 S    
N32   H30   1.043178 S    
N7    O29   1.300990 A    
C48   C56   1.415552 S    
N37   O67   1.301278 A    
C90   C91   1.404128 A    
C11   N41   1.438496 S    
C42   C43   1.395141 A    
C83   C84   1.392480 A    
Zn1   O7    2.007276 S    
O10   C49   1.278197 A    
N26   H24   1.042202 S    
C81   N34   1.438957 S    
O4    C2    1.293856 A    
C7    C16   1.493486 S    
C18   C19   1.409458 A    
N13   O40   1.301306 A    
N8    O32   1.301188 A    
C8    C9    1.413248 A    
O1    C1    1.285493 A    
O1    Zn1   1.982411 S    
C20   C21   1.402364 A    
Zn2   O6    1.982413 S    
O7    C4    1.276323 A    
O24   C56   1.282251 A    
C2    C15   1.442221 S    
C3    C45   1.416450 S    
C73   C74   1.412627 A    
C1    C23   1.415919 S    
N42   H40   1.044546 S    
C82   C83   1.405234 A    
C65   C66   1.393742 A    
N39   O69   1.300501 A    
C75   C76   1.413597 A    
C7    C8    1.412873 A    
C24   C25   1.394072 S    
N15   H15   1.043507 S    
C31   C32   1.402029 A    
O9    C49   1.261200 A    
O5    C3    1.286662 A    
C77   C78   1.413249 A    
C71   C72   1.418295 A    
O15   C52   1.266083 A    
C41   N14   1.440196 S    
C53   C82   1.429336 S    
N38   H35   1.045636 S    
C12   C50   1.443850 S    
C36   C37   1.401136 A    
C60   N18   1.448540 S    
N40   O72   1.299734 A    
C6    C7    1.413601 A    
N23   O52   1.300797 A    
N44   O76   1.301230 A    
Zn3   O15   2.029744 S    
N9    O33   1.299800 A    
O13   C51   1.260700 A    
N43   O73   1.300269 A    
C61   N19   1.432309 S    
C19   C20   1.411896 A    
C57   N16   1.432701 S    
N40   O71   1.301089 A    
C76   C77   1.416691 A    
N10   O36   1.300721 A    
C81   C86   1.391746 A    
C58   C59   1.415647 A    
Zn4   O16   2.016019 S    
Zn4   O14   2.025228 S    
C20   N3    1.431035 S    
N41   H38   1.045314 S    
N25   O55   1.301015 A    
N11   H14   1.044649 S    
C83   C92   1.484599 S    
C11   C12   1.400343 A    
C85   C86   1.420524 A    
N14   O42   1.300736 A    
N15   H16   1.045342 S    
C63   N21   1.441288 S    
N14   O41   1.300828 A    
C69   C70   1.406023 A    
O3    Zn1   2.041509 S    
C12   C13   1.413863 A    
N32   H29   1.042354 S    
N7    O30   1.300867 A    
N16   H18   1.045341 S    
C64   C65   1.407920 A    
C67   C68   1.430246 A    
C45   C46   1.194497 T    
N27   O58   1.300533 A    
N44   O75   1.301304 A    
C5    C10   1.407501 A    
N38   H36   1.044604 S    
C33   N9    1.441146 S    
N26   H23   1.042129 S    
C40   C41   1.416814 A    
O11   Zn3   2.015771 S    
N18   O43   1.300798 A    
C57   C62   1.390998 A    
C27   C28   1.406314 A    
C14   C15   1.401192 A    
N33   H31   1.045366 S    
N17   H20   1.043848 S    
C76   N30   1.439596 S    
C26   C54   1.416105 S    
N19   H22   1.045856 S    
O18   Zn6   2.045632 S    
C28   C29   1.418370 A    
N43   O74   1.300957 A    
N30   O61   1.300992 A    
O17   Zn5   2.011420 S    
C4    C37   1.429858 S    
C49   C67   1.453869 S    
C88   N37   1.438129 S    
N42   H39   1.045358 S    
N19   H21   1.045658 S    
C39   C44   1.409499 A    
C65   C74   1.498147 S    
C34   C52   1.441224 S    
N39   O70   1.301914 A    
C25   C26   1.194540 T    
O11   C50   1.277046 A    
C75   C80   1.412492 A    
H1    C32   1.083056 S    
N2    H6    1.045027 S    
N1    O26   1.301194 A    
N29   O59   1.300821 A    
N35   O65   1.300702 A    
C21   N4    1.424746 S    
C66   N22   1.439333 S    
C17   N43   1.433510 S    
O9    Zn3   2.025107 S    
C66   C67   1.416902 A    
C28   N6    1.440981 S    
Zn2   O8    2.041504 S    
O12   Zn4   2.029655 S    
C63   C64   1.399596 A    
O14   C51   1.274999 A    
N36   H34   1.043931 S    
C23   C24   1.194366 T    
C88   C89   1.413774 A    
C58   N17   1.431801 S    
C69   C74   1.410111 A    
C39   C40   1.416888 A    
C60   C61   1.412298 A    
C55   C64   1.425752 S    
C41   C42   1.414119 A    
O18   C53   1.273968 A    
C40   N13   1.441498 S    
O17   C53   1.283176 A    
N28   H25   1.045504 S    
N10   O35   1.300854 A    
C87   C92   1.409347 A    
C59   C68   1.502502 S    
C10   N1    1.435499 S    
C9    N40   1.436416 S    
O16   C52   1.265877 A    
C29   C30   1.417980 A    
N31   H27   1.045542 S    
O8    C4    1.284288 A    
N34   O63   1.300677 A    
Zn6   O22   2.011635 S    
N3    H7    1.043469 S    
C79   N33   1.434265 S    
N6    O28   1.301291 A    
C46   C47   1.394855 S    
O3    C2    1.274102 A    
N22   O49   1.300693 A    
C70   N24   1.436302 S    
C57   C58   1.411470 A    
N1    O25   1.300784 A    
C69   N23   1.429318 S    
N12   O38   1.297848 A    
C90   N39   1.444823 S    
C75   N29   1.435970 S    
N16   H17   1.045046 S    
N4    H10   1.042206 S    
C91   C92   1.396988 A    
C72   C73   1.414849 A    
O23   C56   1.284737 A    
Zn1   O5    1.981469 S    
N27   O57   1.300475 A    
C35   C36   1.395034 A    
C37   C38   1.405437 A    
N22   O50   1.300478 A    
C51   C85   1.447981 S    
C78   C79   1.403973 A    
N29   O60   1.301200 A    
C17   C22   1.412506 A    
N6    O27   1.300180 A    
C21   C22   1.393148 A    
O2    Zn2   1.981467 S    
C33   C34   1.412521 A    
C18   N44   1.438406 S    
N24   O53   1.301029 A    
O6    C3    1.284337 A    
C81   C82   1.394380 A    
C77   C86   1.489263 S    
Zn5   O21   2.045630 S    
O20   Zn6   1.974659 S    
N18   O44   1.301465 A    
N5    H11   1.045720 S    
N33   H32   1.045567 S    
C43   C44   1.394620 A    
C5    N11   1.434214 S    
C80   N28   1.433872 S    
C36   N10   1.439014 S    
C42   N15   1.430527 S    
N31   H28   1.043217 S    
C79   C80   1.401106 A    
N34   O64   1.300209 A    
O10   Zn4   2.024535 S    
C39   N12   1.430065 S    
N12   O37   1.300679 A    
C9    C10   1.412668 A    
C14   N42   1.439100 S    
O2    C1    1.285175 A    
C15   C16   1.419322 A    
N30   O62   1.301314 A    
C27   C32   1.397606 A    
N35   O66   1.300049 A    
N17   H19   1.044901 S    
Zn6   O24   1.988777 S    
C84   C85   1.411349 A    
C13   C22   1.487625 S    
N5    H12   1.045685 S    
O19   Zn5   1.988781 S    
C72   N26   1.439923 S    
C89   N38   1.434065 S    
C5    C6    1.401263 A    
C84   N35   1.437359 S    
C59   C60   1.429121 A    
C71   N25   1.438042 S    
N20   O46   1.298813 A    
N2    H5    1.045028 S    
O19   C54   1.283076 A    
N8    O31   1.301592 A    
N9    O34   1.300759 A    
C61   C62   1.397382 A    
N21   O48   1.300363 A    
N24   O54   1.301211 A    
C6    N20   1.432564 S    
C13   C14   1.390278 A    
O20   C54   1.284095 A    
C19   N2    1.434144 S    
C34   C35   1.415641 A    
C47   C48   1.194437 T    
C27   N5    1.432234 S    
C30   N7    1.437969 S    
N21   O47   1.300763 A    
N28   H26   1.044691 S    
N23   O51   1.299171 A    
C78   N32   1.434547 S    
C35   C44   1.489291 S    
C70   C71   1.408665 A    
N25   O56   1.301340 A    
N3    H8    1.044626 S    
O4    Zn2   2.007277 S    
C87   C88   1.407464 A    
N4    H9    1.044415 S    
N20   O45   1.300965 A    
Zn3   O13   2.024480 S    
C89   C90   1.421762 A    
C63   C68   1.391176 A    
C8    N31   1.434943 S    
Zn5   O23   1.974792 S    
C29   C38   1.491286 S    
N41   H37   1.043066 S    
N36   H33   1.045460 S    
C91   H4    1.083334 S    
C17   C18   1.413560 A    
