data_mof_unit_66101.cif
_audit_creation_date              2012-12-10T20:45:26-0500
_audit_creation_method            fapswitch 2.2
_symmetry_space_group_name_H-M    P1
_symmetry_Int_Tables_number       1
_space_group_crystal_system       triclinic
_cell_length_a                    28.099482
_cell_length_b                    26.147241
_cell_length_c                    15.149389
_cell_angle_alpha                 89.798649
_cell_angle_beta                  98.032568
_cell_angle_gamma                 90.025007
_cell_volume                      11021.3457937

loop_
_atom_site_label
_atom_site_type_symbol
_atom_type_description
_atom_site_fract_x
_atom_site_fract_y
_atom_site_fract_z
_atom_type_partial_charge
C1    C     C_R   0.408163 0.098175 0.490738 0.520344
C2    C     C_R   0.013397 0.472140 0.112439 0.101992
C3    C     C_R   0.449004 0.033436 0.115186 -0.122891
C4    C     C_R   0.955021 0.540009 0.118498 -0.111328
C5    C     C_R   0.445668 0.041893 0.023837 0.074483
C6    C     C_R   0.952992 0.550030 0.027878 0.074014
C7    C     C_R   0.631328 0.863995 0.516235 0.023851
C8    C     C_R   0.632050 0.135420 0.517704 0.023052
C9    C     C_R   0.131284 0.363965 0.516182 0.024043
C10   C     C_R   0.131787 0.635570 0.517017 0.023449
C11   C     C_R   0.663175 0.862297 0.451638 0.074543
C12   C     C_R   0.408197 0.901736 0.490792 0.521314
C13   C     C_R   0.667829 0.133412 0.460415 0.074501
C14   C     C_R   0.162867 0.361984 0.451173 0.071939
C15   C     C_R   0.165536 0.635628 0.455711 0.073526
C16   C     C_R   0.703701 0.830216 0.465044 0.107285
C17   C     C_R   0.707817 0.166176 0.475157 0.106903
C18   C     C_R   0.203422 0.329942 0.464498 0.107715
C19   C     C_R   0.205901 0.667879 0.469977 0.107330
C20   C     C_R   0.711227 0.798134 0.540792 0.226735
C21   C     C_R   0.711195 0.202309 0.544569 0.226633
C22   C     C_R   0.211224 0.298167 0.540620 0.226379
C23   C     C_R   0.908167 0.598179 0.490731 0.520799
C24   C     C_R   0.211510 0.701636 0.543075 0.226291
C25   C     C_R   0.679452 0.799731 0.604194 0.089370
C26   C     C_R   0.675862 0.204142 0.601110 0.090173
C27   C     C_R   0.179686 0.300027 0.604419 0.089332
C28   C     C_R   0.178022 0.701556 0.603379 0.090300
C29   C     C_R   0.591561 0.901434 0.508969 0.537120
C30   C     C_R   0.591794 0.098366 0.509312 0.532651
C31   C     C_R   0.091547 0.401427 0.508953 0.533362
C32   C     C_R   0.091687 0.598428 0.509110 0.535404
C33   C     C_R   0.639778 0.832279 0.591710 -0.161278
C34   C     C_R   0.908207 0.401724 0.490770 0.518891
C35   C     C_R   0.636621 0.171064 0.587510 -0.158420
C36   C     C_R   0.139988 0.332543 0.591994 -0.160456
C37   C     C_R   0.138465 0.668891 0.590167 -0.158046
C38   C     C_R   0.288545 0.163092 0.427260 0.115139
C39   C     C_R   0.288937 0.836283 0.427214 0.113834
C40   C     C_R   0.788662 0.663285 0.426981 0.115200
C41   C     C_R   0.789536 0.335303 0.425706 0.113370
C42   C     C_R   0.327869 0.130948 0.425311 -0.116361
C43   C     C_R   0.328119 0.868667 0.425227 -0.117227
C44   C     C_R   0.827966 0.631104 0.425083 -0.116114
C45   C     C_R   0.479817 0.018664 0.974772 0.040384
C46   C     C_R   0.828635 0.367855 0.423994 -0.118145
C47   C     C_R   0.288955 0.199628 0.494803 0.243360
C48   C     C_R   0.289390 0.799702 0.495132 0.244225
C49   C     C_R   0.789014 0.699719 0.494677 0.243406
C50   C     C_R   0.789603 0.299340 0.494518 0.244914
C51   C     C_R   0.368407 0.134743 0.490584 0.006159
C52   C     C_R   0.368582 0.864986 0.490735 0.005980
C53   C     C_R   0.868431 0.634774 0.490544 0.005840
C54   C     C_R   0.868664 0.364870 0.490565 0.006026
C55   C     C_R   0.369214 0.171598 0.557797 -0.143502
C56   C     C_R   0.982906 0.521718 0.976746 0.033215
C57   C     C_R   0.369472 0.828012 0.558204 -0.147058
C58   C     C_R   0.869187 0.671537 0.557895 -0.143656
C59   C     C_R   0.869209 0.328448 0.558843 -0.147539
C60   C     C_R   0.329858 0.203810 0.560146 -0.092776
C61   C     C_R   0.330241 0.795606 0.560648 -0.094952
C62   C     C_R   0.829848 0.703777 0.560204 -0.092784
C63   C     C_R   0.830039 0.295934 0.561078 -0.095092
C64   C     C_R   0.489500 0.999918 0.257521 0.541897
C65   C     C_R   0.989479 0.499467 0.257678 0.500284
C66   C     C_R   0.510547 0.999829 0.741935 0.535598
C67   C     C_R   0.516291 0.986513 0.022161 0.016457
C68   C     C_R   0.010543 0.499816 0.742087 0.536148
C69   C     C_R   0.485329 0.003385 0.160656 0.046353
C70   C     C_R   0.985233 0.502625 0.161043 0.026041
C71   C     C_R   0.513387 0.998643 0.838336 0.075405
C72   C     C_R   0.013634 0.498368 0.838787 0.071804
C73   C     C_R   0.549865 0.961826 0.976394 -0.133206
C74   C     C_R   0.044892 0.455371 0.974628 -0.116671
C75   C     C_R   0.547973 0.967424 0.885638 -0.145459
C76   C     C_R   0.044488 0.462701 0.884587 -0.155896
C77   C     C_R   0.479520 0.024886 0.881113 0.098248
C78   C     C_R   0.013780 0.483121 0.021430 0.039451
C79   C     C_R   0.983318 0.528725 0.883369 0.096551
C80   C     C_R   0.518749 0.979169 0.114887 0.089406
H1    H     H_    0.616041 0.833421 0.642172 0.166832
H2    H     H_    0.332114 0.767382 0.613466 0.164788
H3    H     H_    0.831599 0.731784 0.613011 0.167971
H4    H     H_    0.831662 0.268109 0.614493 0.164051
H5    H     H_    0.423533 0.051928 0.152221 0.166599
H6    H     H_    0.933568 0.562970 0.157541 0.164530
H7    H     H_    0.577763 0.937288 0.009735 0.130624
H8    H     H_    0.069714 0.427202 0.006989 0.166826
H9    H     H_    0.573725 0.947072 0.851789 0.132944
H10   H     H_    0.068035 0.439691 0.849899 0.138023
H11   H     H_    0.326453 0.102791 0.372754 0.167703
H12   H     H_    0.609952 0.172933 0.632547 0.172444
H13   H     H_    0.326669 0.896898 0.372445 0.167213
H14   H     H_    0.826597 0.603024 0.372412 0.167784
H15   H     H_    0.827485 0.395634 0.370547 0.166334
H16   H     H_    0.550343 0.909362 0.137794 0.234777
H17   H     H_    0.588556 0.960320 0.157300 0.245343
H18   H     H_    0.026900 0.396175 0.119046 0.224285
H19   H     H_    0.034905 0.422495 0.218506 0.251615
H20   H     H_    0.651343 0.868877 0.316855 0.257406
H21   H     H_    0.682863 0.918008 0.370404 0.260647
H22   H     H_    0.663658 0.118864 0.328096 0.260875
H23   H     H_    0.116446 0.333911 0.642764 0.166470
H24   H     H_    0.692879 0.073388 0.395878 0.260001
H25   H     H_    0.150533 0.367984 0.316349 0.260743
H26   H     H_    0.182189 0.417335 0.368893 0.265056
H27   H     H_    0.157301 0.625869 0.321651 0.262614
H28   H     H_    0.187695 0.578036 0.381756 0.262489
H29   H     H_    0.448063 0.093532 0.846416 0.273757
H30   H     H_    0.410513 0.040427 0.827324 0.266040
H31   H     H_    0.960655 0.601033 0.849957 0.275590
H32   H     H_    0.916271 0.554025 0.834033 0.264873
H33   H     H_    0.113320 0.669084 0.638212 0.171827
H34   H     H_    0.399946 0.175095 0.609201 0.160851
H35   H     H_    0.400179 0.824559 0.609710 0.157246
H36   H     H_    0.899864 0.674939 0.609439 0.161670
H37   H     H_    0.899591 0.325517 0.611138 0.156448
H38   H     H_    0.331647 0.231889 0.612844 0.167569
I1    I     I_    0.754996 0.832944 0.373079 -0.270306
I2    I     I_    0.730633 0.341587 0.322377 -0.217462
I3    I     I_    0.690074 0.752904 0.719607 -0.242137
I4    I     I_    0.680214 0.257239 0.707165 -0.243256
I5    I     I_    0.190719 0.253665 0.720377 -0.240113
I6    I     I_    0.185736 0.751022 0.714851 -0.240116
I7    I     I_    0.764452 0.158973 0.395036 -0.277058
I8    I     I_    0.254352 0.332298 0.371816 -0.264037
I9    I     I_    0.259769 0.663244 0.383373 -0.268586
I10   I     I_    0.386621 0.091287 0.977802 -0.328954
I11   I     I_    0.904052 0.611061 0.986909 -0.331376
I12   I     I_    0.228850 0.155440 0.325938 -0.208032
I13   I     I_    0.229352 0.843703 0.325523 -0.211844
I14   I     I_    0.729082 0.655840 0.325369 -0.209470
N1    N     N_2   0.750712 0.764213 0.553467 -0.202615
N2    N     N_3   0.040532 0.428999 0.152872 -0.603426
N3    N     N_3   0.654038 0.892935 0.372305 -0.565193
N4    N     N_3   0.663442 0.098226 0.387270 -0.564963
N5    N     N_3   0.153414 0.392284 0.371495 -0.565849
N6    N     N_3   0.158577 0.603144 0.378851 -0.561820
N7    N     N_3   0.444858 0.055418 0.826148 -0.600592
N8    N     N_3   0.952020 0.563563 0.830265 -0.596239
N9    N     N_2   0.749927 0.237145 0.557146 -0.204109
N10   N     N_2   0.250756 0.264307 0.553298 -0.202854
N11   N     N_2   0.250643 0.735966 0.555749 -0.204260
N12   N     N_2   0.248692 0.232677 0.491561 -0.164974
N13   N     N_2   0.249345 0.766348 0.491913 -0.164134
N14   N     N_2   0.748777 0.732806 0.491407 -0.164462
N15   N     N_2   0.749729 0.265736 0.491116 -0.163715
N16   N     N_3   0.554319 0.946376 0.163657 -0.590650
O1    O     O_3   0.500000 0.000000 0.500000 -0.460154
O2    O     O_R   0.057820 0.602510 0.558190 -0.550918
O3    O     O_R   0.402690 0.940060 0.437800 -0.540093
O4    O     O_R   0.402690 0.059940 0.437800 -0.544233
O5    O     O_R   0.902690 0.440060 0.437800 -0.541301
O6    O     O_R   0.902690 0.559940 0.437800 -0.542680
O7    O     O_R   0.592810 0.059930 0.457190 -0.499637
O8    O     O_R   0.592810 0.940070 0.457190 -0.495048
O9    O     O_R   0.092810 0.559930 0.457190 -0.496421
O10   O     O_R   0.092810 0.440070 0.457190 -0.500403
O11   O     O_R   0.451940 0.000000 0.295720 -0.550898
O12   O     O_3   0.000000 0.500000 0.500000 -0.458077
O13   O     O_R   0.951940 0.500000 0.295720 -0.543196
O14   O     O_R   0.508560 0.042600 0.700250 -0.510238
O15   O     O_R   0.508560 0.957400 0.700250 -0.549068
O16   O     O_R   0.008560 0.542600 0.700250 -0.507355
O17   O     O_R   0.008560 0.457400 0.700250 -0.551241
O18   O     O_R   0.530930 0.000000 0.303780 -0.495688
O19   O     O_R   0.030930 0.500000 0.303780 -0.517817
O20   O     O_R   0.446670 0.102520 0.546820 -0.530457
O21   O     O_R   0.446670 0.897480 0.546820 -0.534139
O22   O     O_R   0.946670 0.602520 0.546820 -0.530004
O23   O     O_R   0.946670 0.397480 0.546820 -0.535045
O24   O     O_R   0.557820 0.897490 0.558190 -0.552593
O25   O     O_R   0.557820 0.102510 0.558190 -0.552360
O26   O     O_R   0.057820 0.397490 0.558190 -0.552526
Zn1   Zn    Zn3+2 0.503210 0.939150 0.575020 0.954164
Zn2   Zn    Zn3+2 0.503210 0.060850 0.575020 0.964223
Zn3   Zn    Zn3+2 0.003210 0.439150 0.575020 0.949234
Zn4   Zn    Zn3+2 0.003210 0.560850 0.575020 0.967744
Zn5   Zn    Zn3+2 0.440370 0.000000 0.419230 0.962783
Zn6   Zn    Zn3+2 0.940370 0.500000 0.419230 0.959248
Zn7   Zn    Zn3+2 0.553220 0.000000 0.430750 0.991025
Zn8   Zn    Zn3+2 0.053220 0.500000 0.430750 0.983351

loop_
_geom_bond_atom_site_label_1
_geom_bond_atom_site_label_2
_ccdc_geom_bond_type
C50   N15   S    
C58   C62   A    
C58   H36   S    
C21   C26   A    
C8    C13   A    
C7    C29   S    
O6    Zn6   S    
C3    H5    S    
O17   Zn3   S    
H32   N8    S    
C72   C76   A    
O15   Zn1   S    
C37   H33   S    
C4    C70   A    
C57   H35   S    
C7    C11   A    
C2    N2    S    
C56   C79   A    
C74   C76   A    
O22   Zn4   S    
C10   C37   A    
C38   I12   S    
H30   N7    S    
C3    C69   A    
C38   C42   A    
C72   C79   A    
C61   H2    S    
C43   C52   A    
C34   O5    A    
O19   Zn8   S    
O14   Zn2   S    
C20   C25   A    
C24   N11   S    
C65   C70   S    
O1    Zn5   S    
C56   C78   A    
C66   O14   A    
C1    O4    A    
O20   Zn2   S    
C42   H11   S    
C14   C18   A    
O12   Zn6   S    
C64   O18   A    
C43   H13   S    
C47   C60   A    
C44   C53   A    
C73   H7    S    
C46   H15   S    
C45   C67   A    
C9    C36   A    
C41   C46   A    
C60   H38   S    
C67   C73   A    
C20   N1    S    
C30   O25   A    
H20   N3    S    
C68   C72   S    
C42   C51   A    
O2    Zn4   S    
C15   N6    S    
C68   O17   A    
C68   O16   A    
C79   N8    S    
C40   I14   S    
O5    Zn6   S    
C59   H37   S    
C55   C60   A    
O1    Zn7   S    
C50   C63   A    
C7    C33   A    
C12   O3    A    
C22   N10   S    
O18   Zn7   S    
C6    I11   S    
O12   Zn8   S    
C12   C52   S    
H31   N8    S    
C23   C53   S    
C9    C31   S    
C54   C59   A    
H21   N3    S    
C66   O15   A    
H16   N16   S    
C77   N7    S    
C40   C49   A    
C4    C6    A    
C16   I1    S    
O11   Zn5   S    
C75   H9    S    
H26   N5    S    
C39   C43   A    
C1    O20   A    
C5    C45   A    
C47   N12   S    
C17   C21   A    
H19   N2    S    
O1    Zn1   S    
C8    C35   A    
C15   C19   A    
C9    C14   A    
C2    C78   A    
C11   N3    S    
C1    C51   S    
C11   C16   A    
O3    Zn5   S    
C66   C71   S    
C14   N5    S    
C40   C44   A    
C16   C20   A    
C48   N13   S    
C46   C54   A    
O7    Zn7   S    
O21   Zn1   S    
C64   C69   S    
O13   Zn6   S    
O10   Zn8   S    
O26   Zn3   S    
O12   Zn4   S    
C38   C47   A    
C29   O8    A    
C29   O24   A    
C30   O7    A    
C34   C54   S    
C22   C27   A    
C36   H23   S    
C13   N4    S    
N10   N12   D    
O9    Zn8   S    
C73   C75   A    
C41   C50   A    
C71   C77   A    
C4    H6    S    
O16   Zn4   S    
C76   H10   S    
C32   O9    A    
O25   Zn2   S    
N11   N13   D    
H18   N2    S    
C27   I5    S    
C49   C62   A    
H24   N4    S    
C10   C15   A    
C18   C22   A    
C67   C80   A    
C24   C28   A    
C6    C56   A    
C3    C5    A    
C53   C58   A    
O24   Zn1   S    
C57   C61   A    
C12   O21   A    
C55   H34   S    
C62   H3    S    
C27   C36   A    
C25   I3    S    
C65   O19   A    
C59   C63   A    
C13   C17   A    
C63   H4    S    
H29   N7    S    
O1    Zn2   S    
C8    C30   S    
O4    Zn5   S    
C19   C24   A    
C21   N9    S    
C74   H8    S    
C35   H12   S    
C71   C75   A    
C17   I7    S    
C48   C61   A    
C23   O22   A    
C39   I13   S    
C28   C37   A    
H27   N6    S    
C64   O11   A    
C19   I9    S    
H17   N16   S    
C49   N14   S    
C51   C55   A    
C41   I2    S    
H22   N4    S    
O12   Zn3   S    
C31   O10   A    
C44   H14   S    
C52   C57   A    
N9    N15   D    
H25   N5    S    
C10   C32   S    
C26   C35   A    
C80   N16   S    
C32   O2    A    
C74   C78   A    
C23   O6    A    
C65   O13   A    
O23   Zn3   S    
C69   C80   A    
C45   C77   A    
N1    N14   D    
C26   I4    S    
C28   I6    S    
C2    C70   A    
C33   H1    S    
C18   I8    S    
C34   O23   A    
C5    I10   S    
O8    Zn7   S    
C25   C33   A    
C39   C48   A    
H28   N6    S    
C31   O26   A    
