data_mof_unit_63706.cif
_audit_creation_date              2013-03-05T16:14:06-0500
_audit_creation_method            fapswitch 2.2
_symmetry_space_group_name_H-M    P1
_symmetry_Int_Tables_number       1
_space_group_crystal_system       triclinic
_cell_length_a                    27.804564
_cell_length_b                    14.654425
_cell_length_c                    15.907898
_cell_angle_alpha                 90.064955
_cell_angle_beta                  89.96386
_cell_angle_gamma                 90.261994
_cell_volume                      6481.75729479

loop_
_atom_site_label
_atom_site_type_symbol
_atom_site_description
_atom_site_fract_x
_atom_site_fract_y
_atom_site_fract_z
_atom_type_partial_charge
O1    O     O_R   0.500050 0.424030 0.620640 -0.548200
O2    O     O_R   0.500050 0.575970 0.620640 -0.563436
C1    C     C_R   0.500016 0.500038 0.660240 0.822772
O3    O     O_R   0.569790 0.424080 0.500060 -0.589046
O4    O     O_R   0.569790 0.575920 0.500060 -0.508744
C2    C     C_R   0.592894 0.500291 0.499611 0.863266
Cu1   Cu    Cu3+1 0.500060 0.410080 0.500090 1.080872
Cu2   Cu    Cu3+1 0.500060 0.589920 0.500090 1.099609
O5    O     O_R   0.500050 0.424100 0.379510 -0.580090
O6    O     O_R   0.500050 0.575900 0.379510 -0.563705
O7    O     O_R   0.430320 0.424060 0.500090 -0.537134
O8    O     O_R   0.430320 0.575940 0.500090 -0.578467
C3    C     C_R   0.500097 0.499953 0.339881 0.818873
C4    C     C_R   0.407194 0.499667 0.501823 0.845519
C5    C     C_R   0.822044 0.540170 0.568148 0.611094
O9    O     O_2   0.796672 0.574670 0.633087 -0.480011
N1    N     N_R   0.798501 0.500988 0.501679 -0.449527
C6    C     C_R   0.823091 0.462995 0.435980 0.596041
C7    C     C_R   0.721978 0.581332 0.479158 0.240203
C8    C     C_R   0.671704 0.581289 0.478978 0.583119
C9    C     C_R   0.671327 0.421279 0.518675 -0.245008
C10   C     C_R   0.721457 0.421594 0.519427 -0.114572
C11   C     C_R   0.746944 0.501406 0.500106 0.180205
C12   C     C_R   0.898451 0.508995 0.500567 -0.051994
C13   C     C_R   0.872465 0.544940 0.568854 -0.037210
C14   C     C_R   0.897274 0.585447 0.635705 -0.100516
C15   C     C_R   0.873539 0.466132 0.434234 -0.037107
C16   C     C_R   0.645933 0.501125 0.499044 -0.231042
H1    H     H_    0.652442 0.358759 0.534329 0.224647
H2    H     H_    0.740610 0.359810 0.535352 0.191827
H3    H     H_    0.878111 0.614956 0.688378 0.205208
C17   C     C_R   0.354053 0.499738 0.502275 -0.171436
C18   C     C_R   0.025372 0.547004 0.570545 -0.006495
C19   C     C_R   0.025221 0.499364 0.421804 -0.095593
C20   C     C_R   0.050644 0.522675 0.496232 0.047443
C21   C     C_R   0.051997 0.565113 0.644238 -0.254688
C22   C     C_R   0.101911 0.561672 0.644763 0.697571
C23   C     C_R   0.127343 0.540476 0.571070 -0.126570
C24   C     C_R   0.101689 0.522032 0.496284 -0.192981
C25   C     C_R   0.127103 0.502825 0.421593 -0.187028
C26   C     C_R   0.177658 0.498433 0.424145 0.657091
N2    N     N_R   0.201649 0.514204 0.497684 -0.477369
C27   C     C_R   0.177875 0.536466 0.569987 0.648741
C28   C     C_R   0.275795 0.429824 0.531052 0.284254
C29   C     C_R   0.326389 0.425571 0.533751 0.207123
C30   C     C_R   0.330435 0.576835 0.470386 -0.185081
C31   C     C_R   0.280539 0.580832 0.468853 -0.100650
C32   C     C_R   0.253112 0.507901 0.498946 0.190934
O10   O     O_2   0.203280 0.554216 0.640425 -0.398273
C33   C     C_R   0.974369 0.551013 0.569177 0.076345
C34   C     C_R   0.949365 0.515236 0.498852 0.089329
C35   C     C_R   0.974846 0.484196 0.427265 0.083246
C36   C     C_R   0.947297 0.588102 0.636219 -0.176218
H4    H     H_    0.035032 0.579121 0.703785 0.184391
H5    H     H_    0.963805 0.621848 0.689168 0.164221
O11   O     O_2   0.798760 0.423368 0.372171 -0.495865
C37   C     C_R   0.899557 0.425995 0.368759 -0.109938
H6    H     H_    0.881527 0.388122 0.319375 0.205607
C38   C     C_R   0.051393 0.494029 0.345106 0.146202
C39   C     C_R   0.101602 0.492056 0.346022 0.665945
O12   O     O_2   0.202824 0.477779 0.354168 -0.397701
C40   C     C_R   0.949442 0.433279 0.366378 -0.131370
H7    H     H_    0.350660 0.634325 0.445917 0.210338
H8    H     H_    0.263001 0.640954 0.444195 0.189241
H9    H     H_    0.967920 0.395190 0.318200 0.194907
C41   C     C_3   0.456012 0.446608 0.950404 -0.410125
C42   C     C_3   0.496581 0.598613 0.950620 -0.408376
C43   C     C_3   0.499226 0.599806 0.047904 0.155078
C44   C     C_3   0.457023 0.441810 0.047691 0.156574
H10   H     H_    0.422698 0.481150 0.928714 0.235049
H11   H     H_    0.462087 0.628771 0.928967 0.237204
H12   H     H_    0.525656 0.642438 0.924296 0.216866
H13   H     H_    0.454670 0.376364 0.923957 0.218759
H14   H     H_    0.533616 0.633619 0.066204 0.156221
H15   H     H_    0.463024 0.369392 0.065882 0.155589
C45   C     C_1   0.500054 0.499859 0.250406 -0.082068
C46   C     C_3   0.500683 0.499368 0.917190 0.041498
C47   C     C_3   0.499668 0.500207 0.082909 0.049208
C48   C     C_3   0.546662 0.455338 0.050376 -0.536034
C49   C     C_3   0.547751 0.454397 0.952251 0.482928
C50   C     C_1   0.499924 0.499930 0.175002 0.045632
C51   C     C_1   0.500259 0.499862 0.825084 0.062693
C52   C     C_1   0.500072 0.500072 0.749694 -0.055607
H16   H     H_    0.549452 0.384769 0.075599 0.217919
H17   H     H_    0.578348 0.492922 0.075780 0.220229
C53   C     C_3   0.508207 0.946764 0.411637 -0.430399
C54   C     C_3   0.508225 0.053211 0.411642 -0.450307
C55   C     C_3   0.540186 0.946179 0.559765 0.649281
C56   C     C_3   0.540163 0.054756 0.559804 0.631251
H18   H     H_    0.543207 0.078680 0.386836 0.267175
H19   H     H_    0.543166 0.921793 0.386777 0.274323
N3    N     N_1   0.499020 0.275030 0.498610 -0.138115
N4    N     N_1   0.499020 0.724970 0.498610 -0.134544
C57   C     C_3   0.499136 0.908070 0.501452 -0.371625
C58   C     C_3   0.499129 0.091979 0.501447 -0.368374
C59   C     C_3   0.449462 0.053250 0.531203 0.981175
C60   C     C_3   0.449477 0.946044 0.531251 0.950615
C61   C     C_1   0.498929 0.195150 0.499399 0.444291
C62   C     C_1   0.498937 0.804862 0.499403 0.454876
H20   H     H_    0.480059 0.921385 0.367640 0.250484
H21   H     H_    0.480108 0.078030 0.367605 0.249365
Br1   Br    Br    0.755989 0.690749 0.448821 -0.272728
Br2   Br    Br    0.022662 0.512365 0.235846 -0.312946
F1    F     F_    0.125301 0.483803 0.271661 -0.537593
Br3   Br    Br    0.394072 0.470731 0.095113 -0.323471
Br4   Br    Br    0.449572 0.678436 0.095451 -0.341926
Br5   Br    Br    0.554521 0.328676 0.912249 -0.361451
Br6   Br    Br    0.605280 0.518837 0.912603 -0.390699
Br7   Br    Br    0.537284 0.890617 0.672138 -0.230657
Br8   Br    Br    0.537168 0.110504 0.672207 -0.215850
F2    F     F_    0.583855 0.916736 0.527411 -0.534472
F3    F     F_    0.583836 0.084963 0.527540 -0.565478
F4    F     F_    0.413706 0.914031 0.477833 -0.578719
F5    F     F_    0.413716 0.084439 0.477697 -0.561572
F6    F     F_    0.438494 0.913936 0.610908 -0.570447
F7    F     F_    0.438423 0.085468 0.610804 -0.555516
Br9   Br    Br    0.356029 0.320537 0.585217 -0.235337
Br10  Br    Br    0.236824 0.329479 0.570325 -0.273341
F8    F     F_    0.124925 0.578786 0.718438 -0.564284
F9    F     F_    0.648301 0.659112 0.457819 -0.575344

loop_
_geom_bond_atom_site_label_1
_geom_bond_atom_site_label_2
_geom_bond_distance
_ccdc_geom_bond_type
C25   C39   1.404455 A    
C26   N2    1.365981 A    
C20   C24   1.419379 A    
C58   C59   1.563928 S    
C42   C46   1.552652 S    
C12   C15   1.408271 A    
C26   O12   1.349300 S    
C58   C61   1.512343 S    
N3    C61   1.170668 T    
C37   C40   1.391143 A    
C41   H10   1.112825 S    
Cu1   O7    1.950817 S    
C56   F3    1.388788 S    
N1    C11   1.433806 S    
C57   C62   1.512747 S    
C21   C22   1.389023 A    
C42   H12   1.112125 S    
C53   H19   1.112477 S    
C48   H16   1.112735 S    
O7    C4    1.283845 A    
C5    C13   1.403394 A    
C41   C44   1.549586 S    
C43   H14   1.113674 S    
C5    O9    1.349667 S    
C18   C21   1.411143 A    
Cu1   O5    1.929379 S    
C19   C20   1.419906 A    
C17   C29   1.420132 A    
O5    C3    1.278518 A    
C53   C57   1.557750 S    
C54   H21   1.112698 S    
C55   F2    1.388816 S    
C2    C16   1.474754 S    
C7    C8    1.397843 A    
C22   F8    1.358235 S    
C60   F6    1.385620 S    
C53   H20   1.112712 S    
N4    C62   1.170841 T    
C7    Br1   1.919765 S    
C6    O11   1.349522 S    
C12   C34   1.418425 A    
C38   C39   1.396548 A    
C9    C10   1.393883 A    
C59   F5    1.388282 S    
C44   C47   1.562891 S    
C43   Br4   1.953763 S    
O3    Cu1   1.948704 S    
C33   C34   1.416356 A    
C36   H5    1.078051 S    
C43   C47   1.562881 S    
C23   C24   1.412714 A    
C55   C57   1.571448 S    
C33   C36   1.414502 A    
Cu2   N4    1.979590 S    
C42   C43   1.549451 S    
Cu1   Cu2   2.635450 S    
C12   C13   1.407393 A    
O3    C2    1.285876 A    
C15   C37   1.398471 A    
C31   H8    1.082991 S    
C44   Br3   1.953666 S    
C53   C54   1.559913 S    
C27   O10   1.349389 S    
C8    C16   1.410052 A    
C57   C60   1.564137 S    
C18   C33   1.419785 A    
C41   H13   1.112075 S    
C9    H1    1.083100 S    
C56   Br8   1.966917 S    
C34   C35   1.416509 A    
C54   C58   1.557784 S    
O1    C1    1.279035 A    
C56   C58   1.571374 S    
C7    C11   1.404781 A    
C22   C23   1.403898 A    
C31   C32   1.395069 A    
C49   Br5   1.958328 S    
C3    C45   1.423364 S    
C28   Br10  1.927037 S    
Cu2   O8    1.948953 S    
C59   C60   1.571047 S    
N1    C6    1.367844 A    
N2    C32   1.434477 S    
C55   Br7   1.966621 S    
C25   C26   1.408031 A    
C9    C16   1.404930 A    
O8    C4    1.287258 A    
C1    C52   1.423033 S    
C19   C38   1.422518 A    
N2    C27   1.366189 A    
C60   F4    1.388264 S    
C14   C36   1.391277 A    
C8    F9    1.358417 S    
C28   C29   1.409087 A    
C46   C49   1.570890 S    
C29   Br9   1.932351 S    
C5    N1    1.368328 A    
C41   C46   1.552723 S    
C30   C31   1.389057 A    
C10   H2    1.082873 S    
C40   H9    1.078908 S    
O1    Cu1   1.928332 S    
C17   C30   1.404829 A    
O2    Cu2   1.928793 S    
C6    C15   1.403500 A    
C4    C17   1.477583 S    
O6    C3    1.278485 A    
C45   C50   1.199522 T    
O4    Cu2   1.950569 S    
C49   Br6   1.958184 S    
C19   C35   1.419785 A    
C30   H7    1.083360 S    
C38   Br2   1.932899 S    
O2    C1    1.279294 A    
C13   C14   1.398187 A    
C23   C27   1.406611 A    
C35   C40   1.410056 A    
C47   C48   1.553616 S    
C47   C50   1.465046 S    
C37   H6    1.083275 S    
O4    C2    1.283560 A    
C46   C51   1.465299 S    
Cu1   N3    1.979273 S    
C18   C20   1.420791 A    
C48   H17   1.112807 S    
C44   H15   1.113644 S    
C42   H11   1.112858 S    
C21   H4    1.077887 S    
C48   C49   1.561288 S    
C24   C25   1.410777 A    
C14   H3    1.083389 S    
C55   C56   1.591126 S    
Cu2   O6    1.928916 S    
C51   C52   1.199312 T    
C54   H18   1.112467 S    
C10   C11   1.399128 A    
C59   F7    1.385672 S    
C39   F1    1.359261 S    
C28   C32   1.405728 A    
