data_mof_unit_51750.cif
_audit_creation_date              2012-12-11T17:00:26-0500
_audit_creation_method            fapswitch 2.2
_symmetry_space_group_name_H-M    P1
_symmetry_Int_Tables_number       1
_space_group_crystal_system       triclinic
_cell_length_a                    6.966289
_cell_length_b                    13.569999
_cell_length_c                    20.292324
_cell_angle_alpha                 103.358102
_cell_angle_beta                  89.566871
_cell_angle_gamma                 91.073878
_cell_volume                      1866.04769816

loop_
_atom_site_label
_atom_site_type_symbol
_atom_type_description
_atom_site_fract_x
_atom_site_fract_y
_atom_site_fract_z
_atom_type_partial_charge
O1    O     O_R   0.506770 0.599700 0.449550 -0.535228
O2    O     O_R   0.179980 0.595740 0.587960 -0.543889
O3    O     O_R   0.004580 0.400300 0.550450 -0.540609
C1    C     C_R   0.348635 0.616447 0.615201 0.711814
O4    O     O_R   0.177380 0.611700 0.452380 -0.548346
O5    O     O_R   0.001970 0.416370 0.413900 -0.544061
C2    C     C_R   0.347447 0.638113 0.435565 0.747043
O6    O     O_R   0.509390 0.583630 0.586100 -0.534295
O7    O     O_3   0.337530 0.435890 0.487530 -0.376127
V1    V     V_3+5 0.064660 0.511890 0.502310 1.415006
O8    O     O_R   0.671950 0.404260 0.412040 -0.543356
C3    C     C_R   0.840497 0.383214 0.384659 0.689031
O9    O     O_R   0.674540 0.388300 0.547620 -0.542502
C4    C     C_R   0.841329 0.361304 0.563638 0.694780
V2    V     V_3+5 0.564030 0.488110 0.497690 1.427667
O10   O     O_3   0.841030 0.564110 0.512470 -0.367936
C5    C     C_R   0.738881 0.114010 0.608047 -0.162773
H1    H     H_    0.739673 0.166166 0.516256 0.103419
H2    H     H_    0.687094 0.991056 0.688959 0.142204
H3    H     H_    0.689102 0.038786 0.582603 0.142156
C6    C     C_R   0.839280 0.282201 0.601273 -0.033849
C7    C     C_R   0.915115 0.309034 0.924569 -0.178508
C8    C     C_R   0.926007 0.385029 0.889374 -0.108472
C9    C     C_R   0.896885 0.362585 0.819869 -0.130502
C10   C     C_R   0.856081 0.262251 0.783245 0.028809
C11   C     C_R   0.835608 0.183987 0.819805 -0.025804
C12   C     C_R   0.834258 0.237830 0.711371 0.073956
C13   C     C_R   0.769803 0.139325 0.678196 0.080372
C14   C     C_R   0.738860 0.065855 0.714713 -0.303772
C15   C     C_R   0.785300 0.083897 0.783367 0.353291
C16   C     C_R   0.873318 0.308000 0.670956 -0.203065
C17   C     C_R   0.770748 0.185595 0.570003 -0.167571
C18   C     C_R   0.869402 0.209295 0.891169 -0.082390
H4    H     H_    0.926008 0.383852 0.691932 0.088505
H5    H     H_    0.941832 0.328246 0.978641 0.098136
H6    H     H_    0.903669 0.426199 0.796536 0.098200
H7    H     H_    0.958342 0.462200 0.916172 0.112178
C19   C     C_R   0.706170 0.183797 0.226424 0.111577
C20   C     C_R   0.865607 0.184437 0.184043 -0.106621
C21   C     C_R   0.022572 0.247703 0.210439 -0.185834
H8    H     H_    0.146448 0.252295 0.178947 0.136130
C22   C     C_R   0.015751 0.310915 0.275998 -0.178841
H9    H     H_    0.134929 0.362313 0.293224 0.128921
C23   C     C_R   0.851297 0.313023 0.317032 -0.106488
C24   C     C_R   0.699489 0.246508 0.291493 0.100046
C25   C     C_3   0.495121 0.271759 0.284118 -0.414590
C26   C     C_3   0.502640 0.205048 0.213206 -0.413553
H10   H     H_    0.476307 0.353267 0.285015 0.165881
H11   H     H_    0.399404 0.240916 0.318874 0.174528
H12   H     H_    0.490074 0.247922 0.172916 0.168006
H13   H     H_    0.407225 0.137311 0.206856 0.169528
C27   C     C_R   0.345205 0.649724 0.741887 0.102473
C28   C     C_R   0.357646 0.685184 0.682863 -0.097631
C29   C     C_R   0.374010 0.791536 0.691753 -0.207446
H14   H     H_    0.386346 0.823881 0.647961 0.141546
C30   C     C_R   0.374756 0.856833 0.757742 -0.186591
H15   H     H_    0.388379 0.937859 0.762854 0.138517
C31   C     C_R   0.358477 0.817086 0.816382 -0.107491
C32   C     C_R   0.346063 0.712061 0.805052 0.092095
C33   C     C_3   0.325189 0.626817 0.839517 -0.446610
C34   C     C_3   0.324127 0.556226 0.767998 -0.417735
H16   H     H_    0.185569 0.627906 0.866549 0.166460
H17   H     H_    0.454129 0.618954 0.869703 0.172295
H18   H     H_    0.184035 0.516873 0.753867 0.164093
H19   H     H_    0.452434 0.507566 0.756949 0.175750
C35   C     C_R   0.409338 0.889799 0.388949 -0.239142
H20   H     H_    0.452794 0.012769 0.305561 0.124253
H21   H     H_    0.434403 0.968503 0.414268 0.128852
C36   C     C_R   0.360521 0.715671 0.396009 -0.127928
C37   C     C_R   0.311640 0.683873 0.069599 -0.170362
C38   C     C_R   0.291454 0.608104 0.105113 -0.121035
C39   C     C_R   0.309509 0.630752 0.175428 -0.160111
C40   C     C_R   0.349637 0.730990 0.212375 0.094561
C41   C     C_R   0.372257 0.808077 0.175400 0.065830
C42   C     C_R   0.365335 0.757678 0.284681 0.080936
C43   C     C_R   0.399619 0.860709 0.318031 0.077949
C44   C     C_R   0.424200 0.934277 0.280510 -0.182167
C45   C     C_R   0.412221 0.908272 0.210409 -0.193966
C46   C     C_R   0.348635 0.685931 0.325265 -0.292423
C47   C     C_R   0.385769 0.818184 0.428151 0.407271
C48   C     C_R   0.352086 0.783664 0.103926 -0.075170
H22   H     H_    0.328193 0.606113 0.303634 0.111010
H23   H     H_    0.295034 0.664701 0.015029 0.098359
H24   H     H_    0.289324 0.568132 0.199234 0.104466
H25   H     H_    0.259926 0.531043 0.077939 0.115933
H26   H     H_    0.433699 0.967593 0.183569 0.114174
O11   O     O_R   0.203450 0.916320 0.913910 -0.550535
O12   O     O_R   0.535520 0.888300 0.047620 -0.542845
O13   O     O_R   0.710860 0.083650 0.086100 -0.541467
C49   C     C_R   0.365402 0.861615 0.064290 0.681076
O14   O     O_R   0.532860 0.904250 0.912040 -0.522537
O15   O     O_R   0.708190 0.099710 0.949550 -0.520760
C50   C     C_R   0.364534 0.882951 0.885022 0.723631
O16   O     O_R   0.206120 0.900260 0.050460 -0.537926
O17   O     O_3   0.375280 0.064080 0.012470 -0.375528
V3    V     V_3+5 0.648180 0.988110 0.997690 1.447754
O18   O     O_R   0.038220 0.111740 0.952370 -0.552797
C51   C     C_R   0.871496 0.133984 0.932450 0.775873
O19   O     O_R   0.040880 0.095790 0.087940 -0.546009
C52   C     C_R   0.872395 0.118042 0.114949 0.688099
V4    V     V_3+5 0.148800 0.011950 0.002300 1.404489
O20   O     O_3   0.871820 0.935920 0.987530 -0.374986
O21   O     O_3   0.396920 0.848280 0.497958 -0.569183
C53   C     C_3   0.218530 0.887845 0.524836 0.067358
H27   H     H_    0.151296 0.834164 0.552401 0.134939
H28   H     H_    0.112586 0.899476 0.486309 0.116904
C54   C     C_3   0.252285 0.989248 0.574626 -0.730367
H29   H     H_    0.312489 0.045273 0.547568 0.221891
H30   H     H_    0.114493 0.017720 0.598824 0.195185
H31   H     H_    0.353912 0.980989 0.614754 0.216061
O22   O     O_3   0.770766 0.003225 0.814366 -0.556072
C55   C     C_3   0.919267 0.934287 0.789673 0.102471
H32   H     H_    0.054980 0.964522 0.815195 0.126069
H33   H     H_    0.943596 0.921230 0.734008 0.108205
C56   C     C_3   0.871033 0.831248 0.803794 -0.651029
H34   H     H_    0.734749 0.801282 0.778934 0.220742
H35   H     H_    0.983040 0.776319 0.782106 0.172423
H36   H     H_    0.860373 0.836474 0.858958 0.235655

loop_
_geom_bond_atom_site_label_1
_geom_bond_atom_site_label_2
_ccdc_geom_bond_type
C35   H21   S    
O12   V3    S    
V4    O20   S    
V3    O20   S    
C1    C28   S    
C40   C42   A    
C40   C41   A    
C29   H14   S    
O17   V3    S    
H20   C44   S    
C1    O6    A    
C53   H28   S    
O18   C51   A    
O15   C51   A    
C28   C29   A    
C23   C24   A    
C7    H5    S    
C6    C16   A    
C25   H11   S    
C9    H6    S    
C33   H17   S    
C4    C6    S    
C13   C14   A    
C31   C50   S    
C27   C34   S    
O5    C3    A    
C19   C20   A    
V2    O10   S    
O15   V3    S    
C5    H3    S    
C30   H15   S    
C33   H16   S    
C18   C51   S    
C37   C48   A    
C55   H32   S    
C19   C24   A    
O14   V3    S    
C38   H25   S    
O8    V2    S    
O22   C55   S    
O16   V4    S    
C56   H35   S    
C8    C9    A    
C37   C38   A    
O1    V2    S    
O7    V1    S    
C44   C45   A    
C45   H26   S    
C21   C22   A    
C32   C33   S    
O11   V4    S    
O9    C4    A    
C54   H30   S    
C22   C23   A    
C55   H33   S    
C53   H27   S    
C49   O16   A    
C26   H12   S    
C25   H10   S    
C6    C17   A    
C29   C30   A    
O13   C52   A    
C12   C16   A    
C43   C44   A    
C20   C21   A    
O4    C2    A    
C26   H13   S    
C47   O21   S    
C10   C11   A    
C8    H7    S    
C33   C34   S    
C34   H18   S    
O2    C1    A    
C42   C43   A    
O5    V1    S    
C14   C15   A    
C27   C32   A    
C34   H19   S    
O14   C50   A    
C11   C18   A    
O19   C52   A    
C54   H29   S    
C56   H36   S    
C35   C43   A    
C16   H4    S    
C9    C10   A    
C37   H23   S    
C19   C26   S    
C39   H24   S    
O3    C4    A    
C48   C49   S    
C21   H8    S    
O19   V4    S    
O12   C49   A    
C11   C15   A    
O6    V2    S    
O9    V2    S    
C54   H31   S    
C36   C46   A    
H1    C17   S    
C22   H9    S    
C41   C48   A    
O2    V1    S    
C12   C13   A    
C27   C28   A    
C7    C18   A    
C25   C26   S    
O1    C2    A    
C5    C13   A    
C39   C40   A    
C2    C36   S    
C46   H22   S    
O8    C3    A    
C10   C12   A    
C35   C47   A    
C15   O22   S    
O13   V3    S    
O7    V2    S    
O4    V1    S    
C3    C23   S    
O3    V1    S    
V1    O10   S    
C20   C52   S    
O11   C50   A    
C30   C31   A    
C53   C54   S    
C31   C32   A    
C24   C25   S    
C38   C39   A    
C41   C45   A    
O21   C53   S    
C5    C17   A    
C7    C8    A    
C36   C47   A    
C56   H34   S    
C42   C46   A    
C55   C56   S    
O18   V4    S    
O17   V4    S    
H2    C14   S    
