data_mof_unit_39108.cif
_audit_creation_date              2012-12-11T17:41:31-0500
_audit_creation_method            fapswitch 2.2
_symmetry_space_group_name_H-M    P1
_symmetry_Int_Tables_number       1
_space_group_crystal_system       triclinic
_cell_length_a                    15.499989
_cell_length_b                    15.024679
_cell_length_c                    15.158384
_cell_angle_alpha                 109.773738
_cell_angle_beta                  121.292102
_cell_angle_gamma                 58.842626
_cell_volume                      2569.73956477

loop_
_atom_site_label
_atom_site_type_symbol
_atom_type_description
_atom_site_fract_x
_atom_site_fract_y
_atom_site_fract_z
_atom_type_partial_charge
C1    C     C_R   0.758536 0.990920 0.790018 -0.119180
C2    C     C_R   0.354300 0.390120 0.128915 -0.087551
C3    C     C_R   0.573668 0.735790 0.841905 -0.134361
C4    C     C_R   0.415118 0.285604 0.102052 -0.170857
C5    C     C_R   0.624869 0.787808 0.935821 0.125907
C6    C     C_R   0.366343 0.215046 0.057901 0.134192
C7    C     C_R   0.739154 0.735048 0.998742 -0.175059
C8    C     C_R   0.253867 0.251687 0.035099 -0.170820
C9    C     C_R   0.801123 0.632928 0.967582 -0.109575
C10   C     C_R   0.193307 0.356170 0.062438 -0.125923
C11   C     C_R   0.749734 0.582502 0.873638 -0.091694
C12   C     C_R   0.200059 0.057719 0.224585 -0.118233
C13   C     C_R   0.243754 0.425177 0.109986 -0.092514
C14   C     C_R   0.566705 0.924391 0.066710 -0.246663
C15   C     C_R   0.423853 0.078604 0.929607 -0.236445
C16   C     C_R   0.201641 0.276545 0.444874 -0.116552
C17   C     C_R   0.768792 0.710924 0.518144 -0.121875
C18   C     C_R   0.503058 0.026829 0.096191 0.065741
C19   C     C_R   0.488663 0.976774 0.900690 0.062611
C20   C     C_R   0.430584 0.104989 0.027948 0.005068
C21   C     C_R   0.559583 0.897563 0.967688 0.014475
C22   C     C_2   0.025389 0.351575 0.468743 -0.213523
C23   C     C_R   0.139773 0.276913 0.486062 0.145509
C24   C     C_2   0.864144 0.603769 0.398597 -0.216196
C25   C     C_2   0.963802 0.417517 0.395709 -0.097158
C26   C     C_2   0.871430 0.513713 0.405853 -0.108749
C27   C     C_2   0.852296 0.113609 0.897037 -0.219736
C28   C     C_2   0.019958 0.040155 0.151433 -0.217598
C29   C     C_R   0.222567 0.781518 0.557841 -0.114879
C30   C     C_R   0.770911 0.122399 0.322197 -0.125759
C31   C     C_R   0.312225 0.699990 0.537483 -0.129575
C32   C     C_R   0.676255 0.208644 0.330029 -0.160932
C33   C     C_R   0.295707 0.655159 0.435352 0.115212
C34   C     C_R   0.801034 0.701570 0.444262 0.148127
C35   C     C_R   0.685930 0.294553 0.403397 0.123241
C36   C     C_R   0.187636 0.690787 0.354585 -0.181938
C37   C     C_R   0.793268 0.290675 0.470410 -0.170874
C38   C     C_R   0.098175 0.772213 0.375372 -0.127594
C39   C     C_R   0.887789 0.203666 0.463100 -0.097243
C40   C     C_R   0.591498 0.216379 0.485857 -0.141534
C41   C     C_R   0.404568 0.771313 0.448943 -0.119696
C42   C     C_R   0.115692 0.817779 0.476832 -0.101767
C43   C     C_R   0.876614 0.119934 0.388612 -0.086881
C44   C     C_R   0.390681 0.472969 0.382957 -0.229510
C45   C     C_R   0.498220 0.295550 0.425890 0.060549
C46   C     C_R   0.580051 0.487796 0.426114 -0.246205
C47   C     C_R   0.490492 0.382759 0.396310 0.065411
C48   C     C_R   0.487964 0.576857 0.436414 0.066535
C49   C     C_R   0.584442 0.388486 0.408727 0.018979
C50   C     C_R   0.391099 0.569444 0.413196 0.006744
C51   C     C_2   0.866474 0.100512 0.987491 -0.105612
C52   C     C_2   0.961492 0.109403 0.081774 -0.104453
C53   C     C_R   0.403306 0.004300 0.718920 -0.149776
C54   C     C_R   0.593640 0.001223 0.280357 -0.155602
C55   C     C_R   0.407223 0.284830 0.406969 -0.115614
C56   C     C_R   0.494425 0.676055 0.471044 0.047614
C57   C     C_R   0.589435 0.693404 0.536467 -0.135676
C58   C     C_R   0.589663 0.928260 0.796198 -0.122785
C59   C     C_R   0.407643 0.072180 0.203643 -0.111197
C60   C     C_R   0.200066 0.186499 0.535089 -0.145829
C61   C     C_R   0.764223 0.801102 0.423062 -0.145001
C62   C     C_R   0.758118 0.083552 0.700127 -0.149732
C63   C     C_R   0.196283 0.969776 0.314421 -0.167500
C64   C     C_R   0.789969 0.066353 0.799482 0.148803
C65   C     C_R   0.135748 0.019907 0.225029 0.153932
C66   C     C_R   0.493943 0.962907 0.806882 0.054481
C67   C     C_R   0.501337 0.042978 0.192426 0.057487
C68   C     C_R   0.636120 0.633851 0.810895 -0.111586
H1    H     H_    0.774427 0.955942 0.851371 0.087855
H2    H     H_    0.499652 0.259903 0.114385 0.116685
H3    H     H_    0.780684 0.773490 0.071077 0.102634
H4    H     H_    0.213472 0.199255 0.996835 0.102573
H5    H     H_    0.889190 0.593044 0.016072 0.099941
H6    H     H_    0.107128 0.383769 0.046255 0.100838
H7    H     H_    0.618062 0.864152 0.119591 0.135304
H8    H     H_    0.372274 0.139287 0.877124 0.138629
H9    H     H_    0.823818 0.512155 0.437967 0.124414
H10   H     H_    0.992768 0.411308 0.341377 0.122880
H11   H     H_    0.912559 0.604695 0.366950 0.132558
H12   H     H_    0.174742 0.110797 0.173582 0.078301
H13   H     H_    0.995588 0.359488 0.523215 0.126326
H14   H     H_    0.046389 0.880988 0.492697 0.102249
H15   H     H_    0.949880 0.052945 0.382733 0.096255
H16   H     H_    0.175705 0.329227 0.393102 0.082834
H17   H     H_    0.794284 0.649355 0.559301 0.085048
H18   H     H_    0.235990 0.816631 0.636429 0.106386
H19   H     H_    0.762315 0.057297 0.264715 0.103901
H20   H     H_    0.394618 0.672586 0.600827 0.104064
H21   H     H_    0.595649 0.207764 0.279707 0.122042
H22   H     H_    0.173199 0.656581 0.275591 0.106546
H23   H     H_    0.986532 0.989982 0.147536 0.127792
H24   H     H_    0.804352 0.354219 0.529331 0.098663
H25   H     H_    0.015303 0.800193 0.312793 0.100719
H26   H     H_    0.969824 0.201120 0.515360 0.095568
H27   H     H_    0.315871 0.470310 0.367983 0.127505
H28   H     H_    0.649917 0.495934 0.435442 0.124353
H29   H     H_    0.677901 0.195490 0.509373 0.112106
H30   H     H_    0.318448 0.788534 0.397708 0.119759
H31   H     H_    0.316080 0.032609 0.699354 0.096474
H32   H     H_    0.679879 0.975832 0.298785 0.093796
H33   H     H_    0.322221 0.321266 0.350443 0.089136
H34   H     H_    0.897576 0.148708 0.895336 0.127870
H35   H     H_    0.672738 0.635737 0.575182 0.089740
H36   H     H_    0.674738 0.885168 0.848843 0.100040
H37   H     H_    0.321243 0.108135 0.150250 0.093812
H38   H     H_    0.169816 0.156633 0.563659 0.086423
H39   H     H_    0.778896 0.821403 0.371788 0.094130
H40   H     H_    0.771131 0.136610 0.679824 0.100665
H41   H     H_    0.163485 0.945227 0.345267 0.103371
H42   H     H_    0.993830 0.159803 0.084508 0.122288
H43   H     H_    0.822005 0.065242 0.990127 0.127954
H44   H     H_    0.797946 0.503598 0.849499 0.097434
H45   H     H_    0.196814 0.506029 0.130994 0.093965
H46   H     H_    0.596464 0.594599 0.738205 0.107985
H47   H     H_    0.392758 0.443992 0.164116 0.122196
H48   H     H_    0.485530 0.774179 0.792608 0.104725
N1    N     N_R   0.705410 0.966550 0.689210 -0.046905
N2    N     N_R   0.556610 0.796750 0.548620 -0.037082
N3    N     N_R   0.556610 0.951620 0.703500 -0.040920
N4    N     N_R   0.443390 0.048380 0.296500 -0.041122
N5    N     N_R   0.294590 0.131500 0.522480 -0.040551
N6    N     N_R   0.705410 0.868500 0.477520 -0.043029
N7    N     N_R   0.705410 0.023370 0.632390 -0.043904
N8    N     N_R   0.294590 0.976630 0.367610 -0.041610
N9    N     N_R   0.294590 0.033450 0.310790 -0.044551
N10   N     N_R   0.294590 0.188320 0.465660 -0.045697
N11   N     N_R   0.705410 0.811680 0.534340 -0.044802
N12   N     N_R   0.556610 0.157790 0.497330 -0.039301
N13   N     N_R   0.443390 0.842210 0.502670 -0.041718
N14   N     N_R   0.443390 0.997080 0.657540 -0.036362
N15   N     N_R   0.556610 0.002920 0.342460 -0.034411
N16   N     N_R   0.443390 0.203250 0.451380 -0.040779
Ni1   Ni    Ni4+2 0.629830 0.882720 0.617850 0.216627
Ni2   Ni    Ni4+2 0.370170 0.117280 0.382150 0.206805
Ni3   Ni    Ni4+2 0.629830 0.013030 0.487540 0.214130
Ni4   Ni    Ni4+2 0.370170 0.986970 0.512460 0.212840

loop_
_geom_bond_atom_site_label_1
_geom_bond_atom_site_label_2
_ccdc_geom_bond_type
N9    Ni2   S    
C41   N13   A    
C63   C65   A    
C59   N4    A    
C29   C42   A    
N4    N15   A    
C43   H15   S    
C14   C18   A    
C3    C68   A    
C42   H14   S    
N1    Ni1   S    
C33   C36   A    
C4    H2    S    
C63   N8    A    
C47   C49   A    
C53   H31   S    
C15   C19   A    
C54   N15   A    
C46   C49   A    
C59   H37   S    
C17   H17   S    
C14   C21   A    
C35   C37   A    
C24   C26   D    
C38   C42   A    
N15   Ni3   S    
C3    H48   S    
C7    H3    S    
C62   H40   S    
C36   H22   S    
C40   N12   A    
C16   H16   S    
N3    N14   A    
C56   C57   A    
C19   C66   S    
C48   C56   S    
N6    N11   A    
C2    C13   A    
C62   C64   A    
C59   C67   A    
C58   C66   A    
C22   C25   D    
C35   C49   S    
C31   C33   A    
N4    Ni2   S    
C44   C47   A    
C28   C52   D    
C48   C50   A    
C15   H8    S    
C54   H32   S    
C23   C60   A    
C9    H5    S    
N12   N16   A    
C62   N7    A    
C25   C26   S    
C27   C51   D    
C45   C47   S    
C40   C45   A    
C57   H35   S    
C46   C48   A    
C8    H4    S    
C26   H9    S    
N8    Ni4   S    
C51   C52   S    
C22   H13   S    
C4    C6    A    
N12   Ni3   S    
C40   H29   S    
C5    C7    A    
C17   N11   A    
C39   C43   A    
C12   N9    A    
C33   C50   S    
C34   C61   A    
C24   C34   S    
C25   H10   S    
N7    Ni3   S    
C61   N6    A    
C63   H41   S    
C2    C4    A    
C32   C35   A    
C41   C56   A    
N13   Ni4   S    
C2    H47   S    
C24   H11   S    
C32   H21   S    
C52   H42   S    
C15   C20   A    
C46   H28   S    
N3    Ni1   S    
C53   C66   A    
C9    C11   A    
C45   C55   A    
C29   H18   S    
N2    Ni1   S    
N16   Ni2   S    
C39   H26   S    
C30   C43   A    
C58   H36   S    
C17   C34   A    
C1    C64   A    
C60   H38   S    
C11   C68   A    
C44   C50   A    
C7    C9    A    
C51   H43   S    
C31   H20   S    
C37   H24   S    
C19   C21   A    
C11   H44   S    
C22   C23   S    
N14   Ni4   S    
N11   Ni1   S    
C3    C5    A    
C10   C13   A    
C6    C8    A    
C54   C67   A    
C16   C23   A    
C6    C20   S    
C12   C65   A    
C55   H33   S    
C27   H34   S    
C14   H7    S    
C36   C38   A    
C28   C65   S    
C18   C67   S    
N5    N10   A    
C29   C31   A    
C44   H27   S    
C30   C32   A    
C10   H6    S    
C12   H12   S    
C38   H25   S    
C58   N3    A    
C28   H23   S    
C18   C20   A    
N5    Ni4   S    
N1    N7    A    
C60   N5    A    
C61   H39   S    
C1    H1    S    
N6    Ni3   S    
C27   C64   S    
C37   C39   A    
C5    C21   S    
N10   Ni2   S    
C8    C10   A    
C55   N16   A    
N2    N13   A    
C41   H30   S    
N8    N9    A    
C53   N14   A    
C30   H19   S    
C1    N1    A    
C16   N10   A    
C13   H45   S    
C68   H46   S    
C57   N2    A    
