data_mof_unit_47901.cif
_audit_creation_date              2012-12-11T15:22:48-0500
_audit_creation_method            fapswitch 2.2
_symmetry_space_group_name_H-M    P1
_symmetry_Int_Tables_number       1
_space_group_crystal_system       triclinic
_cell_length_a                    22.46102
_cell_length_b                    12.979116
_cell_length_c                    27.006782
_cell_angle_alpha                 90.202599
_cell_angle_beta                  90.544437
_cell_angle_gamma                 90.050235
_cell_volume                      7872.72216737

loop_
_atom_site_label
_atom_site_type_symbol
_atom_type_description
_atom_site_fract_x
_atom_site_fract_y
_atom_site_fract_z
_atom_type_partial_charge
Br1   Br    Br    0.836575 0.082932 0.975661 -0.605055
Br2   Br    Br    0.164475 0.088129 0.027340 -0.588110
Br3   Br    Br    0.336349 0.583231 0.975661 -0.605027
Br4   Br    Br    0.664452 0.588080 0.027325 -0.588181
C1    C     C_R   0.720509 0.344625 0.178019 0.534389
C2    C     C_R   0.469808 0.258367 0.898325 -0.132935
C3    C     C_R   0.007992 0.583596 0.555149 -0.134964
C4    C     C_R   0.503107 0.083897 0.393929 -0.177981
C5    C     C_R   0.495712 0.082534 0.605519 -0.178443
C6    C     C_R   0.003108 0.583896 0.393930 -0.177979
C7    C     C_R   0.995714 0.582534 0.605519 -0.178442
C8    C     C_R   0.740331 0.955410 0.371461 -0.007520
C9    C     C_R   0.259726 0.954880 0.628536 -0.007527
C10   C     C_R   0.240331 0.455411 0.371461 -0.007516
C11   C     C_R   0.759727 0.454881 0.628535 -0.007528
C12   C     C_R   0.689902 0.928287 0.398676 -0.142303
C13   C     C_R   0.015322 0.751465 0.102847 -0.131475
C14   C     C_R   0.310251 0.928668 0.601200 -0.142520
C15   C     C_R   0.189901 0.428289 0.398676 -0.142300
C16   C     C_R   0.810252 0.428669 0.601200 -0.142521
C17   C     C_R   0.694848 0.910020 0.448856 -0.174451
C18   C     C_R   0.305356 0.910852 0.550955 -0.174681
C19   C     C_R   0.194847 0.410024 0.448857 -0.174451
C20   C     C_R   0.805357 0.410855 0.550955 -0.174681
C21   C     C_R   0.750455 0.915619 0.472502 0.072676
C22   C     C_R   0.249708 0.915816 0.527391 0.072793
C23   C     C_R   0.250455 0.415623 0.472503 0.072676
C24   C     C_R   0.970048 0.758425 0.898275 -0.132928
C25   C     C_R   0.749709 0.415819 0.527390 0.072794
C26   C     C_R   0.802406 0.932705 0.444754 0.246707
C27   C     C_R   0.197684 0.931717 0.555225 0.246720
C28   C     C_R   0.302405 0.432707 0.444754 0.246706
C29   C     C_R   0.697685 0.431720 0.555225 0.246719
C30   C     C_R   0.796739 0.954106 0.394032 -0.124106
C31   C     C_R   0.203293 0.952802 0.606033 -0.124071
C32   C     C_R   0.296739 0.454106 0.394033 -0.124111
C33   C     C_R   0.703294 0.452804 0.606033 -0.124071
C34   C     C_R   0.786032 0.976247 0.555147 -0.072432
C35   C     C_R   0.505033 0.255008 0.051585 0.009378
C36   C     C_R   0.213845 0.976517 0.445120 -0.073414
C37   C     C_R   0.286032 0.476250 0.555148 -0.072430
C38   C     C_R   0.713846 0.476520 0.445119 -0.073412
C39   C     C_R   0.721001 0.346861 0.321901 0.550727
C40   C     C_R   0.279033 0.346576 0.678048 0.550075
C41   C     C_R   0.221001 0.846861 0.321901 0.550722
C42   C     C_R   0.779033 0.846576 0.678048 0.550065
C43   C     C_R   0.790931 0.962565 0.606049 -0.120796
C44   C     C_R   0.208926 0.962943 0.394180 -0.121025
C45   C     C_R   0.290930 0.462566 0.606050 -0.120795
C46   C     C_R   0.484218 0.259547 0.948736 0.002343
C47   C     C_R   0.708926 0.462945 0.394180 -0.121025
C48   C     C_R   0.724132 0.815682 0.600207 -0.127979
C49   C     C_R   0.276508 0.817281 0.399346 -0.127824
C50   C     C_R   0.224131 0.315685 0.600208 -0.127980
C51   C     C_R   0.776509 0.317284 0.399345 -0.127824
C52   C     C_R   0.720469 0.827831 0.549407 -0.133197
C53   C     C_R   0.280145 0.829228 0.450156 -0.133428
C54   C     C_R   0.220468 0.327835 0.549408 -0.133199
C55   C     C_R   0.780147 0.329232 0.450156 -0.133428
C56   C     C_R   0.752822 0.906137 0.526422 0.070687
C57   C     C_R   0.005186 0.755102 0.051558 0.009322
C58   C     C_R   0.247389 0.906780 0.473481 0.070944
C59   C     C_R   0.252821 0.406141 0.526422 0.070686
C60   C     C_R   0.747391 0.406784 0.473480 0.070944
C61   C     C_R   0.761556 0.880001 0.628564 0.027994
C62   C     C_R   0.238607 0.880883 0.371335 0.028783
C63   C     C_R   0.261556 0.380002 0.628564 0.027991
C64   C     C_R   0.738608 0.380884 0.371335 0.028783
C65   C     C_R   0.554720 0.159242 0.321825 0.566076
C66   C     C_R   0.445289 0.159049 0.678177 0.564516
C67   C     C_R   0.054720 0.659242 0.321825 0.566087
C68   C     C_R   0.984436 0.759598 0.948694 0.002357
C69   C     C_R   0.945289 0.659049 0.678177 0.564518
C70   C     C_R   0.731660 0.002087 0.322931 0.548144
C71   C     C_R   0.268313 0.001832 0.677110 0.547411
C72   C     C_R   0.231660 0.502088 0.322931 0.548127
C73   C     C_R   0.768313 0.501833 0.677110 0.547412
C74   C     C_R   0.545362 0.072089 0.095338 -0.129524
C75   C     C_R   0.503445 0.080821 0.891729 -0.127741
C76   C     C_R   0.044941 0.571918 0.095414 -0.129726
C77   C     C_R   0.003245 0.580616 0.891779 -0.127731
C78   C     C_R   0.537302 0.075443 0.044389 0.002211
C79   C     C_R   0.516656 0.166868 0.022292 0.058429
C80   C     C_R   0.518147 0.080784 0.941963 0.011909
C81   C     C_R   0.036908 0.575233 0.044463 0.002105
C82   C     C_R   0.017881 0.580549 0.942024 0.011824
C83   C     C_R   0.540861 0.991631 0.964228 -0.124954
C84   C     C_R   0.550284 0.988902 0.015218 -0.129625
C85   C     C_R   0.040304 0.491237 0.964342 -0.125017
C86   C     C_R   0.049653 0.488516 0.015339 -0.129736
C87   C     C_R   0.506952 0.169496 0.970902 0.059229
C88   C     C_R   0.016556 0.666796 0.022312 0.058370
C89   C     C_R   0.279474 0.344865 0.822002 0.533658
C90   C     C_R   0.006902 0.669405 0.970915 0.059171
C91   C     C_R   0.484036 0.345170 0.028920 -0.104495
C92   C     C_R   0.473387 0.347260 0.977849 -0.109195
C93   C     C_R   0.984465 0.845397 0.028839 -0.104236
C94   C     C_R   0.973841 0.847464 0.977763 -0.108926
C95   C     C_R   0.733883 0.976924 0.126925 0.039317
C96   C     C_R   0.265299 0.976903 0.872864 0.043033
C97   C     C_R   0.233896 0.476807 0.126942 0.039452
C98   C     C_R   0.765300 0.476907 0.872865 0.043025
C99   C     C_R   0.713597 0.051983 0.093565 -0.106874
C100  C     C_R   0.220507 0.844620 0.178018 0.534480
C101  C     C_R   0.281576 0.054341 0.906708 -0.097988
C102  C     C_R   0.212924 0.551285 0.093566 -0.106886
C103  C     C_R   0.781562 0.554357 0.906708 -0.097910
C104  C     C_R   0.715208 0.033723 0.042924 -0.085205
C105  C     C_R   0.279362 0.036069 0.957254 -0.078207
C106  C     C_R   0.214619 0.532980 0.042928 -0.085486
C107  C     C_R   0.779357 0.536085 0.957254 -0.078171
C108  C     C_R   0.737362 0.940217 0.025113 0.055844
C109  C     C_R   0.260154 0.940361 0.974609 0.057792
C110  C     C_R   0.237501 0.439988 0.025147 0.056261
C111  C     C_R   0.779470 0.844876 0.821998 0.533675
C112  C     C_R   0.760170 0.440365 0.974611 0.057807
C113  C     C_R   0.756055 0.863489 0.058429 -0.080883
C114  C     C_R   0.245462 0.861438 0.940770 -0.081882
C115  C     C_R   0.256939 0.363837 0.058476 -0.080222
C116  C     C_R   0.745494 0.361430 0.940774 -0.081925
C117  C     C_R   0.555689 0.156613 0.176540 0.539607
C118  C     C_R   0.446579 0.157891 0.822189 0.540125
C119  C     C_R   0.055667 0.656616 0.176547 0.539548
C120  C     C_R   0.946585 0.657886 0.822187 0.540146
C121  C     C_R   0.754356 0.881877 0.109488 -0.125075
C122  C     C_R   0.476721 0.167575 0.870315 -0.005882
C123  C     C_R   0.248073 0.879696 0.889776 -0.122193
C124  C     C_R   0.255201 0.382298 0.109527 -0.124913
C125  C     C_R   0.748099 0.379688 0.889779 -0.122190
C126  C     C_R   0.708485 0.850933 0.947488 -0.153047
C127  C     C_R   0.287781 0.846798 0.051150 -0.146424
C128  C     C_R   0.208654 0.350603 0.947555 -0.152964
C129  C     C_R   0.787811 0.346837 0.051161 -0.146673
C130  C     C_R   0.716815 0.830285 0.897359 -0.145671
C131  C     C_R   0.280361 0.826045 0.101308 -0.140262
C132  C     C_R   0.216940 0.330025 0.897414 -0.145727
C133  C     C_R   0.535254 0.159809 0.124854 -0.004049
C134  C     C_R   0.780393 0.326098 0.101320 -0.140626
C135  C     C_R   0.793965 0.960887 0.894668 -0.098628
C136  C     C_R   0.207084 0.962554 0.106421 -0.090500
C137  C     C_R   0.293927 0.460915 0.894672 -0.098775
C138  C     C_R   0.707076 0.462546 0.106417 -0.090460
C139  C     C_R   0.785683 0.982066 0.944767 0.158610
C140  C     C_R   0.214337 0.983779 0.056272 0.163309
C141  C     C_R   0.285668 0.482044 0.944781 0.158578
C142  C     C_R   0.714334 0.483767 0.056268 0.163248
C143  C     C_R   0.743630 0.925053 0.971659 0.032085
C144  C     C_R   0.976747 0.667520 0.870311 -0.005945
C145  C     C_R   0.254159 0.924148 0.028096 0.029635
C146  C     C_R   0.243738 0.424836 0.971698 0.031967
C147  C     C_R   0.754173 0.424157 0.028098 0.029685
C148  C     C_R   0.760936 0.882937 0.870888 -0.016997
C149  C     C_R   0.238698 0.881909 0.129041 -0.016560
C150  C     C_R   0.260963 0.382854 0.870911 -0.016997
C151  C     C_R   0.738706 0.381928 0.129044 -0.016571
C152  C     C_R   0.528924 0.170227 0.371422 0.056563
C153  C     C_R   0.471247 0.169627 0.628630 0.056822
C154  C     C_R   0.028924 0.670227 0.371422 0.056566
C155  C     C_R   0.035140 0.659817 0.124881 -0.004222
C156  C     C_R   0.971247 0.669627 0.628631 0.056822
C157  C     C_R   0.539285 0.260761 0.399684 0.240307
C158  C     C_R   0.462355 0.261017 0.600984 0.240715
C159  C     C_R   0.039284 0.760762 0.399683 0.240311
C160  C     C_R   0.962354 0.761017 0.600984 0.240714
C161  C     C_R   0.527887 0.259620 0.450471 -0.099153
C162  C     C_R   0.473706 0.260089 0.550186 -0.098793
C163  C     C_R   0.027886 0.759621 0.450471 -0.099149
C164  C     C_R   0.973706 0.760088 0.550186 -0.098792
C165  C     C_R   0.731173 0.001976 0.179380 0.531245
C166  C     C_R   0.515177 0.251336 0.102871 -0.131536
C167  C     C_R   0.268699 0.002050 0.820520 0.532274
C168  C     C_R   0.231176 0.501960 0.179386 0.531254
C169  C     C_R   0.768699 0.502051 0.820520 0.532281
C170  C     C_R   0.504789 0.171597 0.473127 0.010879
C171  C     C_R   0.495391 0.171409 0.526922 0.011113
C172  C     C_R   0.004790 0.671596 0.473128 0.010880
C173  C     C_R   0.995392 0.671409 0.526922 0.011114
C174  C     C_R   0.490821 0.084772 0.444301 -0.134461
C175  C     C_R   0.507991 0.083595 0.555149 -0.134964
C176  C     C_R   0.990823 0.584771 0.444302 -0.134460
Cr1   Cr    Cr6+3 0.756570 0.170940 0.251190 1.021224
Cr2   Cr    Cr6+3 0.374010 0.036240 0.749520 1.022631
Cr3   Cr    Cr6+3 0.125990 0.536240 0.250480 1.020098
Cr4   Cr    Cr6+3 0.874010 0.536240 0.749520 1.022593
Cr5   Cr    Cr6+3 0.243430 0.170940 0.748810 1.020356
Cr6   Cr    Cr6+3 0.256570 0.670940 0.251190 1.021242
Cr7   Cr    Cr6+3 0.743430 0.670940 0.748810 1.020377
Cr8   Cr    Cr6+3 0.623740 0.299110 0.249580 1.062863
Cr9   Cr    Cr6+3 0.376260 0.299110 0.750420 1.060742
Cr10  Cr    Cr6+3 0.123740 0.799110 0.249580 1.062849
Cr11  Cr    Cr6+3 0.876260 0.799110 0.750420 1.060723
Cr12  Cr    Cr6+3 0.625990 0.036240 0.250480 1.020093
H1    H     H_    0.509316 0.011132 0.870045 0.132920
H2    H     H_    0.230965 0.786806 0.953888 0.137818
H3    H     H_    0.274567 0.291508 0.044878 0.134507
H4    H     H_    0.731013 0.286790 0.953894 0.137490
H5    H     H_    0.769411 0.823156 0.135082 0.108786
H6    H     H_    0.236166 0.819151 0.863816 0.109837
H7    H     H_    0.270843 0.324050 0.135132 0.108498
H8    H     H_    0.736204 0.319133 0.863820 0.109816
H9    H     H_    0.526305 0.015096 0.538104 0.114974
H10   H     H_    0.471425 0.016860 0.460875 0.115163
H11   H     H_    0.026308 0.515097 0.538105 0.114973
H12   H     H_    0.562497 0.001723 0.111642 0.146341
H13   H     H_    0.971428 0.516858 0.460875 0.115163
H14   H     H_    0.503169 0.012049 0.626014 0.132624
H15   H     H_    0.494554 0.014084 0.372933 0.132814
H16   H     H_    0.003171 0.512050 0.626015 0.132624
H17   H     H_    0.994556 0.514082 0.372934 0.132815
H18   H     H_    0.539305 0.326622 0.472624 0.123186
H19   H     H_    0.463368 0.327898 0.528496 0.120943
H20   H     H_    0.039304 0.826624 0.472624 0.123185
H21   H     H_    0.963367 0.827897 0.528496 0.120945
H22   H     H_    0.645749 0.929054 0.382171 0.148413
H23   H     H_    0.008961 0.510833 0.870135 0.133058
H24   H     H_    0.354422 0.930039 0.617671 0.148396
H25   H     H_    0.145748 0.429057 0.382171 0.148413
H26   H     H_    0.854422 0.430039 0.617671 0.148396
H27   H     H_    0.809384 0.039726 0.538067 0.142096
H28   H     H_    0.190206 0.039486 0.462511 0.141624
H29   H     H_    0.309384 0.539728 0.538068 0.142099
H30   H     H_    0.690207 0.539489 0.462510 0.141625
H31   H     H_    0.819814 0.013195 0.627360 0.131200
H32   H     H_    0.179730 0.013080 0.373114 0.131384
H33   H     H_    0.319814 0.513196 0.627361 0.131205
H34   H     H_    0.061847 0.501424 0.111751 0.146364
H35   H     H_    0.679730 0.513081 0.373113 0.131381
H36   H     H_    0.550049 0.923353 0.942390 0.124351
H37   H     H_    0.567173 0.918812 0.031909 0.133350
H38   H     H_    0.049315 0.422838 0.942539 0.124477
H39   H     H_    0.066314 0.418308 0.032072 0.133445
H40   H     H_    0.654596 0.896607 0.469683 0.110750
H41   H     H_    0.345662 0.898346 0.530043 0.110644
H42   H     H_    0.154595 0.396612 0.469684 0.110749
H43   H     H_    0.845663 0.398349 0.530043 0.110644
H44   H     H_    0.694273 0.773385 0.527863 0.106782
H45   H     H_    0.828397 0.001992 0.875023 0.160365
H46   H     H_    0.306620 0.775124 0.471433 0.106921
H47   H     H_    0.194271 0.273389 0.527864 0.106782
H48   H     H_    0.806623 0.275129 0.471432 0.106919
H49   H     H_    0.701272 0.750803 0.616553 0.140936
H50   H     H_    0.299710 0.752897 0.382732 0.140979
H51   H     H_    0.201271 0.250805 0.616553 0.140935
H52   H     H_    0.799712 0.252900 0.382732 0.140978
H53   H     H_    0.835797 0.973532 0.372739 0.115558
H54   H     H_    0.164184 0.971505 0.627451 0.115833
H55   H     H_    0.335797 0.473532 0.372739 0.115548
H56   H     H_    0.174396 0.005924 0.127080 0.162658
H57   H     H_    0.664184 0.471506 0.627450 0.115837
H58   H     H_    0.449198 0.325769 0.881900 0.139928
H59   H     H_    0.508399 0.319491 0.125441 0.126801
H60   H     H_    0.949623 0.825947 0.881806 0.139871
H61   H     H_    0.008767 0.819748 0.125374 0.126994
H62   H     H_    0.455851 0.416928 0.961230 0.159073
H63   H     H_    0.475088 0.413526 0.050754 0.145233
H64   H     H_    0.956515 0.917247 0.961104 0.159039
H65   H     H_    0.975714 0.913883 0.050636 0.145360
H66   H     H_    0.696809 0.125217 0.106886 0.116736
H67   H     H_    0.328274 0.502173 0.874999 0.160306
H68   H     H_    0.295966 0.129295 0.893831 0.115892
H69   H     H_    0.195575 0.624137 0.106869 0.116642
H70   H     H_    0.795933 0.629322 0.893830 0.115970
H71   H     H_    0.675664 0.807325 0.967792 0.164145
H72   H     H_    0.318847 0.801000 0.029979 0.174218
H73   H     H_    0.175916 0.306864 0.967885 0.164585
H74   H     H_    0.818887 0.301049 0.029994 0.174020
H75   H     H_    0.691035 0.769141 0.880135 0.154660
H76   H     H_    0.304816 0.762554 0.117599 0.158302
H77   H     H_    0.191212 0.268795 0.880207 0.154718
H78   H     H_    0.674373 0.505894 0.127069 0.162651
H79   H     H_    0.804864 0.262633 0.117618 0.158182
H80   H     H_    0.700179 0.093001 0.017568 0.135490
H81   H     H_    0.291807 0.096972 0.982893 0.134990
H82   H     H_    0.199070 0.591827 0.017554 0.135180
H83   H     H_    0.791789 0.596996 0.982892 0.134973
H84   H     H_    0.568357 0.402613 0.403108 0.319080
H85   H     H_    0.435605 0.404201 0.598528 0.318351
H86   H     H_    0.068353 0.902616 0.403107 0.319079
H87   H     H_    0.935604 0.904200 0.598527 0.318351
H88   H     H_    0.888875 0.942030 0.442996 0.317592
H89   H     H_    0.773092 0.790742 0.044820 0.135317
H90   H     H_    0.111174 0.939494 0.557063 0.317378
H91   H     H_    0.388875 0.442018 0.442995 0.317594
H92   H     H_    0.611175 0.439497 0.557062 0.317379
O1    O     O_R   0.769900 0.064540 0.196060 -0.508381
O2    O     O_R   0.433710 0.069580 0.694600 -0.540856
O3    O     O_R   0.066290 0.569580 0.305400 -0.538313
O4    O     O_R   0.933710 0.569580 0.694600 -0.540850
O5    O     O_R   0.680760 0.993330 0.302620 -0.504142
O6    O     O_R   0.319240 0.993330 0.697380 -0.504874
O7    O     O_R   0.180760 0.493330 0.302620 -0.504138
O8    O     O_R   0.819240 0.493330 0.697380 -0.504875
O9    O     O_3   0.668770 0.168760 0.250420 -0.254451
O10   O     O_3   0.331230 0.168760 0.749580 -0.253387
O11   O     O_3   0.168770 0.668760 0.250420 -0.254443
O12   O     O_R   0.230100 0.064540 0.803940 -0.509868
O13   O     O_3   0.831230 0.668760 0.749580 -0.253366
O14   O     O_R   0.750800 0.274080 0.199250 -0.504773
O15   O     O_R   0.249200 0.274080 0.800750 -0.504747
O16   O     O_R   0.250800 0.774080 0.199250 -0.504689
O17   O     O_R   0.749200 0.774080 0.800750 -0.504751
O18   O     O_R   0.669990 0.371670 0.194150 -0.519483
O19   O     O_R   0.330010 0.371670 0.805850 -0.523867
O20   O     O_R   0.169990 0.871670 0.194150 -0.519535
O21   O     O_R   0.830010 0.871670 0.805850 -0.523855
O22   O     O_R   0.574600 0.238480 0.197800 -0.502622
O23   O     O_R   0.269900 0.564540 0.196060 -0.508375
O24   O     O_R   0.425400 0.238480 0.802200 -0.508435
O25   O     O_R   0.074600 0.738480 0.197800 -0.502658
O26   O     O_R   0.925400 0.738480 0.802200 -0.508403
O27   O     O_R   0.566130 0.068680 0.194240 -0.520567
O28   O     O_R   0.433870 0.068680 0.805760 -0.514427
O29   O     O_R   0.066130 0.568680 0.194240 -0.520617
O30   O     O_R   0.933870 0.568680 0.805760 -0.514509
O31   O     O_R   0.680610 0.992490 0.199570 -0.500677
O32   O     O_R   0.319390 0.992490 0.800430 -0.494383
O33   O     O_R   0.180610 0.492490 0.199570 -0.500640
O34   O     O_R   0.730100 0.564540 0.803940 -0.509812
O35   O     O_R   0.819390 0.492490 0.800430 -0.494415
O36   O     O_R   0.770060 0.065440 0.307230 -0.520048
O37   O     O_R   0.229940 0.065440 0.692770 -0.519813
O38   O     O_R   0.270060 0.565440 0.307230 -0.520073
O39   O     O_R   0.729940 0.565440 0.692770 -0.519811
O40   O     O_R   0.750960 0.274920 0.302300 -0.511738
O41   O     O_R   0.249040 0.274920 0.697700 -0.511698
O42   O     O_R   0.250960 0.774920 0.302300 -0.511749
O43   O     O_R   0.749040 0.774920 0.697700 -0.511707
O44   O     O_R   0.670160 0.372580 0.305320 -0.480094
O45   O     O_R   0.574760 0.239320 0.300850 -0.430537
O46   O     O_R   0.329840 0.372580 0.694680 -0.480405
O47   O     O_R   0.170160 0.872580 0.305320 -0.480091
O48   O     O_R   0.829840 0.872580 0.694680 -0.480415
O49   O     O_3   0.563466 0.347350 0.377934 -0.672536
O50   O     O_3   0.439692 0.348435 0.623341 -0.672481
O51   O     O_3   0.063463 0.847352 0.377933 -0.672531
O52   O     O_3   0.939690 0.848434 0.623341 -0.672485
O53   O     O_3   0.857521 0.929379 0.467866 -0.726887
O54   O     O_3   0.142575 0.927661 0.532111 -0.728322
O55   O     O_3   0.357520 0.429382 0.467866 -0.726890
O56   O     O_R   0.425240 0.239320 0.699150 -0.429858
O57   O     O_3   0.642576 0.427664 0.532109 -0.728322
O58   O     O_R   0.074760 0.739320 0.300850 -0.430524
O59   O     O_R   0.925240 0.739320 0.699150 -0.429868
O60   O     O_R   0.566290 0.069580 0.305400 -0.538312

loop_
_geom_bond_atom_site_label_1
_geom_bond_atom_site_label_2
_ccdc_geom_bond_type
C95   C99   A    
Cr12  O9    S    
C51   C55   A    
Cr9   O46   S    
C135  H45   S    
C67   O58   A    
C128  C146  A    
C138  C142  A    
C129  C147  A    
C40   O41   A    
C158  O50   S    
C69   C156  S    
C116  H4    S    
C9    C14   A    
C137  C150  A    
C96   C123  A    
C25   C29   A    
C135  C148  A    
C97   C124  A    
C3    C173  A    
C72   O7    A    
C3    H11   S    
C13   C57   A    
C41   O42   A    
C106  H82   S    
C19   H42   S    
C69   O59   A    
C8    C12   A    
Cr7   O43   S    
C39   C64   S    
Cr6   O23   S    
C15   H25   S    
C80   C87   A    
Cr4   O8    S    
C126  H71   S    
C137  C141  A    
C68   C90   A    
C115  C124  A    
C25   C60   S    
C100  O20   A    
C36   H28   S    
Cr10  O58   S    
C126  C130  A    
C37   C45   A    
C11   C16   A    
C51   H52   S    
C2    H58   S    
C169  O34   A    
C160  C164  A    
C42   C61   S    
C76   C155  A    
C1    C151  S    
C10   C72   S    
C15   C19   A    
C1    O14   A    
C138  H78   S    
C39   O44   A    
C74   C78   A    
C88   C90   A    
Cr5   O12   S    
Cr6   O11   S    
C27   O54   S    
C127  C145  A    
C110  C146  S    
Cr8   O22   S    
C123  H6    S    
C38   C60   A    
C130  H75   S    
C36   C44   A    
C43   H31   S    
Cr6   O42   S    
C10   C15   A    
C14   H24   S    
Cr7   O17   S    
C81   C86   A    
C79   C87   A    
C66   C153  S    
H91   O55   S    
C124  H7    S    
Cr3   O7    S    
C48   H49   S    
Cr10  O25   S    
C46   C92   A    
C119  C155  S    
C115  H3    S    
C92   H62   S    
C83   H36   S    
C89   O15   A    
C153  C158  A    
C157  C161  A    
C48   C61   A    
C12   C17   A    
C168  O33   A    
C4    H15   S    
Br2   C140  S    
Cr6   O16   S    
C93   C94   A    
C167  O12   A    
C42   O43   A    
C28   C32   A    
Cr1   O9    S    
C9    C31   A    
C10   C32   A    
C75   C80   A    
C161  H18   S    
C97   C168  S    
C117  C133  S    
C170  C171  S    
C11   C33   A    
C128  H73   S    
C135  C139  A    
C9    C71   S    
Cr12  O5    S    
C100  C149  S    
C6    C154  A    
C141  C146  A    
C5    C175  A    
C128  C132  A    
C41   O47   A    
Cr5   O41   S    
C26   O53   S    
C118  O24   A    
C70   O36   A    
C81   C88   A    
C65   C152  S    
C26   C30   A    
C116  C125  A    
Cr8   O45   S    
Cr9   O24   S    
C44   H32   S    
Cr7   O39   S    
C161  C170  A    
C17   H40   S    
C112  C116  A    
H85   O50   S    
C70   O5    A    
C100  O16   A    
C42   O48   A    
C73   O39   A    
C98   C103  A    
C2    C46   A    
C12   H22   S    
C35   C91   A    
C133  C166  A    
C107  C112  A    
C154  C159  A    
C34   C56   A    
C21   C56   S    
C152  C157  A    
Br3   C141  S    
C101  H68   S    
C131  H76   S    
C99   H66   S    
C114  C123  A    
C45   H33   S    
C176  H13   S    
C74   C133  A    
C97   C102  A    
C17   C21   A    
Cr8   O18   S    
C14   C18   A    
C103  C107  A    
C34   H27   S    
C77   C82   A    
C39   O40   A    
C66   O56   A    
C75   H1    S    
C108  C143  S    
C50   H51   S    
C55   H48   S    
C69   O4    A    
C11   C73   S    
C78   C84   A    
C71   O37   A    
C13   C155  A    
C37   H29   S    
C142  C147  A    
C46   C87   A    
C172  C176  A    
H90   O54   S    
C32   H55   S    
C52   H44   S    
C40   C63   S    
Cr2   O32   S    
C76   H34   S    
C38   H30   S    
C113  C121  A    
C112  C147  S    
C54   H47   S    
C134  C151  A    
C83   C84   A    
C8    C70   S    
Cr3   O11   S    
C73   O8    A    
C51   C64   A    
C24   C68   A    
C98   C169  S    
C40   O46   A    
C120  C144  S    
C157  O49   S    
C162  C171  A    
C65   O60   A    
C165  O1    A    
C156  C160  A    
Cr4   O30   S    
C163  H20   S    
C5    H14   S    
C50   C54   A    
C108  C113  A    
C164  C173  A    
C20   C25   A    
C101  C105  A    
C158  C162  A    
C175  H9    S    
C119  O29   A    
C98   C125  A    
C120  O26   A    
C132  H77   S    
C85   H38   S    
C170  C174  A    
Cr1   O1    S    
C57   C88   A    
C136  C149  A    
Cr3   O3    S    
C84   H37   S    
C126  C143  A    
C129  C134  A    
C136  H56   S    
C111  O21   A    
Cr2   O10   S    
C71   O6    A    
C7    C156  A    
C134  H79   S    
C24   C144  A    
C129  H74   S    
C2    C122  A    
C49   C53   A    
C29   C33   A    
C104  C108  A    
C3    C7    A    
C24   H60   S    
C76   C81   A    
C162  H19   S    
C18   H41   S    
C132  C150  A    
Cr9   O19   S    
C5    C153  A    
C117  O27   A    
C77   C144  A    
Cr10  O20   S    
C30   H53   S    
C118  O28   A    
C137  H67   S    
C119  O25   A    
C120  O30   A    
C23   C59   S    
Cr1   O14   S    
C47   H35   S    
C27   C31   A    
C8    C30   A    
Cr3   O33   S    
Cr9   O10   S    
C159  O51   S    
C21   C26   A    
C67   C154  S    
C29   O57   S    
C31   H54   S    
C23   C28   A    
C16   H26   S    
C169  O35   A    
C57   C93   A    
C136  C140  A    
C82   C85   A    
Cr11  O21   S    
C6    C176  A    
C35   C79   A    
C110  C115  A    
C168  O23   A    
C103  H70   S    
C113  H89   S    
C114  H2    S    
C52   C56   A    
C78   C79   A    
C18   C22   A    
H92   O57   S    
Cr11  O59   S    
C85   C86   A    
C105  H81   S    
Cr5   O37   S    
C117  O22   A    
C67   O3    A    
C91   C92   A    
C80   C83   A    
C94   H64   S    
C93   H65   S    
C53   C58   A    
C95   C121  A    
C68   C94   A    
C139  C143  A    
C13   H61   S    
C96   C101  A    
H84   O49   S    
C89   C150  S    
C74   H12   S    
H86   O51   S    
C35   C166  A    
C127  C131  A    
Cr11  O13   S    
C77   H23   S    
C36   C58   A    
C28   O55   S    
C82   C90   A    
Cr12  O60   S    
C16   C20   A    
C66   O2    A    
C111  C148  S    
C99   C104  A    
C19   C23   A    
C138  C151  A    
C1    O18   A    
C53   H46   S    
C105  C109  A    
C38   C47   A    
Cr10  O11   S    
C130  C148  A    
C22   C27   A    
Cr4   O4    S    
Cr11  O26   S    
C96   C167  S    
Cr1   O36   S    
Cr12  O31   S    
Cr11  O48   S    
Cr8   O44   S    
C109  C145  S    
C49   H50   S    
Cr1   O40   S    
C171  C175  A    
C50   C63   A    
Cr6   O38   S    
C102  H69   S    
Cr5   O15   S    
C164  H21   S    
C118  C122  S    
C159  C163  A    
H88   O53   S    
C140  C145  A    
Br1   C139  S    
C4    C174  A    
Cr4   O13   S    
Cr2   O2    S    
C6    H17   S    
Br4   C142  S    
C111  O17   A    
Cr2   O6    S    
C49   C62   A    
C34   C43   A    
C172  C173  S    
C75   C122  A    
C107  H83   S    
C174  H10   S    
H87   O52   S    
C86   H39   S    
C7    H16   S    
C91   H63   S    
C165  O31   A    
C127  H72   S    
C160  O52   S    
C54   C59   A    
C106  C110  A    
C45   C63   A    
Cr12  O27   S    
C89   O19   A    
Cr8   O9    S    
C65   O45   A    
C95   C165  S    
C131  C149  A    
C104  H80   S    
C44   C62   A    
C22   C58   S    
Cr4   O35   S    
C20   H43   S    
Cr7   O13   S    
C72   O38   A    
C167  O32   A    
C33   H57   S    
C166  H59   S    
Cr2   O28   S    
C47   C64   A    
Cr3   O29   S    
C4    C152  A    
Cr10  O47   S    
C125  H8    S    
C121  H5    S    
C109  C114  A    
C55   C60   A    
C102  C106  A    
C41   C62   S    
C37   C59   A    
Cr7   O34   S    
Cr5   O10   S    
C43   C61   A    
C48   C52   A    
C163  C172  A    
Cr9   O56   S    
