data_mof_unit_49421.cif
_audit_creation_date              2012-12-10T19:34:58-0500
_audit_creation_method            fapswitch 2.2
_symmetry_space_group_name_H-M    P1
_symmetry_Int_Tables_number       1
_space_group_crystal_system       triclinic
_cell_length_a                    11.163149
_cell_length_b                    15.897522
_cell_length_c                    17.022318
_cell_angle_alpha                 96.296579
_cell_angle_beta                  99.946573
_cell_angle_gamma                 92.622438
_cell_volume                      2951.06874302

loop_
_atom_site_label
_atom_site_type_symbol
_atom_type_description
_atom_site_fract_x
_atom_site_fract_y
_atom_site_fract_z
_atom_type_partial_charge
C1    C     C_R   0.513771 0.489688 0.350292 0.827895
C2    C     C_R   0.486230 0.510312 0.649708 0.827892
C3    C     C_R   0.536112 0.486416 0.265887 -0.109596
C4    C     C_R   0.463893 0.513585 0.734114 -0.109597
C5    C     C_R   0.560194 0.563157 0.233917 0.094889
C6    C     C_R   0.439826 0.436843 0.766088 0.094895
C7    C     C_R   0.523917 0.567173 0.150764 0.162675
C8    C     C_R   0.476107 0.432833 0.849242 0.162672
C9    C     C_R   0.487172 0.491109 0.099382 0.293229
C10   C     C_R   0.512840 0.508902 0.900620 0.293231
C11   C     C_R   0.494230 0.413564 0.130395 -0.245278
C12   C     C_R   0.505765 0.586444 0.869603 -0.245273
C13   C     C_R   0.524879 0.409996 0.213041 0.114855
C14   C     C_R   0.475113 0.590006 0.786956 0.114851
C15   C     C_R   0.445050 0.750205 0.449126 0.167482
C16   C     C_R   0.554951 0.249794 0.550873 0.167488
C17   C     C_R   0.441551 0.839909 0.453207 0.351782
C18   C     C_R   0.558442 0.160089 0.546794 0.351776
C19   C     C_R   0.501999 0.892058 0.522512 0.172709
C20   C     C_R   0.497987 0.107941 0.477492 0.172699
C21   C     C_R   0.560977 0.852556 0.587093 -0.015796
C22   C     C_R   0.439009 0.147443 0.412911 -0.015791
C23   C     C_R   0.260124 0.499864 0.493136 0.770591
C24   C     C_R   0.739876 0.500136 0.506864 0.770586
C25   C     C_R   0.574511 0.763469 0.577339 0.267195
C26   C     C_R   0.425482 0.236531 0.422663 0.267198
C27   C     C_R   0.086402 0.349137 0.435323 -0.281285
C28   C     C_R   0.913599 0.650861 0.564681 -0.281281
C29   C     C_R   0.022665 0.270544 0.430046 0.544417
C30   C     C_R   0.977338 0.729455 0.569961 0.544418
C31   C     C_R   0.912263 0.266351 0.456954 0.114895
C32   C     C_R   0.087740 0.733648 0.543053 0.114889
C33   C     C_R   0.872607 0.339927 0.493777 -0.240204
C34   C     C_R   0.127394 0.660073 0.506226 -0.240203
C35   C     C_R   0.931482 0.421293 0.494194 0.049836
C36   C     C_R   0.068518 0.578707 0.505807 0.049834
C37   C     C_R   0.048556 0.424161 0.472862 0.005754
C38   C     C_R   0.951445 0.575839 0.527139 0.005752
C39   C     C_R   0.876763 0.498642 0.513557 -0.151051
C40   C     C_R   0.123237 0.501358 0.486443 -0.151053
Cu1   Cu    Cu3+1 0.493970 0.415220 0.496180 0.914540
Cu2   Cu    Cu3+1 0.506030 0.584780 0.503820 0.914538
H1    H     H_    0.160549 0.352112 0.404533 0.163385
H2    H     H_    0.839451 0.647886 0.595471 0.163383
H3    H     H_    0.799087 0.330047 0.525036 0.189456
H4    H     H_    0.200913 0.669955 0.474967 0.189450
H5    H     H_    0.480514 0.355414 0.089295 0.162117
H6    H     H_    0.519472 0.644595 0.910701 0.162115
N1    N     N_2   0.455316 0.490107 0.015310 -0.234741
N2    N     N_2   0.544696 0.509908 0.984692 -0.234743
N3    N     N_R   0.515100 0.712130 0.509560 -0.207658
N4    N     N_R   0.484900 0.287870 0.490440 -0.207660
N5    N     N_2   0.499215 0.983031 0.531387 -0.168668
N6    N     N_2   0.500769 0.016968 0.468617 -0.168666
O1    O     O_R   0.494360 0.420530 0.382500 -0.581722
O2    O     O_R   0.505640 0.579470 0.617500 -0.581722
O3    O     O_R   0.504550 0.563720 0.388950 -0.575821
O4    O     O_R   0.495450 0.436280 0.611050 -0.575825
O5    O     O_R   0.314560 0.428400 0.496770 -0.586576
O6    O     O_R   0.685440 0.571600 0.503230 -0.586577
O7    O     O_R   0.324750 0.571590 0.503220 -0.594252
O8    O     O_R   0.675250 0.428410 0.496780 -0.594252
C41   C     C_3   0.166627 0.815129 0.558170 -0.828502
H7    H     H_    0.183396 0.838437 0.623288 0.257098
H8    H     H_    0.256618 0.805795 0.540675 0.212223
H9    H     H_    0.121510 0.864195 0.524440 0.218730
C42   C     C_3   0.833378 0.184870 0.441842 -0.828505
H10   H     H_    0.816604 0.161560 0.376724 0.257094
H11   H     H_    0.878499 0.135805 0.475571 0.218731
H12   H     H_    0.743389 0.194203 0.459340 0.212223
O9    O     O_3   0.617560 0.124516 0.612647 -0.557724
C43   C     C_3   0.731639 0.097501 0.598301 -0.324607
H13   H     H_    0.724367 0.054233 0.541571 0.179320
H14   H     H_    0.771242 0.062032 0.648061 0.191012
H15   H     H_    0.796807 0.152155 0.598147 0.153983
O10   O     O_3   0.382436 0.875484 0.387355 -0.557728
C44   C     C_3   0.268348 0.902485 0.401697 -0.324659
H16   H     H_    0.228726 0.937934 0.351925 0.191019
H17   H     H_    0.275614 0.945769 0.458417 0.179338
H18   H     H_    0.203200 0.847825 0.401868 0.153985
C45   C     C_3   0.610645 0.905098 0.667126 -0.800956
H19   H     H_    0.573956 0.877359 0.715868 0.224976
H20   H     H_    0.711597 0.906732 0.679928 0.234060
H21   H     H_    0.584039 0.971439 0.669910 0.281089
C46   C     C_3   0.389333 0.094899 0.332879 -0.800951
H22   H     H_    0.426022 0.122634 0.284135 0.224975
H23   H     H_    0.415934 0.028557 0.330096 0.281095
H24   H     H_    0.288381 0.093269 0.320080 0.234068
C47   C     C_3   0.657012 0.727942 0.643281 -0.758011
H25   H     H_    0.746998 0.763326 0.656819 0.242890
H26   H     H_    0.619298 0.733851 0.698864 0.217557
H27   H     H_    0.673206 0.661808 0.628018 0.254631
C48   C     C_3   0.342983 0.272058 0.356720 -0.758016
H28   H     H_    0.252995 0.236677 0.343185 0.242891
H29   H     H_    0.326793 0.338194 0.371982 0.254632
H30   H     H_    0.380695 0.266144 0.301137 0.217553
O11   O     O_3   0.067307 0.198096 0.396573 -0.591290
C49   C     C_3   0.140852 0.162365 0.458909 -0.349609
H31   H     H_    0.178091 0.104424 0.432773 0.192697
H32   H     H_    0.087731 0.143031 0.504229 0.160165
H33   H     H_    0.218927 0.206948 0.489384 0.176661
O12   O     O_3   0.932698 0.801901 0.603439 -0.591287
C50   C     C_3   0.859154 0.837638 0.541107 -0.349616
H34   H     H_    0.912276 0.856977 0.495789 0.160168
H35   H     H_    0.821915 0.895576 0.567247 0.192693
H36   H     H_    0.781079 0.793056 0.510628 0.176661
C51   C     C_3   0.358661 0.364447 0.715596 -0.797961
H37   H     H_    0.318485 0.380261 0.655211 0.250228
H38   H     H_    0.407660 0.305839 0.709659 0.231783
H39   H     H_    0.279898 0.350830 0.745164 0.221164
C52   C     C_3   0.641372 0.635545 0.284413 -0.797984
H40   H     H_    0.681534 0.619728 0.344799 0.250233
H41   H     H_    0.720144 0.649151 0.254848 0.221169
H42   H     H_    0.592389 0.694161 0.290347 0.231778
C53   C     C_3   0.475290 0.347991 0.881722 -0.822128
H43   H     H_    0.524649 0.351544 0.944458 0.243053
H44   H     H_    0.380038 0.323137 0.879351 0.233974
H45   H     H_    0.521884 0.302222 0.845233 0.227290
C54   C     C_3   0.524751 0.652018 0.118289 -0.822123
H46   H     H_    0.475395 0.648472 0.055552 0.243052
H47   H     H_    0.478162 0.697790 0.154779 0.227288
H48   H     H_    0.620007 0.676866 0.120663 0.233976
C55   C     C_3   0.567636 0.326989 0.238636 -0.826659
H49   H     H_    0.497933 0.274789 0.213121 0.215955
H50   H     H_    0.650509 0.312632 0.213092 0.231290
H51   H     H_    0.594124 0.327308 0.304279 0.265944
C56   C     C_3   0.432343 0.673009 0.761357 -0.826654
H52   H     H_    0.349467 0.687360 0.786900 0.231291
H53   H     H_    0.502037 0.725214 0.786869 0.215955
H54   H     H_    0.405853 0.672684 0.695713 0.265944
C57   C     C_3   0.634948 0.300706 0.622899 -0.697180
H55   H     H_    0.666645 0.363651 0.611532 0.239009
H56   H     H_    0.588275 0.305881 0.675137 0.226659
H57   H     H_    0.720820 0.270471 0.641328 0.196153
C58   C     C_3   0.365070 0.699291 0.377094 -0.697165
H58   H     H_    0.333333 0.636356 0.388470 0.238976
H59   H     H_    0.279217 0.729537 0.358633 0.196184
H60   H     H_    0.411779 0.694089 0.324873 0.226673

loop_
_geom_bond_atom_site_label_1
_geom_bond_atom_site_label_2
_ccdc_geom_bond_type
C58   H60   S    
C41   H8    S    
C48   H28   S    
C27   C29   A    
C33   H3    S    
Cu1   Cu2   S    
C11   H5    S    
C52   H40   S    
C12   H6    S    
C57   H57   S    
C56   H53   S    
C45   H19   S    
C58   H58   S    
C52   H41   S    
C44   H16   S    
C23   O5    A    
C35   C37   A    
Cu1   O4    S    
C37   C40   A    
C1    O3    A    
C38   C39   A    
C13   C55   S    
C46   H24   S    
C15   C58   S    
C53   H43   S    
C24   C39   S    
C58   H59   S    
C22   C46   S    
C16   C57   S    
Cu1   O1    S    
C8    C53   S    
Cu2   O2    S    
N5    N6    D    
C53   H44   S    
C17   O10   S    
C51   H37   S    
C31   C33   A    
C34   H4    S    
C15   N3    A    
C47   H26   S    
Cu1   N4    S    
C18   C20   A    
C3    C13   A    
Cu2   N3    S    
C55   H49   S    
C19   N5    S    
C26   C48   S    
C44   H17   S    
C41   H9    S    
C48   H29   S    
C51   H38   S    
C52   H42   S    
Cu1   O8    S    
C43   H15   S    
Cu2   O3    S    
C45   H20   S    
O11   C49   S    
C54   H47   S    
C46   H23   S    
C42   H10   S    
C7    C54   S    
C36   C40   A    
C9    N1    S    
O10   C44   S    
Cu1   O5    S    
C43   H14   S    
Cu2   O6    S    
C5    C7    A    
C17   C19   A    
C55   H51   S    
C6    C8    A    
C5    C52   S    
C57   H56   S    
C46   H22   S    
C28   H2    S    
C14   C56   S    
C42   H11   S    
C32   C34   A    
C2    C4    S    
C25   N3    A    
C26   N4    A    
C28   C38   A    
C24   O6    A    
C53   H45   S    
C30   O12   S    
C6    C51   S    
C50   H35   S    
C16   C18   A    
C47   H27   S    
C9    C11   A    
Cu2   O7    S    
C10   C12   A    
C20   N6    S    
C21   C45   S    
N1    N2    D    
C48   H30   S    
C49   H32   S    
C51   H39   S    
C4    C6    A    
C20   C22   A    
C57   H55   S    
C10   N2    S    
C45   H21   S    
C54   H48   S    
C18   O9    S    
C7    C9    A    
C21   C25   A    
C24   O8    A    
C19   C21   A    
C16   N4    A    
C32   C41   S    
C12   C14   A    
C43   H13   S    
C3    C5    A    
C54   H46   S    
C2    O4    A    
C15   C17   A    
C56   H52   S    
C49   H33   S    
C25   C47   S    
C29   O11   S    
C42   H12   S    
C28   C30   A    
C1    O1    A    
C56   H54   S    
O9    C43   S    
C29   C31   A    
C2    O2    A    
C30   C32   A    
C11   C13   A    
C44   H18   S    
C27   C37   A    
C35   C39   A    
C36   C38   A    
C33   C35   A    
C50   H36   S    
C34   C36   A    
C4    C14   A    
O12   C50   S    
C55   H50   S    
C31   C42   S    
C41   H7    S    
C27   H1    S    
C23   O7    A    
C8    C10   A    
C49   H31   S    
C22   C26   A    
C50   H34   S    
C1    C3    S    
C47   H25   S    
C23   C40   S    
