data_mof_unit_13594.cif
_audit_creation_date              2012-10-26T19:57:55-0400
_audit_creation_method            fapswitch 2.2
_symmetry_space_group_name_H-M    P1
_symmetry_Int_Tables_number       1
_space_group_crystal_system       triclinic
_cell_length_a                    7.612204
_cell_length_b                    8.714357
_cell_length_c                    12.914415
_cell_angle_alpha                 85.577565
_cell_angle_beta                  77.828653
_cell_angle_gamma                 102.395483
_cell_volume                      811.159836144

loop_
_atom_site_label
_atom_site_type_symbol
_atom_type_description
_atom_site_fract_x
_atom_site_fract_y
_atom_site_fract_z
_atom_type_partial_charge
C1    C     C_R   0.453393 0.200411 0.506527 0.552079
C2    C     C_R   0.648335 0.659405 0.126529 -0.171150
C3    C     C_R   0.538774 0.606107 0.862486 0.008909
C4    C     C_R   0.462309 0.389913 0.137794 0.008178
C5    C     C_R   0.546224 0.574181 0.970586 0.048174
C6    C     C_R   0.454164 0.422264 0.029746 0.048697
C7    C     C_2   0.430435 0.031252 0.522220 0.220135
C8    C     C_2   0.570324 0.968946 0.475986 0.215368
C9    C     C_3   0.376140 0.225784 0.201821 -0.272370
C10   C     C_3   0.493977 0.108118 0.168907 -0.442888
C11   C     C_3   0.622017 0.770024 0.798501 -0.276839
C12   C     C_R   0.546951 0.799692 0.492558 0.554726
C13   C     C_3   0.831045 0.799867 0.755342 -0.399188
C14   C     C_3   0.914010 0.312293 0.594940 -0.059962
C15   C     C_3   0.962180 0.281050 0.702067 -0.411035
C16   C     C_3   0.082705 0.657027 0.380185 -0.045704
C17   C     C_3   0.082554 0.591292 0.273441 -0.369769
C18   C     C_R   0.464818 0.495748 0.700813 0.530691
C19   C     C_R   0.534982 0.502585 0.299363 0.529388
C20   C     C_R   0.555688 0.513255 0.185203 0.018712
C21   C     C_R   0.443858 0.483779 0.815209 0.023118
C22   C     C_R   0.352593 0.307962 0.980066 -0.144546
C23   C     C_R   0.643794 0.690007 0.020897 -0.147196
C24   C     C_R   0.348437 0.338576 0.874268 -0.163648
Cu1   Cu    Cu3+1 0.686350 0.517570 0.488220 0.930675
Cu2   Cu    Cu3+1 0.313650 0.482430 0.511780 0.931873
H1    H     H_    0.717734 0.753609 0.164394 0.102373
H2    H     H_    0.866231 0.709011 0.704397 0.216515
H3    H     H_    0.881147 0.917376 0.706052 0.131994
H4    H     H_    0.904767 0.799313 0.820725 0.140731
H5    H     H_    0.558122 0.785848 0.729860 0.165504
H6    H     H_    0.588713 0.863782 0.847457 0.121196
H7    H     H_    0.088474 0.235111 0.692498 0.163274
H8    H     H_    0.976184 0.389730 0.742287 0.177670
H9    H     H_    0.848738 0.188074 0.755076 0.080577
H10   H     H_    0.771453 0.317810 0.618591 0.187167
H11   H     H_    0.922891 0.209116 0.550415 0.164015
H12   H     H_    0.276567 0.245303 0.836795 0.099467
H13   H     H_    0.987110 0.637429 0.232281 0.139139
H14   H     H_    0.221808 0.632590 0.218799 0.110048
H15   H     H_    0.045086 0.459632 0.284546 0.191947
H16   H     H_    0.224710 0.697658 0.384765 0.176566
H17   H     H_    0.029294 0.765848 0.378560 0.115175
H18   H     H_    0.196195 0.005002 0.626108 0.309693
H19   H     H_    0.808744 0.995706 0.374777 0.315797
H20   H     H_    0.277656 0.192188 0.020767 0.113984
H21   H     H_    0.714687 0.807103 0.980938 0.113273
H22   H     H_    0.633212 0.148985 0.184907 0.178164
H23   H     H_    0.427172 0.990280 0.216222 0.129521
H24   H     H_    0.510160 0.094795 0.082914 0.145369
H25   H     H_    0.362148 0.227156 0.288735 0.181055
H26   H     H_    0.232351 0.181241 0.193824 0.129175
N1    N     N_2   0.033570 0.455950 0.529530 -0.120312
N2    N     N_2   0.966430 0.544050 0.470470 -0.124632
O1    O     O_R   0.621060 0.286250 0.492350 -0.483912
O2    O     O_3   0.729075 0.063515 0.407774 -0.742341
O3    O     O_R   0.378940 0.713750 0.507650 -0.471000
O4    O     O_R   0.306310 0.256580 0.512240 -0.537722
O5    O     O_R   0.693690 0.743420 0.487760 -0.529411
O6    O     O_R   0.631800 0.512400 0.642670 -0.532638
O7    O     O_R   0.368200 0.487600 0.357330 -0.531058
O8    O     O_R   0.317060 0.482730 0.662570 -0.506127
O9    O     O_R   0.682940 0.517270 0.337430 -0.504059
O10   O     O_3   0.271955 0.936594 0.590351 -0.732605

loop_
_geom_bond_atom_site_label_1
_geom_bond_atom_site_label_2
_ccdc_geom_bond_type
C24   H12   S    
C4    C9    S    
C13   H2    S    
N1    N2    D    
C2    H1    S    
Cu1   O6    S    
C18   C21   S    
Cu2   O4    S    
C9    C10   S    
C15   H8    S    
C19   C20   S    
C5    C23   A    
C8    C12   S    
C8    O2    S    
Cu2   O8    S    
C11   H5    S    
C7    C8    D    
C10   H24   S    
C1    O4    A    
H18   O10   S    
C14   H11   S    
C14   H10   S    
C11   C13   S    
C16   H17   S    
C9    H26   S    
C19   O7    A    
C4    C20   A    
C12   O3    A    
C15   H9    S    
C22   H20   S    
Cu2   O7    S    
C11   H6    S    
C1    O1    A    
C22   C24   A    
C12   O5    A    
C10   H22   S    
C5    C6    A    
Cu2   O3    S    
C16   N2    S    
C7    O10   S    
C3    C21   A    
C17   H15   S    
C23   H21   S    
C2    C20   A    
C6    C22   A    
Cu2   N1    S    
C16   H16   S    
C13   H4    S    
C14   N1    S    
C3    C11   S    
Cu1   N2    S    
C18   O6    A    
C4    C6    A    
Cu1   O9    S    
C21   C24   A    
C13   H3    S    
C2    C23   A    
C17   H13   S    
C14   C15   S    
C18   O8    A    
Cu1   O5    S    
Cu1   Cu2   S    
C1    C7    S    
C10   H23   S    
C15   H7    S    
Cu1   O1    S    
H19   O2    S    
C19   O9    A    
C16   C17   S    
C3    C5    A    
C17   H14   S    
C9    H25   S    
