data_mof_unit_11833.cif
_audit_creation_date              2012-12-10T18:50:45-0500
_audit_creation_method            fapswitch 2.2
_symmetry_space_group_name_H-M    P1
_symmetry_Int_Tables_number       1
_space_group_crystal_system       triclinic
_cell_length_a                    10.579088
_cell_length_b                    10.035641
_cell_length_c                    15.784457
_cell_angle_alpha                 90.144984
_cell_angle_beta                  93.066841
_cell_angle_gamma                 90.120758
_cell_volume                      1673.39345063

loop_
_atom_site_label
_atom_site_type_symbol
_atom_type_description
_atom_site_fract_x
_atom_site_fract_y
_atom_site_fract_z
_atom_type_partial_charge
C1    C     C_R   0.264263 0.500078 0.515855 0.930495
C2    C     C_3   0.612147 0.468662 0.955976 0.583036
C3    C     C_3   0.603201 0.473773 0.052999 -0.498478
C4    C     C_1   0.475220 0.495602 0.824283 0.222675
C5    C     C_1   0.477833 0.502320 0.174810 0.161562
C6    C     C_1   0.488860 0.501037 0.250048 -0.006733
C7    C     C_R   0.067801 0.379671 0.547283 0.360112
C8    C     C_R   0.068949 0.621850 0.549856 0.408708
C9    C     C_R   0.940065 0.381124 0.525885 -0.271736
C10   C     C_R   0.939912 0.621811 0.531195 -0.194239
C11   C     C_R   0.876429 0.501538 0.515076 -0.158896
C12   C     C_R   0.135203 0.500462 0.543222 -0.277834
C13   C     C_R   0.576875 0.072388 0.556177 -0.008426
C14   C     C_R   0.568774 0.930139 0.561237 -0.094399
C15   C     C_R   0.498747 0.500064 0.338801 0.880831
C16   C     C_R   0.436897 0.927709 0.436246 -0.003453
C17   C     C_R   0.432296 0.070982 0.438236 -0.009087
C18   C     C_R   0.740977 0.500368 0.501618 0.933917
C19   C     C_R   0.498095 0.499638 0.661314 0.904918
C20   C     C_3   0.422206 0.651377 0.048390 -0.354090
C21   C     C_3   0.379323 0.373557 0.051096 -0.320286
C22   C     C_3   0.361948 0.387377 0.947542 0.029552
C23   C     C_3   0.419266 0.652311 0.943108 0.038432
C24   C     C_1   0.485710 0.497155 0.749477 0.118729
C25   C     C_3   0.465718 0.501311 0.082549 -0.049623
C26   C     C_3   0.467620 0.500692 0.915816 -0.276295
H1    H     H_    0.669540 0.546943 0.081629 0.224339
H2    H     H_    0.649797 0.386304 0.081427 0.255280
H3    H     H_    0.890127 0.287909 0.520188 0.218590
H4    H     H_    0.889465 0.715515 0.530955 0.229436
N1    N     N_R   0.499970 0.857200 0.499980 -0.153113
N2    N     N_R   0.499970 0.142800 0.499980 -0.155048
O1    O     O_R   0.316750 0.614620 0.499990 -0.548823
O2    O     O_R   0.316750 0.385380 0.499990 -0.540355
O3    O     O_R   0.499990 0.614720 0.377140 -0.614846
O4    O     O_R   0.499990 0.385280 0.377140 -0.610724
O5    O     O_R   0.683220 0.614710 0.500000 -0.586617
O6    O     O_R   0.683220 0.385290 0.500000 -0.649439
O7    O     O_R   0.499980 0.614620 0.622860 -0.589893
O8    O     O_R   0.499980 0.385380 0.622860 -0.551867
Zn1   Zn    Zn3+2 0.499980 0.653120 0.500000 1.058682
Zn2   Zn    Zn3+2 0.499980 0.346880 0.500000 1.073483
C27   C     C_2   0.287377 0.683568 0.898847 0.988296
O9    O     O_2   0.268335 0.656224 0.823553 -0.559424
O10   O     O_R   0.195189 0.759803 0.936353 -0.711135
H5    H     H_    0.117275 0.775672 0.897440 0.397500
C28   C     C_2   0.224613 0.429574 0.918912 0.994925
O11   O     O_2   0.154493 0.484858 0.966994 -0.565447
O12   O     O_R   0.179413 0.410991 0.834328 -0.659988
H6    H     H_    0.089067 0.442719 0.823321 0.396043
C29   C     C_2   0.379934 0.855499 0.361913 0.991391
O13   O     O_2   0.434959 0.854238 0.295731 -0.592755
O14   O     O_R   0.264060 0.789979 0.366480 -0.735391
H7    H     H_    0.236203 0.744047 0.311286 0.346044
C30   C     C_2   0.362670 0.141585 0.368281 0.975983
O15   O     O_2   0.271014 0.210193 0.382040 -0.543730
O16   O     O_R   0.399120 0.124991 0.285333 -0.773564
H8    H     H_    0.338627 0.169722 0.242549 0.372232
C31   C     C_2   0.294732 0.694724 0.085044 0.971084
O17   O     O_2   0.223980 0.615415 0.115868 -0.576933
O18   O     O_R   0.259413 0.829593 0.086663 -0.663928
H9    H     H_    0.175753 0.845006 0.113624 0.368692
C32   C     C_2   0.253907 0.354443 0.096915 1.006201
O19   O     O_2   0.247134 0.384149 0.171791 -0.609597
O20   O     O_R   0.156472 0.275942 0.059152 -0.697792
H10   H     H_    0.082938 0.263221 0.097007 0.370643
C33   C     C_2   0.439314 0.239438 0.083297 1.036719
O21   O     O_2   0.385102 0.133991 0.066378 -0.483714
O22   O     O_R   0.537824 0.235471 0.146084 -0.796892
H11   H     H_    0.564337 0.141451 0.162243 0.402616
C34   C     C_2   0.512765 0.760237 0.089231 1.064930
O23   O     O_2   0.488934 0.878246 0.078107 -0.455602
O24   O     O_R   0.611927 0.730286 0.148273 -0.821097
H12   H     H_    0.658377 0.812250 0.171381 0.371421
S1    S     S_3+6 0.359090 0.223370 0.891851 0.159028
O25   O     O_2   0.366017 0.241010 0.797803 -0.178947
O26   O     O_2   0.460332 0.127302 0.919779 -0.142872
O27   O     O_3   0.218899 0.148782 0.907107 -0.429791
H13   H     H_    0.238934 0.060364 0.932060 0.436311
S2    S     S_3+6 0.498134 0.795725 0.888670 0.134390
O28   O     O_2   0.582734 0.887075 0.941071 -0.147381
O29   O     O_2   0.572233 0.744574 0.817613 -0.290779
O30   O     O_3   0.388710 0.898387 0.842028 -0.468103
H14   H     H_    0.429086 0.938142 0.792828 0.419270
S3    S     S_3+6 0.745296 0.581319 0.934454 0.114742
O31   O     O_2   0.763444 0.592214 0.840950 -0.203700
O32   O     O_2   0.735509 0.716083 0.973366 -0.257354
O33   O     O_3   0.881348 0.521472 0.980147 -0.428835
H15   H     H_    0.879497 0.542991 0.041328 0.365262
S4    S     S_3+6 0.678633 0.306079 0.921830 0.105522
O34   O     O_2   0.618291 0.260716 0.838653 -0.210312
O35   O     O_2   0.817619 0.312858 0.906873 -0.183791
O36   O     O_3   0.665950 0.187720 0.996150 -0.524757
H16   H     H_    0.721322 0.114112 0.978864 0.425367
S5    S     S_3+6 0.131162 0.229358 0.589878 0.138433
O37   O     O_2   0.259962 0.249114 0.632624 -0.195658
O38   O     O_2   0.044528 0.175995 0.654242 -0.185314
O39   O     O_3   0.139341 0.117737 0.511290 -0.458426
H17   H     H_    0.050379 0.101330 0.491135 0.377116
S6    S     S_3+6 0.138733 0.771027 0.590278 0.111301
O40   O     O_2   0.175659 0.855048 0.517312 -0.241755
O41   O     O_2   0.044943 0.846440 0.640142 -0.197990
O42   O     O_3   0.267487 0.738097 0.653533 -0.497804
H18   H     H_    0.312012 0.824629 0.660819 0.392884
C35   C     C_2   0.689103 0.137619 0.598290 0.985074
O43   O     O_2   0.794081 0.098793 0.581008 -0.632124
O44   O     O_R   0.677421 0.229690 0.663491 -0.688759
H19   H     H_    0.762370 0.263137 0.687780 0.374790
C36   C     C_2   0.640974 0.866675 0.633986 0.997073
O45   O     O_2   0.701324 0.765200 0.625019 -0.565553
O46   O     O_R   0.651572 0.933738 0.711870 -0.736858
H20   H     H_    0.721267 0.896454 0.751512 0.414095

loop_
_geom_bond_atom_site_label_1
_geom_bond_atom_site_label_2
_ccdc_geom_bond_type
C14   C36   S    
C30   O15   D    
C32   O20   S    
C11   C18   S    
O36   H16   S    
S5    O37   D    
O24   H12   S    
C13   N2    A    
O4    Zn2   S    
O46   H20   S    
O2    Zn2   S    
C16   C29   S    
C14   N1    A    
S1    O25   D    
O16   H8    S    
S5    O39   S    
C1    O1    A    
O7    Zn1   S    
S3    O31   D    
C16   N1    A    
C35   O44   S    
C3    H2    S    
C18   O5    A    
O6    Zn2   S    
C36   O46   S    
C5    C6    T    
C4    C24   T    
C20   C25   S    
C23   C27   S    
C2    S3    S    
C23   C26   S    
C2    S4    S    
C6    C15   S    
C8    S6    S    
C28   O11   D    
C16   C17   A    
O44   H19   S    
C20   C34   S    
C23   S2    S    
C17   C30   S    
C9    H3    S    
O8    Zn2   S    
C22   C28   S    
C31   O17   D    
C21   C22   S    
C21   C33   S    
O22   H11   S    
C1    C12   S    
C22   S1    S    
S2    O30   S    
C15   O3    A    
C1    O2    A    
S3    O32   D    
C7    C12   A    
C31   O18   S    
C29   O13   D    
C3    C25   S    
S2    O29   D    
C10   C11   A    
C34   O24   S    
O27   H13   S    
O10   H5    S    
S6    O42   S    
C33   O21   D    
C29   O14   S    
C27   O9    D    
C27   O10   S    
C10   H4    S    
S4    O35   D    
O30   H14   S    
C20   C23   S    
C8    C12   A    
S6    O41   D    
C2    C26   S    
C20   C31   S    
C9    C11   A    
C19   O7    A    
C5    C25   S    
C13   C35   S    
O20   H10   S    
C30   O16   S    
O12   H6    S    
C15   O4    A    
S4    O36   S    
S3    O33   S    
C7    C9    A    
C21   C25   S    
N1    Zn1   S    
S2    O28   D    
C4    C26   S    
S5    O38   D    
O14   H7    S    
C28   O12   S    
C7    S5    S    
C35   O43   D    
O1    Zn1   S    
C3    H1    S    
C2    C3    S    
C18   O6    A    
C34   O23   D    
C36   O45   D    
S4    O34   D    
S6    O40   D    
C19   C24   S    
O5    Zn1   S    
O18   H9    S    
O3    Zn1   S    
S1    O27   S    
C21   C32   S    
C19   O8    A    
C32   O19   D    
O33   H15   S    
C8    C10   A    
O39   H17   S    
C22   C26   S    
S1    O26   D    
O42   H18   S    
C17   N2    A    
N2    Zn2   S    
C33   O22   S    
C13   C14   A    
