data_mof_unit_63358.cif
_audit_creation_date              2012-12-10T18:09:12-0500
_audit_creation_method            fapswitch 2.2
_symmetry_space_group_name_H-M    P1
_symmetry_Int_Tables_number       1
_space_group_crystal_system       triclinic
_cell_length_a                    12.740305
_cell_length_b                    13.915377
_cell_length_c                    27.752739
_cell_angle_alpha                 90.211811
_cell_angle_beta                  92.354446
_cell_angle_gamma                 98.021234
_cell_volume                      4867.70522957

loop_
_atom_site_label
_atom_site_type_symbol
_atom_type_description
_atom_site_fract_x
_atom_site_fract_y
_atom_site_fract_z
_atom_type_partial_charge
C1    C     C_R   0.483493 0.315902 0.499465 0.831146
C2    C     C_R   0.516507 0.684098 0.500535 0.831146
C3    C     C_R   0.518410 0.512971 0.101822 -0.091587
C4    C     C_R   0.481590 0.487027 0.898177 -0.091587
C5    C     C_R   0.552352 0.435803 0.128297 -0.013743
C6    C     C_R   0.447646 0.564193 0.871703 -0.013743
C7    C     C_R   0.589893 0.360213 0.103995 -0.105727
C8    C     C_R   0.410104 0.639783 0.896005 -0.105727
C9    C     C_R   0.492138 0.594949 0.126436 -0.169132
C10   C     C_R   0.507863 0.405049 0.873564 -0.169131
C11   C     C_R   0.504775 0.503034 0.354389 -0.183119
C12   C     C_R   0.495225 0.496966 0.645611 -0.183122
C13   C     C_R   0.515823 0.412363 0.976013 -0.075530
C14   C     C_R   0.484177 0.587634 0.023987 -0.075530
C15   C     C_R   0.465639 0.576789 0.973270 0.097800
C16   C     C_R   0.534360 0.423207 0.026730 0.097800
C17   C     C_R   0.488851 0.492303 0.949292 0.053179
C18   C     C_R   0.511149 0.507694 0.050707 0.053179
C19   C     C_R   0.515574 0.322727 0.951089 0.182043
C20   C     C_R   0.484427 0.677271 0.048910 0.182043
C21   C     C_R   0.521400 0.320848 0.900505 0.291061
C22   C     C_R   0.478602 0.679150 0.099495 0.291060
C23   C     C_R   0.501110 0.499782 0.407315 0.912957
C24   C     C_R   0.498890 0.500218 0.592685 0.912960
C25   C     C_R   0.584526 0.356154 0.054002 -0.128136
C26   C     C_R   0.415472 0.643842 0.945998 -0.128136
C27   C     C_1   0.526099 0.787246 0.500951 -0.076986
C28   C     C_1   0.473901 0.212754 0.499049 -0.076986
C29   C     C_2   0.543625 0.977951 0.501750 0.197332
C30   C     C_2   0.456374 0.022049 0.498250 0.197331
C31   C     C_1   0.465345 0.125816 0.498665 0.083784
C32   C     C_1   0.534655 0.874184 0.501335 0.083784
C33   C     C_2   0.028410 0.473277 0.486380 -0.233903
C34   C     C_2   0.971590 0.526723 0.513620 -0.233904
C35   C     C_1   0.854583 0.519282 0.509810 0.294651
C36   C     C_1   0.145417 0.480718 0.490190 0.294651
C37   C     C_R   0.551559 0.437635 0.178658 0.589880
C38   C     C_R   0.448439 0.562362 0.821342 0.589878
C39   C     C_R   0.486576 0.590322 0.177314 0.677419
C40   C     C_R   0.513426 0.409677 0.822686 0.677420
C41   C     C_R   0.588895 0.570874 0.281946 0.380825
C42   C     C_R   0.411107 0.429123 0.718054 0.380825
C43   C     C_R   0.582585 0.569784 0.332903 0.241433
C44   C     C_R   0.417417 0.430214 0.667096 0.241440
C45   C     C_R   0.430653 0.441587 0.325123 0.184071
C46   C     C_R   0.569345 0.558414 0.674877 0.184070
C47   C     C_R   0.434264 0.447109 0.275121 -0.198891
C48   C     C_R   0.565735 0.552891 0.724879 -0.198888
C49   C     C_R   0.512463 0.511132 0.253533 0.219131
C50   C     C_R   0.487537 0.488867 0.746467 0.219128
Cu1   Cu    Cu3+1 0.395330 0.493960 0.496930 1.076374
Cu2   Cu    Cu3+1 0.604670 0.506040 0.503070 1.076374
H1    H     H_    0.013357 0.578035 0.539788 0.186346
H2    H     H_    0.986643 0.421965 0.460212 0.186346
H3    H     H_    0.377092 0.400059 0.252697 0.205634
H4    H     H_    0.622906 0.599943 0.747303 0.205634
H5    H     H_    0.624372 0.304135 0.123482 0.206300
H6    H     H_    0.375624 0.695860 0.876518 0.206300
H7    H     H_    0.622672 0.301121 0.037034 0.194198
H8    H     H_    0.377326 0.698875 0.962966 0.194198
N1    N     N_R   0.516480 0.512839 0.201910 -0.438630
N2    N     N_R   0.483520 0.487159 0.798090 -0.438630
N3    N     N_1   0.238040 0.484880 0.492320 -0.137063
N4    N     N_1   0.761960 0.515120 0.507680 -0.137063
O1    O     O_R   0.399110 0.356330 0.497030 -0.547958
O2    O     O_R   0.600890 0.643670 0.502970 -0.547958
O3    O     O_R   0.575890 0.366530 0.502210 -0.576134
O4    O     O_R   0.424110 0.633470 0.497790 -0.576134
O5    O     O_R   0.411620 0.494910 0.427670 -0.558431
O6    O     O_R   0.588380 0.505090 0.572330 -0.558431
O7    O     O_R   0.588400 0.505120 0.432860 -0.539158
O8    O     O_R   0.411600 0.494880 0.567140 -0.539159
O9    O     O_2   0.584798 0.364514 0.204312 -0.498595
O10   O     O_2   0.415198 0.635482 0.795688 -0.498596
O11   O     O_2   0.550205 0.339198 0.797671 -0.447247
O12   O     O_2   0.449801 0.660802 0.202329 -0.447248
Br1   Br    Br    0.325724 0.345356 0.351234 -0.405729
Br2   Br    Br    0.674271 0.654648 0.648766 -0.405729
O13   O     O_3   0.351809 0.365340 0.637622 -0.700233
H9    H     H_    0.329926 0.305456 0.655934 0.350978
O14   O     O_3   0.648194 0.634656 0.362378 -0.700234
H10   H     H_    0.670073 0.694541 0.344066 0.350976
O15   O     O_3   0.330863 0.372806 0.741217 -0.679847
H11   H     H_    0.267394 0.361059 0.719064 0.346077
O16   O     O_3   0.669140 0.627188 0.258782 -0.679846
H12   H     H_    0.732608 0.638938 0.280937 0.346079
Br3   Br    Br    0.536476 0.198062 0.870173 -0.246433
Br4   Br    Br    0.463527 0.801937 0.129826 -0.246434
Br5   Br    Br    0.473499 0.199545 0.982448 -0.346899
Br6   Br    Br    0.526501 0.800451 0.017551 -0.346899
Br7   Br    Br    0.315775 0.950805 0.492530 -0.403507
Br8   Br    Br    0.684225 0.049195 0.507470 -0.403507

loop_
_geom_bond_atom_site_label_1
_geom_bond_atom_site_label_2
_ccdc_geom_bond_type
C21   Br3   S    
C16   C25   A    
C5    C37   A    
C8    C26   A    
C14   C18   A    
O14   H10   S    
C24   O6    A    
C47   C49   A    
O16   H12   S    
C3    C9    A    
C10   C40   A    
C19   C21   A    
C29   C32   S    
C2    O4    A    
C30   C31   S    
C9    C22   A    
C9    C39   A    
C33   C36   S    
C40   N2    A    
C3    C18   A    
C15   C17   A    
C34   C35   S    
Cu1   O1    S    
C23   O5    A    
C8    H6    S    
C1    C28   S    
C1    O1    A    
C6    C38   A    
C11   C43   A    
C35   N4    T    
C22   Br4   S    
C36   N3    T    
Cu1   O5    S    
C48   C50   A    
C41   C43   A    
C42   C44   A    
C41   C49   A    
C45   C47   A    
C10   C21   A    
C39   N1    A    
C46   C48   A    
C49   N1    S    
C13   C19   A    
Cu1   Cu2   S    
C14   C20   A    
Cu1   N3    S    
C4    C6    A    
Cu2   N4    S    
C5    C7    A    
C15   C26   A    
C6    C8    A    
C3    C5    A    
C20   Br6   S    
C46   Br2   S    
C29   C30   D    
C19   Br5   S    
C23   O7    A    
O15   H11   S    
C33   C34   D    
C39   O12   S    
C2    C27   S    
Cu2   O3    S    
C42   C50   A    
C4    C17   A    
C12   C46   A    
C20   C22   A    
C28   C31   T    
C50   N2    S    
C11   C45   A    
Cu1   O8    S    
C4    C10   A    
Cu2   O2    S    
C24   O8    A    
C47   H3    S    
C38   O10   S    
C33   H2    S    
C48   H4    S    
C37   O9    S    
C27   C32   T    
C44   O13   S    
C42   O15   S    
C30   Br7   S    
C2    O2    A    
C37   N1    A    
C41   O16   S    
C12   C24   S    
C7    C25   A    
C40   O11   S    
C13   C17   A    
C12   C44   A    
Cu2   O7    S    
C43   O14   S    
C11   C23   S    
C1    O3    A    
Cu1   O4    S    
Cu2   O6    S    
O13   H9    S    
C34   H1    S    
C16   C18   A    
C13   C16   A    
C14   C15   A    
C45   Br1   S    
C25   H7    S    
C26   H8    S    
C7    H5    S    
C29   Br8   S    
C38   N2    A    
