data_mof_unit_37033.cif
_audit_creation_date              2012-10-26T20:43:01-0400
_audit_creation_method            fapswitch 2.2
_symmetry_space_group_name_H-M    P1
_symmetry_Int_Tables_number       1
_space_group_crystal_system       triclinic
_cell_length_a                    10.877169
_cell_length_b                    9.616847
_cell_length_c                    15.003728
_cell_angle_alpha                 89.925725
_cell_angle_beta                  93.265931
_cell_angle_gamma                 90.269514
_cell_volume                      1566.88385392

loop_
_atom_site_label
_atom_site_type_symbol
_atom_type_description
_atom_site_fract_x
_atom_site_fract_y
_atom_site_fract_z
_atom_type_partial_charge
Br1   Br    Br    0.247395 0.483304 0.744196 -0.361131
Br2   Br    Br    0.139484 0.796601 0.560655 -0.232125
Br3   Br    Br    0.313987 0.166692 0.355973 -0.311082
Br4   Br    Br    0.685617 0.833305 0.644016 -0.313289
Br5   Br    Br    0.686182 0.167718 0.644021 -0.349604
Br6   Br    Br    0.312289 0.830508 0.357074 -0.328038
Br7   Br    Br    0.738981 0.623593 0.260675 -0.349419
Br8   Br    Br    0.199896 0.231573 0.877752 -0.220780
Br9   Br    Br    0.883907 0.428492 0.131432 -0.298173
Br10  Br    Br    0.185119 0.247228 0.092665 -0.285058
Br11  Br    Br    0.905288 0.494372 0.923622 -0.361255
Br12  Br    Br    0.132758 0.196760 0.546277 -0.215530
Br13  Br    Br    0.867110 0.806295 0.458812 -0.210593
Br14  Br    Br    0.861303 0.203112 0.440268 -0.229376
C1    C     C_R   0.262926 0.499648 0.506878 0.599596
C2    C     C_R   0.128511 0.499149 0.513188 -0.032141
C3    C     C_R   0.423780 0.073538 0.441082 0.292155
C4    C     C_R   0.576027 0.926383 0.558894 0.298781
C5    C     C_R   0.576068 0.074168 0.558914 0.294312
C6    C     C_R   0.423545 0.925548 0.441200 0.294067
C7    C     C_R   0.498075 0.499985 0.328892 0.600707
C8    C     C_R   0.504629 0.499612 0.671418 0.584130
C9    C     C_R   0.623403 0.513410 0.819131 0.117728
C10   C     C_R   0.395075 0.458300 0.180864 0.123311
C11   C     C_R   0.510263 0.494315 0.769251 0.058650
C12   C     C_R   0.736706 0.500503 0.491205 0.563250
C13   C     C_R   0.501396 0.497145 0.231934 0.052581
C14   C     C_R   0.403478 0.454556 0.810589 0.150628
C15   C     C_R   0.613379 0.519105 0.192699 0.141462
C16   C     C_R   0.409326 0.423319 0.902321 0.004045
C17   C     C_R   0.622899 0.489753 0.101355 0.010687
C18   C     C_R   0.518564 0.455327 0.954417 -0.052968
C19   C     C_R   0.515218 0.456440 0.048391 -0.055467
C20   C     C_R   0.629390 0.490925 0.913257 0.007863
C21   C     C_R   0.403353 0.427150 0.089130 0.003674
C22   C     C_R   0.311357 0.356820 0.944010 0.229278
C23   C     C_R   0.307593 0.360092 0.037473 0.185117
C24   C     C_R   0.737008 0.486028 0.061670 0.238520
C25   C     C_3   0.795286 0.490322 0.721472 -0.184583
C26   C     C_3   0.201610 0.586702 0.182188 -0.192526
C27   C     C_R   0.741389 0.494523 0.968308 0.189909
C28   C     C_R   0.061901 0.372727 0.507525 0.164448
C29   C     C_R   0.938001 0.628141 0.492813 0.162452
C30   C     C_R   0.935958 0.374408 0.485409 0.156481
C31   C     C_R   0.064109 0.626198 0.514347 0.157106
C32   C     C_R   0.871363 0.501490 0.485749 -0.047494
Cu1   Cu    Cu3+1 0.500000 0.640660 0.500000 1.161740
Cu2   Cu    Cu3+1 0.500000 0.359340 0.500000 1.141086
H1    H     H_    0.769231 0.655338 0.811379 0.320989
H2    H     H_    0.876776 0.549045 0.700174 0.188645
H3    H     H_    0.740444 0.458377 0.661390 0.167739
H4    H     H_    0.826249 0.395137 0.757841 0.228865
H5    H     H_    0.236315 0.391259 0.243321 0.329108
H6    H     H_    0.159895 0.555362 0.116036 0.210089
H7    H     H_    0.255510 0.683986 0.174671 0.197806
H8    H     H_    0.126588 0.607608 0.227447 0.216124
N1    N     N_R   0.500000 0.852070 0.500000 -0.265550
N2    N     N_R   0.500000 0.147930 0.500000 -0.264471
N3    N     N_2   0.722335 0.577841 0.776193 -0.483703
N4    N     N_2   0.279889 0.477767 0.219912 -0.512860
O1    O     O_R   0.319640 0.618740 0.499990 -0.451750
O2    O     O_R   0.680360 0.381260 0.500010 -0.468834
O3    O     O_R   0.680360 0.618740 0.500010 -0.450575
O4    O     O_R   0.319640 0.381260 0.499990 -0.451171
O5    O     O_R   0.499970 0.618800 0.370260 -0.455295
O6    O     O_R   0.500030 0.381200 0.629740 -0.478536
O7    O     O_R   0.500030 0.618800 0.629740 -0.455610
O8    O     O_R   0.499970 0.381200 0.370260 -0.474141

loop_
_geom_bond_atom_site_label_1
_geom_bond_atom_site_label_2
_ccdc_geom_bond_type
C2    C31   A    
Cu1   O1    S    
Br1   C14   S    
C25   H3    S    
C1    O4    A    
C17   C19   A    
Cu2   N2    S    
C26   N4    S    
Cu1   N1    S    
Br6   C6    S    
C4    N1    A    
Cu2   O2    S    
Cu1   Cu2   S    
H1    N3    S    
C17   C24   A    
C16   C22   A    
C3    N2    A    
C10   N4    S    
C10   C13   A    
C25   N3    S    
C18   C19   A    
C26   H7    S    
C14   C16   A    
C25   H4    S    
C7    C13   S    
Br4   C4    S    
Br2   C31   S    
C7    O8    A    
Cu2   O8    S    
C11   C14   A    
C16   C18   A    
Br3   C3    S    
C29   C31   A    
C20   C27   A    
C28   C30   A    
Br10  C23   S    
Br7   C15   S    
Cu1   O7    S    
C22   C23   A    
C21   C23   A    
H5    N4    S    
C30   C32   A    
Br5   C5    S    
Br11  C27   S    
C26   H6    S    
C9    C11   A    
C5    N2    A    
C12   O2    A    
C19   C21   A    
C29   C32   A    
C8    O7    A    
Cu2   O4    S    
C10   C21   A    
C13   C15   A    
C12   C32   S    
Br12  C28   S    
C1    C2    S    
C2    C28   A    
Br13  C29   S    
C25   H2    S    
C24   C27   A    
Br14  C30   S    
C4    C5    A    
Br8   C22   S    
C1    O1    A    
Cu2   O6    S    
Br9   C24   S    
C9    C20   A    
C12   O3    A    
C9    N3    S    
C7    O5    A    
C6    N1    A    
C15   C17   A    
C3    C6    A    
Cu1   O5    S    
C8    O6    A    
Cu1   O3    S    
C26   H8    S    
C8    C11   S    
C18   C20   A    
