data_mof_unit_49339.cif
_audit_creation_date              2012-12-11T14:19:30-0500
_audit_creation_method            fapswitch 2.2
_symmetry_space_group_name_H-M    P1
_symmetry_Int_Tables_number       1
_space_group_crystal_system       triclinic
_cell_length_a                    19.415108
_cell_length_b                    7.243516
_cell_length_c                    17.720013
_cell_angle_alpha                 89.956491
_cell_angle_beta                  107.687605
_cell_angle_gamma                 90.050819
_cell_volume                      2374.22361921

loop_
_atom_site_label
_atom_site_type_symbol
_atom_type_description
_atom_site_fract_x
_atom_site_fract_y
_atom_site_fract_z
_atom_type_partial_charge
O1    O     O_R   0.414820 0.494320 0.416790 -0.516725
O2    O     O_R   0.585180 0.994320 0.583210 -0.517160
O3    O     O_R   0.560270 0.819500 0.430140 -0.538018
O4    O     O_R   0.439730 0.319500 0.569860 -0.544590
C1    C     C_R   0.581173 0.655581 0.414688 0.703434
C2    C     C_R   0.419092 0.155296 0.585630 0.702694
O5    O     O_R   0.413840 0.823740 0.407440 -0.555280
O6    O     O_R   0.586160 0.323740 0.592560 -0.555512
O7    O     O_R   0.437710 0.998590 0.560350 -0.538053
O8    O     O_R   0.562290 0.498590 0.439650 -0.541816
C3    C     C_R   0.388665 0.654525 0.384024 0.628345
C4    C     C_R   0.611361 0.154537 0.615937 0.628392
O9    O     O_3   0.508000 0.662290 0.550200 -0.375539
O10   O     O_3   0.492000 0.162290 0.449800 -0.374669
V1    V     V_3+5 0.498520 0.935380 0.490690 1.430333
V2    V     V_3+5 0.501480 0.435380 0.509310 1.420600
C5    C     C_2   0.784026 0.268084 0.789702 -0.115202
C6    C     C_2   0.216078 0.768186 0.210225 -0.113583
C7    C     C_2   0.824101 0.114627 0.813495 -0.273939
C8    C     C_2   0.175942 0.614698 0.186476 -0.274217
H1    H     H_    0.800613 0.396061 0.821929 0.140232
H2    H     H_    0.199582 0.896232 0.177964 0.140634
H3    H     H_    0.811331 0.989021 0.778963 0.184223
H4    H     H_    0.188703 0.489070 0.221055 0.184094
C9    C     C_2   0.719456 0.277979 0.717891 -0.231193
C10   C     C_2   0.280591 0.777964 0.282097 -0.231898
C11   C     C_2   0.673612 0.136034 0.689210 0.258438
C12   C     C_2   0.326478 0.636143 0.310663 0.260198
H5    H     H_    0.707721 0.412329 0.689668 0.122351
H6    H     H_    0.292239 0.912118 0.310473 0.121717
C13   C     C_R   0.326943 0.990747 0.634432 -0.169935
C14   C     C_R   0.675793 0.799530 0.363786 -0.151734
C15   C     C_R   0.370468 0.147047 0.636035 -0.113504
C16   C     C_R   0.630464 0.648516 0.365073 -0.113728
C17   C     C_R   0.366460 0.297066 0.685069 -0.172886
C18   C     C_R   0.632709 0.491634 0.319071 -0.176830
C19   C     C_R   0.319580 0.292383 0.731862 -0.033769
C20   C     C_R   0.679234 0.485234 0.271767 -0.030833
C21   C     C_R   0.275248 0.136117 0.728715 -0.025716
C22   C     C_R   0.725177 0.636746 0.271796 -0.029502
C23   C     C_R   0.279006 0.984961 0.679832 0.156107
C24   C     C_R   0.723520 0.794005 0.318174 0.157252
C25   C     C_R   0.315981 0.440857 0.781688 0.606730
C26   C     C_R   0.680740 0.330713 0.224250 0.602736
C27   C     C_R   0.267934 0.435527 0.826690 -0.268185
C28   C     C_R   0.728256 0.325359 0.178592 -0.266544
C29   C     C_R   0.223037 0.281875 0.823256 0.001194
C30   C     C_R   0.774811 0.474022 0.179146 0.001298
C31   C     C_R   0.227014 0.130885 0.774477 0.057016
C32   C     C_R   0.772893 0.631176 0.225385 0.056590
C33   C     C_R   0.182830 0.974547 0.771403 0.118502
C34   C     C_R   0.818642 0.782837 0.225296 0.118993
C35   C     C_R   0.186835 0.825547 0.722341 -0.194474
C36   C     C_R   0.816789 0.937760 0.272114 -0.207813
C37   C     C_R   0.234407 0.830837 0.676867 -0.109793
C38   C     C_R   0.769791 0.943093 0.318277 -0.116893
C39   C     C_R   0.174604 0.276206 0.868141 -0.177927
C40   C     C_R   0.823038 0.468418 0.134038 -0.179680
C41   C     C_R   0.130633 0.120251 0.865861 -0.077740
C42   C     C_R   0.868648 0.619369 0.133257 -0.077210
C43   C     C_R   0.135396 0.969759 0.817377 -0.219176
C44   C     C_R   0.865613 0.776744 0.178679 -0.218500
H7    H     H_    0.329337 0.874714 0.596695 0.122232
H8    H     H_    0.674765 0.920666 0.399342 0.123566
H9    H     H_    0.400226 0.417293 0.687049 0.179648
H10   H     H_    0.597499 0.375658 0.319445 0.177087
H11   H     H_    0.265808 0.552065 0.864241 0.159999
H12   H     H_    0.728717 0.204326 0.142832 0.161885
H13   H     H_    0.172069 0.392175 0.905852 0.126216
H14   H     H_    0.824291 0.347254 0.098587 0.125344
H15   H     H_    0.101718 0.849031 0.814810 0.129296
H16   H     H_    0.900617 0.893490 0.178741 0.128895
H17   H     H_    0.153252 0.704495 0.719256 0.121583
H18   H     H_    0.851618 0.055210 0.272919 0.125509
H19   H     H_    0.236560 0.713755 0.639613 0.116128
H20   H     H_    0.769361 0.064552 0.353798 0.119026
O11   O     O_R   0.937810 0.773680 0.060480 -0.535617
O12   O     O_R   0.062190 0.273680 0.939520 -0.536941
O13   O     O_R   0.086190 0.439740 0.092580 -0.542147
O14   O     O_R   0.913810 0.939740 0.907420 -0.541945
C45   C     C_R   0.111775 0.608527 0.115386 0.708310
C46   C     C_R   0.888243 0.108505 0.884602 0.708487
O15   O     O_R   0.939760 0.444210 0.069890 -0.543264
O16   O     O_R   0.060240 0.944210 0.930110 -0.542608
O17   O     O_R   0.914790 0.269640 0.916760 -0.534342
O18   O     O_R   0.085210 0.769640 0.083240 -0.533925
C47   C     C_R   0.918820 0.612293 0.084598 0.694852
C48   C     C_R   0.080968 0.112519 0.915142 0.695645
O19   O     O_3   0.992050 0.601530 0.949880 -0.377252
O20   O     O_3   0.007950 0.101530 0.050120 -0.377514
V3    V     V_3+5 0.001480 0.328340 0.009300 1.395800
V4    V     V_3+5 0.998520 0.828340 0.990700 1.397225
O21   O     O_3   0.684841 0.965577 0.726620 -0.555229
C49   C     C_3   0.638688 0.949921 0.774481 0.132627
H21   H     H_    0.580931 0.963290 0.738157 0.075249
H22   H     H_    0.651188 0.058676 0.821192 0.113367
C50   C     C_3   0.648006 0.759907 0.814148 -0.287224
H23   H     H_    0.607909 0.745087 0.847135 0.164178
H24   H     H_    0.637031 0.650407 0.768063 0.190507
C51   C     C_3   0.723779 0.733106 0.871889 -0.696609
H25   H     H_    0.736683 0.844310 0.917182 0.214193
H26   H     H_    0.764631 0.733355 0.839645 0.234460
H27   H     H_    0.726646 0.598152 0.902468 0.196870
O22   O     O_3   0.315369 0.466084 0.272970 -0.555184
C52   C     C_3   0.361949 0.451138 0.225574 0.133336
H28   H     H_    0.419609 0.462756 0.262437 0.071799
H29   H     H_    0.350235 0.561303 0.179434 0.114407
C53   C     C_3   0.352183 0.262357 0.184910 -0.285252
H30   H     H_    0.392694 0.247810 0.152457 0.165214
H31   H     H_    0.362254 0.151445 0.230377 0.191588
C54   C     C_3   0.276639 0.238275 0.126284 -0.698640
H32   H     H_    0.264612 0.350902 0.081587 0.211194
H33   H     H_    0.235315 0.238106 0.157906 0.234887
H34   H     H_    0.273525 0.104237 0.095043 0.199302
F1    F     F_    0.358976 0.591324 0.787027 -0.693444
F2    F     F_    0.636262 0.184579 0.221864 -0.695109

loop_
_geom_bond_atom_site_label_1
_geom_bond_atom_site_label_2
_ccdc_geom_bond_type
O15   C47   A    
O11   V4    S    
O4    V2    S    
O21   C49   S    
C38   H20   S    
C7    H3    S    
C54   H32   S    
O1    C3    A    
O2    C4    A    
C2    O7    A    
C50   H23   S    
O17   V3    S    
C29   C31   A    
C20   C26   A    
C52   H29   S    
C17   C19   A    
C18   H10   S    
C39   C41   A    
C17   H9    S    
C40   C42   A    
C53   H30   S    
C42   C44   A    
C27   C29   A    
C41   C48   S    
C23   C37   A    
C24   C38   A    
C36   H18   S    
C6    C10   S    
O18   V4    S    
C8    H4    S    
C34   C36   A    
C31   C33   A    
C33   C43   A    
C27   H11   S    
C32   C34   A    
C13   C15   A    
C7    C46   S    
O13   V3    S    
C45   O18   A    
C37   H19   S    
C43   H15   S    
C30   C32   A    
O6    V2    S    
C8    C45   S    
O22   C52   S    
C50   H24   S    
C42   C47   S    
C26   C28   A    
C36   C38   A    
C35   C37   A    
C9    H5    S    
C52   C53   S    
C28   C30   A    
C41   C43   A    
C4    C11   S    
C13   H7    S    
C14   H8    S    
O4    C2    A    
O13   C45   A    
C40   H14   S    
O5    V1    S    
C49   C50   S    
C51   H27   S    
C5    H1    S    
C25   F1    S    
C33   C35   A    
C14   C16   A    
O14   V4    S    
O5    C3    A    
C28   H12   S    
C29   C39   A    
C12   O22   S    
O6    C4    A    
C1    C16   S    
C51   H26   S    
C44   H16   S    
C54   H33   S    
O1    V2    S    
O19   V4    S    
C49   H22   S    
O2    V1    S    
C25   C27   A    
O11   C47   A    
O14   C46   A    
C21   C31   A    
C10   H6    S    
C19   C25   A    
C11   O21   S    
C5    C7    D    
C46   O17   A    
C50   C51   S    
O3    V1    S    
O12   C48   A    
C13   C23   A    
C6    H2    S    
C35   H17   S    
O16   C48   A    
O3    C1    A    
C53   C54   S    
C30   C40   A    
O12   V3    S    
C9    C11   D    
C21   C23   A    
O15   V3    S    
C52   H28   S    
C10   C12   D    
C2    C15   S    
C5    C9    S    
C18   C20   A    
O7    V1    S    
C1    O8    A    
C19   C21   A    
C34   C44   A    
C20   C22   A    
O20   V3    S    
C3    C12   S    
C22   C32   A    
C22   C24   A    
C51   H25   S    
C15   C17   A    
C16   C18   A    
C53   H31   S    
C54   H34   S    
C6    C8    D    
C49   H21   S    
C26   F2    S    
O9    V2    S    
C14   C24   A    
O10   V1    S    
O8    V2    S    
O16   V4    S    
C39   H13   S    
