data_mof_unit_33477.cif
_audit_creation_date              2012-10-26T19:40:07-0400
_audit_creation_method            fapswitch 2.2
_symmetry_space_group_name_H-M    P1
_symmetry_Int_Tables_number       1
_space_group_crystal_system       triclinic
_cell_length_a                    15.038529
_cell_length_b                    8.683123
_cell_length_c                    7.47001
_cell_angle_alpha                 103.060171
_cell_angle_beta                  94.827623
_cell_angle_gamma                 92.911586
_cell_volume                      944.389796112

loop_
_atom_site_label
_atom_site_type_symbol
_atom_type_description
_atom_site_fract_x
_atom_site_fract_y
_atom_site_fract_z
_atom_type_partial_charge
C1    C     C_R   0.497252 0.199696 0.453133 0.528126
C2    C     C_R   0.177169 0.443568 0.335901 -0.135604
C3    C     C_R   0.768086 0.502846 0.497571 -0.006184
C4    C     C_R   0.231914 0.497154 0.502429 -0.006184
C5    C     C_R   0.805979 0.449516 0.331587 -0.123206
C6    C     C_R   0.194021 0.550484 0.668413 -0.123206
C7    C     C_R   0.898522 0.447210 0.331505 0.008292
C8    C     C_R   0.101478 0.552790 0.668495 0.008292
C9    C     C_R   0.953453 0.500939 0.499389 0.064241
C10   C     C_R   0.046547 0.499060 0.500610 0.064241
C11   C     C_R   0.915373 0.556483 0.666094 0.005927
C12   C     C_R   0.502748 0.800304 0.546867 0.528126
C13   C     C_R   0.084626 0.443517 0.333906 0.005927
C14   C     C_R   0.937010 0.391273 0.166825 -0.135468
C15   C     C_R   0.062990 0.608726 0.833175 -0.135468
C16   C     C_R   0.029646 0.389228 0.168079 -0.135071
C17   C     C_R   0.970354 0.610772 0.831921 -0.135071
C18   C     C_2   0.495972 0.031643 0.426939 -0.138599
C19   C     C_2   0.504028 0.968357 0.573061 -0.138599
C20   C     C_R   0.328734 0.498813 0.501166 0.530742
C21   C     C_R   0.671266 0.501187 0.498834 0.530742
C22   C     C_R   0.822831 0.556432 0.664099 -0.135604
Cu1   Cu    Cu3+1 0.510010 0.517380 0.684380 1.154188
Cu2   Cu    Cu3+1 0.489990 0.482620 0.315620 1.154188
F1    F     F_    0.414852 0.353701 0.924387 -0.553824
F2    F     F_    0.585148 0.646298 0.075613 -0.553824
H1    H     H_    0.793515 0.598774 0.792393 0.147734
H2    H     H_    0.511591 0.040316 0.713702 0.164006
H3    H     H_    0.206485 0.401226 0.207607 0.147734
H4    H     H_    0.763529 0.407668 0.203119 0.144250
H5    H     H_    0.236471 0.592332 0.796881 0.144250
H6    H     H_    0.895529 0.349471 0.037217 0.121598
H7    H     H_    0.104471 0.650529 0.962783 0.121598
H8    H     H_    0.058307 0.345683 0.039423 0.127053
H9    H     H_    0.941693 0.654317 0.960577 0.127053
H10   H     H_    0.488409 0.959684 0.286298 0.164006
N1    N     N_2   0.474890 0.456420 0.038520 0.180349
N2    N     N_2   0.525110 0.543580 0.961480 0.180349
O1    O     O_R   0.506510 0.286130 0.619770 -0.472488
O2    O     O_R   0.493490 0.713870 0.380230 -0.472488
O3    O     O_R   0.489600 0.256770 0.308360 -0.495144
O4    O     O_R   0.510400 0.743230 0.691640 -0.495144
O5    O     O_R   0.378710 0.514640 0.655720 -0.473246
O6    O     O_R   0.621290 0.485360 0.344280 -0.473246
O7    O     O_R   0.361800 0.485290 0.344300 -0.507673
O8    O     O_R   0.638200 0.514710 0.655700 -0.507673

loop_
_geom_bond_atom_site_label_1
_geom_bond_atom_site_label_2
_ccdc_geom_bond_type
C12   O2    A    
C2    C4    A    
Cu1   Cu2   S    
C8    C10   A    
C15   C17   A    
N1    N2    D    
C19   H2    S    
C21   O6    A    
C9    C10   A    
C11   C22   A    
C20   O7    A    
F1    N1    S    
C6    H5    S    
Cu1   O8    S    
C10   C13   A    
Cu2   O3    S    
C9    C11   A    
C1    C18   S    
Cu1   O4    S    
C2    H3    S    
Cu1   O1    S    
Cu2   O7    S    
C12   C19   S    
C1    O3    A    
Cu2   O2    S    
Cu2   N1    S    
C8    C15   A    
C22   H1    S    
Cu2   O6    S    
C14   C16   A    
C3    C21   S    
C1    O1    A    
C12   O4    A    
Cu1   N2    S    
C7    C9    A    
C20   O5    A    
Cu1   O5    S    
C4    C6    A    
C18   C19   D    
C5    H4    S    
C13   C16   A    
C5    C7    A    
C2    C13   A    
C11   C17   A    
C3    C22   A    
C6    C8    A    
C17   H9    S    
C16   H8    S    
C18   H10   S    
C15   H7    S    
C7    C14   A    
F2    N2    S    
C14   H6    S    
C3    C5    A    
C21   O8    A    
C4    C20   S    
