data_mof_unit_58537.cif
_audit_creation_date              2013-03-05T15:43:33-0500
_audit_creation_method            fapswitch 2.2
_symmetry_space_group_name_H-M    P1
_symmetry_Int_Tables_number       1
_space_group_crystal_system       triclinic
_cell_length_a                    10.028619
_cell_length_b                    10.673929
_cell_length_c                    13.383376
_cell_angle_alpha                 90.107041
_cell_angle_beta                  71.580756
_cell_angle_gamma                 89.569169
_cell_volume                      1359.17511572

loop_
_atom_site_label
_atom_site_type_symbol
_atom_site_description
_atom_site_fract_x
_atom_site_fract_y
_atom_site_fract_z
_atom_type_partial_charge
O1    O     O_R   0.386950 0.680940 0.500020 -0.611926
O2    O     O_R   0.613110 0.680900 0.499980 -0.557775
C1    C     C_R   0.495390 0.736954 0.509959 0.961599
O3    O     O_R   0.330780 0.500000 0.653640 -0.598981
O4    O     O_R   0.556930 0.499960 0.653610 -0.629727
C2    C     C_R   0.425118 0.510071 0.702852 0.910483
Zn1   Zn    Zn3+2 0.349000 0.500030 0.500020 1.019159
Zn2   Zn    Zn3+2 0.651000 0.499970 0.499980 1.022590
O5    O     O_R   0.386890 0.319100 0.500020 -0.607021
O6    O     O_R   0.613050 0.319060 0.499980 -0.617174
O7    O     O_R   0.443070 0.500040 0.346390 -0.590472
O8    O     O_R   0.669220 0.500000 0.346360 -0.592539
C3    C     C_R   0.500789 0.262377 0.499585 0.949866
C4    C     C_R   0.576515 0.497461 0.298088 0.876452
C5    C     C_R   0.777179 0.408137 0.022395 -0.085258
H1    H     H_    0.809660 0.378547 0.171286 0.184131
H2    H     H_    0.877246 0.365669 0.979732 0.178426
C6    C     C_R   0.620282 0.485242 0.185780 -0.068506
C7    C     C_R   0.247210 0.560564 0.873592 -0.295658
C8    C     C_R   0.200480 0.565299 0.983478 0.270019
C9    C     C_R   0.296308 0.536084 0.038708 0.225187
C10   C     C_R   0.443547 0.522204 0.982099 -0.080888
C11   C     C_R   0.489106 0.528490 0.871072 0.032835
C12   C     C_R   0.548956 0.499714 0.030846 0.075789
C13   C     C_R   0.684796 0.454945 0.971161 0.107357
C14   C     C_R   0.729178 0.471914 0.863084 0.104889
C15   C     C_R   0.636514 0.525467 0.818055 -0.125303
C16   C     C_R   0.528680 0.529737 0.135065 -0.136152
C17   C     C_R   0.741370 0.418537 0.130921 -0.111900
C18   C     C_R   0.387172 0.534572 0.817132 -0.140497
H3    H     H_    0.444211 0.591280 0.177569 0.199165
H4    H     H_    0.172243 0.574079 0.831479 0.233514
H5    H     H_    0.685939 0.567287 0.742659 0.226362
C19   C     C_2   0.571007 0.070665 0.558428 -0.195791
C20   C     C_2   0.502962 0.129683 0.500715 -0.366776
H6    H     H_    0.626260 0.123477 0.602556 0.201280
H7    H     H_    0.448967 0.082746 0.453017 0.157842
C21   C     C_2   0.578074 0.934631 0.561269 0.363055
C22   C     C_2   0.481526 0.867952 0.534039 -0.447672
H8    H     H_    0.386315 0.911173 0.527782 0.160868
C23   C     C_2   0.096402 0.416639 0.450606 0.005773
N1    N     N_2   0.148270 0.498670 0.498870 -0.181495
H9    H     H_    0.163662 0.340180 0.409848 0.180293
H10   H     H_    0.088153 0.575440 0.531779 0.191480
C24   C     C_2   0.948686 0.421479 0.445202 -0.033479
N2    N     N_2   0.852610 0.498640 0.498840 -0.187956
H11   H     H_    0.921039 0.353915 0.394542 0.169299
H12   H     H_    0.875928 0.558562 0.550866 0.193412
N3    N     N_R   0.686239 0.877207 0.595659 0.232566
O9    O     O_R   0.810139 0.927564 0.570759 -0.368948
O10   O     O_R   0.653113 0.792344 0.668859 -0.405828
I1    I     I_    0.938606 0.438292 0.764386 -0.362640
N4    N     N_R   0.241846 0.507690 0.148835 0.211568
O11   O     O_R   0.249797 0.393737 0.180937 -0.402628
O12   O     O_R   0.190226 0.596266 0.217557 -0.353978
N5    N     N_R   0.054246 0.595137 0.036422 0.221677
O13   O     O_R   0.981200 0.655121 0.986570 -0.369870
O14   O     O_R   0.991516 0.562116 0.133213 -0.340099

loop_
_geom_bond_atom_site_label_1
_geom_bond_atom_site_label_2
_geom_bond_distance
_ccdc_geom_bond_type
O4    Zn2   1.972746 S    
Zn1   O7    1.972746 S    
Zn2   O6    1.970974 S    
C5    C17   1.385660 A    
C14   I1    2.125668 S    
C23   N1    1.292874 D    
C4    C6    1.431903 S    
C7    C8    1.396001 A    
C8    N5    1.445568 S    
Zn2   O8    2.005727 S    
Zn1   O5    1.965457 S    
C8    C9    1.418596 A    
N3    O10   1.301073 A    
N4    O12   1.302426 A    
O2    C1    1.288025 A    
C13   C14   1.385079 A    
C1    C22   1.430177 S    
C21   N3    1.439010 S    
O1    Zn1   1.970974 S    
N4    O11   1.300971 A    
C15   H5    1.073341 S    
C9    N4    1.434539 S    
C23   H9    1.084492 S    
C14   C15   1.378671 A    
C21   C22   1.345082 D    
N1    H10   1.025844 S    
O3    Zn1   2.005727 S    
C7    H4    1.081729 S    
C10   C12   1.425933 A    
C9    C10   1.437236 A    
C20   H7    1.083067 S    
N5    O14   1.299266 A    
C3    C20   1.416554 S    
C19   H6    1.088051 S    
C11   C15   1.423453 A    
C24   H11   1.084719 S    
O4    C2    1.280797 A    
C19   C20   1.336987 D    
O7    C4    1.289301 A    
N2    H12   1.025707 S    
C5    C13   1.404959 A    
N5    O13   1.301960 A    
C5    H2    1.081056 S    
C11   C18   1.426850 A    
C24   N2    1.292584 D    
C6    C16   1.385215 A    
C12   C13   1.422452 A    
O3    C2    1.317363 A    
N3    O9    1.301123 A    
Zn1   N1    2.018121 S    
C22   H8    1.084256 S    
C6    C17   1.393646 A    
C23   C24   1.506318 S    
C10   C11   1.411741 A    
O5    C3    1.287144 A    
Zn2   N2    2.017043 S    
C2    C18   1.477030 S    
H1    C17   1.083204 S    
C19   C21   1.454370 S    
C7    C18   1.393283 A    
C16   H3    1.076299 S    
O2    Zn2   1.965455 S    
C12   C16   1.381178 A    
O8    C4    1.289312 A    
O1    C1    1.287912 A    
O6    C3    1.283572 A    
