data_mof_unit_46085.cif
_audit_creation_date              2012-12-10T17:19:24-0500
_audit_creation_method            fapswitch 2.2
_symmetry_space_group_name_H-M    P1
_symmetry_Int_Tables_number       1
_space_group_crystal_system       triclinic
_cell_length_a                    15.065313
_cell_length_b                    10.804152
_cell_length_c                    9.587667
_cell_angle_alpha                 90.887851
_cell_angle_beta                  90.427976
_cell_angle_gamma                 92.707528
_cell_volume                      1558.58292977

loop_
_atom_site_label
_atom_site_type_symbol
_atom_type_description
_atom_site_fract_x
_atom_site_fract_y
_atom_site_fract_z
_atom_type_partial_charge
C1    C     C_R   0.504686 0.262349 0.499338 0.823353
C2    C     C_R   0.909587 0.553932 0.610278 0.105147
C3    C     C_R   0.945202 0.373858 0.282852 -0.211968
C4    C     C_R   0.037302 0.368307 0.283804 -0.134629
C5    C     C_R   0.088877 0.426486 0.391423 0.058814
C6    C     C_R   0.045846 0.491168 0.499064 0.021432
C7    C     C_R   0.095581 0.552253 0.607013 0.097099
C8    C     C_R   0.052277 0.613036 0.715449 -0.161496
C9    C     C_R   0.959763 0.613015 0.717675 -0.176112
C10   C     C_R   0.182074 0.421411 0.394581 0.210619
C11   C     C_R   0.231446 0.489341 0.498459 -0.123287
C12   C     C_R   0.328650 0.495218 0.499413 0.879614
C13   C     C_R   0.187887 0.552428 0.604555 -0.244992
C14   C     C_R   0.573298 0.118430 0.735600 -0.118670
C15   C     C_R   0.572951 0.061887 0.865119 -0.153749
C16   C     C_R   0.521410 0.953420 0.884095 -0.126338
C17   C     C_R   0.478430 0.893604 0.770386 0.304724
C18   C     C_R   0.492448 0.939422 0.633686 0.001947
C19   C     C_R   0.525348 0.062759 0.621852 0.052173
C20   C     C_R   0.505611 0.127086 0.498937 -0.153390
C21   C     C_R   0.469566 0.061970 0.382755 -0.205409
C22   C     C_R   0.455992 0.934160 0.385228 0.253734
C23   C     C_R   0.489034 0.736342 0.501765 0.841365
C24   C     C_R   0.474015 0.870192 0.508473 -0.153033
C25   C     C_R   0.618419 0.665303 0.147830 -0.176486
C26   C     C_R   0.676750 0.745009 0.077337 -0.236393
C27   C     C_R   0.677015 0.744463 0.933527 0.235680
C28   C     C_R   0.618360 0.664514 0.859594 -0.200666
C29   C     C_R   0.558020 0.581287 0.927118 0.187545
C30   C     C_R   0.557920 0.581535 0.076740 0.230447
C31   C     C_R   0.446421 0.420710 0.071718 -0.019260
C32   C     C_R   0.445954 0.421249 0.923871 -0.014797
C33   C     C_R   0.671095 0.500203 0.500432 0.785126
C34   C     C_R   0.816984 0.553990 0.611163 -0.216692
C35   C     C_R   0.767552 0.498242 0.500907 -0.066459
C36   C     C_R   0.810268 0.439978 0.390530 -0.230669
C37   C     C_R   0.902507 0.435658 0.390385 0.109502
C38   C     C_R   0.952671 0.493708 0.499813 0.081141
Cu1   Cu    Cu3+1 0.499990 0.499990 0.640660 0.969008
Cu2   Cu    Cu3+1 0.500010 0.500010 0.359340 0.990580
H1    H     H_    0.783448 0.599005 0.696171 0.175759
H2    H     H_    0.611145 0.205381 0.725474 0.160126
H3    H     H_    0.608013 0.106275 0.952749 0.160402
H4    H     H_    0.513486 0.917232 0.987856 0.199941
H5    H     H_    0.403540 0.354537 0.124979 0.183076
H6    H     H_    0.624415 0.673330 0.257903 0.212242
H7    H     H_    0.622836 0.672126 0.749808 0.217739
H8    H     H_    0.771509 0.395830 0.306188 0.155416
H9    H     H_    0.401693 0.356537 0.866935 0.154379
H10   H     H_    0.907264 0.329032 0.198179 0.157180
H11   H     H_    0.226164 0.602414 0.685404 0.205081
H12   H     H_    0.089996 0.660032 0.798925 0.175189
H13   H     H_    0.450336 0.110573 0.290065 0.196913
N1    N     N_R   0.500860 0.501210 0.147910 -0.194295
N2    N     N_R   0.500890 0.501290 0.852040 -0.188350
O1    O     O_R   0.499990 0.319640 0.618810 -0.592277
O2    O     O_R   0.500000 0.319660 0.381240 -0.583056
O3    O     O_R   0.370250 0.499960 0.618800 -0.567657
O4    O     O_R   0.370260 0.499980 0.381230 -0.527434
O5    O     O_R   0.500000 0.680340 0.618760 -0.581316
O6    O     O_R   0.500010 0.680360 0.381190 -0.566395
O7    O     O_R   0.629740 0.500020 0.618770 -0.611130
O8    O     O_R   0.629750 0.500040 0.381200 -0.610599
Br1   Br    Br    0.380526 0.779999 0.814043 -0.462182
Br2   Br    Br    0.400599 0.855213 0.223608 -0.454464
H14   H     H_    0.722103 0.807590 0.135412 0.189026
Br3   Br    Br    0.757356 0.854740 0.836863 -0.570247
H15   H     H_    0.067170 0.319604 0.198190 0.201762
Br4   Br    Br    0.240349 0.310392 0.268497 -0.533835
H16   H     H_    0.927493 0.659752 0.802844 0.184450

loop_
_geom_bond_atom_site_label_1
_geom_bond_atom_site_label_2
_ccdc_geom_bond_type
C2    C9    A    
C23   C24   S    
C6    C38   A    
C28   H7    S    
C37   C38   A    
C1    O2    A    
C11   C13   A    
C8    H12   S    
C32   N2    A    
Cu1   O1    S    
C14   H2    S    
C33   O8    A    
C12   O3    A    
C2    C34   A    
C19   C20   A    
C17   C18   A    
C15   H3    S    
C5    C10   A    
C22   Br2   S    
Cu2   O4    S    
C21   C22   A    
C9    H16   S    
C21   H13   S    
C5    C6    A    
C30   N1    A    
C11   C12   S    
C26   C27   A    
C29   C30   A    
C34   H1    S    
C18   C24   A    
Cu1   O5    S    
C14   C19   A    
C28   C29   A    
C33   C35   S    
C1    O1    A    
C36   H8    S    
C6    C7    A    
Cu2   N1    S    
C12   O4    A    
C17   Br1   S    
C23   O5    A    
Cu1   O7    S    
C16   C17   A    
C22   C24   A    
C32   H9    S    
Cu2   O8    S    
C10   C11   A    
Cu1   Cu2   S    
C3    C4    A    
C26   H14   S    
C10   Br4   S    
C31   N1    A    
C7    C13   A    
C27   Br3   S    
C20   C21   A    
C3    C37   A    
C36   C37   A    
C34   C35   A    
C31   H5    S    
C18   C19   A    
C3    H10   S    
C25   C30   A    
C4    H15   S    
C7    C8    A    
C2    C38   A    
C14   C15   A    
C4    C5    A    
C1    C20   S    
Cu2   O2    S    
C29   N2    A    
C25   C26   A    
C13   H11   S    
Cu1   O3    S    
C33   O7    A    
C25   H6    S    
C16   H4    S    
C31   C32   A    
Cu1   N2    S    
Cu2   O6    S    
C15   C16   A    
C23   O6    A    
C8    C9    A    
C27   C28   A    
C35   C36   A    
