data_mof_unit_43132.cif
_audit_creation_date              2012-12-10T18:37:18-0500
_audit_creation_method            fapswitch 2.2
_symmetry_space_group_name_H-M    P1
_symmetry_Int_Tables_number       1
_space_group_crystal_system       triclinic
_cell_length_a                    15.185439
_cell_length_b                    13.923236
_cell_length_c                    10.83088
_cell_angle_alpha                 89.740711
_cell_angle_beta                  93.884547
_cell_angle_gamma                 90.796761
_cell_volume                      2284.48117405

loop_
_atom_site_label
_atom_site_type_symbol
_atom_type_description
_atom_site_fract_x
_atom_site_fract_y
_atom_site_fract_z
_atom_type_partial_charge
C1    C     C_R   0.330776 0.499246 0.513362 0.959249
C2    C     C_3   0.606697 0.479183 0.944979 0.601951
C3    C     C_R   0.101323 0.578272 0.465138 0.270146
C4    C     C_R   0.093020 0.431553 0.587310 0.282776
C5    C     C_R   0.189464 0.585521 0.507344 0.304400
C6    C     C_R   0.185336 0.419836 0.578701 0.277895
C7    C     C_R   0.234751 0.499739 0.534072 -0.374708
C8    C     C_R   0.050047 0.503542 0.513537 -0.196919
C9    C     C_R   0.906613 0.421324 0.455808 -0.111126
C10   C     C_R   0.907172 0.586954 0.516841 -0.070108
C11   C     C_R   0.814274 0.418317 0.448480 0.304326
C12   C     C_R   0.816471 0.591089 0.491275 0.341979
C13   C     C_R   0.766780 0.503532 0.473733 -0.298680
C14   C     C_R   0.952990 0.503868 0.495063 0.108129
C15   C     C_R   0.544113 0.113807 0.615990 -0.195145
C16   C     C_R   0.562472 0.886085 0.600072 -0.208011
C17   C     C_R   0.500144 0.500474 0.259619 0.844840
C18   C     C_R   0.538461 0.215119 0.603899 0.096564
C19   C     C_R   0.554185 0.784685 0.590465 0.055232
C20   C     C_R   0.468542 0.199509 0.403969 0.604861
C21   C     C_R   0.444574 0.799075 0.425856 0.597224
C22   C     C_R   0.487144 0.101322 0.406670 -0.237960
C23   C     C_R   0.445837 0.898758 0.442779 -0.261342
C24   C     C_R   0.516437 0.054411 0.516026 0.079115
C25   C     C_R   0.509081 0.945424 0.522044 0.047282
C26   C     C_R   0.669781 0.500854 0.489108 0.880974
C27   C     C_R   0.507098 0.500171 0.740474 0.868210
C28   C     C_3   0.481568 0.601571 0.066246 -0.272179
C29   C     C_3   0.438419 0.427816 0.062361 -0.342307
C30   C     C_3   0.480080 0.600282 0.924502 -0.395830
C31   C     C_3   0.440460 0.428502 0.921319 -0.391865
C32   C     C_3   0.598261 0.475230 0.088188 -0.423041
C33   C     C_3   0.504385 0.501721 0.121872 -0.065054
C34   C     C_3   0.511110 0.501057 0.879136 -0.067720
Cu1   Cu    Cu3+1 0.499990 0.596430 0.500000 1.092959
Cu2   Cu    Cu3+1 0.499990 0.403570 0.500000 1.119422
H1    H     H_    0.562955 0.258288 0.680575 0.237641
H2    H     H_    0.592664 0.740466 0.655283 0.227554
H3    H     H_    0.470333 0.060232 0.323679 0.191482
H4    H     H_    0.397840 0.940715 0.388822 0.211784
H5    H     H_    0.414892 0.621374 0.091424 0.230925
H6    H     H_    0.370385 0.442593 0.088659 0.208392
H7    H     H_    0.411521 0.613978 0.886023 0.217886
H8    H     H_    0.374034 0.449176 0.880719 0.231100
N1    N     N_R   0.500020 0.258690 0.500000 -0.237821
N2    N     N_R   0.500020 0.741310 0.500000 -0.252005
O1    O     O_R   0.371450 0.581430 0.500010 -0.504102
O2    O     O_R   0.371450 0.418570 0.500010 -0.497541
O3    O     O_R   0.499980 0.581440 0.317690 -0.537244
O4    O     O_R   0.499980 0.418560 0.317690 -0.538399
O5    O     O_R   0.628540 0.581440 0.499990 -0.522406
O6    O     O_R   0.628540 0.418560 0.499990 -0.508023
O7    O     O_R   0.500010 0.581440 0.682310 -0.591259
O8    O     O_R   0.500010 0.418560 0.682310 -0.582461
H9    H     H_    0.530497 0.656066 0.103195 0.259373
H10   H     H_    0.457827 0.356135 0.095480 0.266412
S1    S     S_3+6 0.764342 0.306087 0.404834 0.086022
O9    O     O_2   0.687376 0.320668 0.312500 -0.267559
O10   O     O_2   0.829407 0.242275 0.347692 -0.199827
O11   O     O_3   0.729135 0.250870 0.531061 -0.471371
H11   H     H_    0.781513 0.249340 0.590713 0.378555
S2    S     S_3+6 0.774404 0.709081 0.471486 0.070265
O12   O     O_2   0.745309 0.743218 0.593165 -0.265818
O13   O     O_2   0.846194 0.775713 0.432360 -0.193412
O14   O     O_3   0.690455 0.712920 0.361852 -0.498619
H12   H     H_    0.669088 0.779781 0.363189 0.378354
H13   H     H_    0.569200 0.082951 0.703033 0.183562
H14   H     H_    0.610371 0.917082 0.667480 0.193919
S3    S     S_3+6 0.386765 0.227860 0.285084 0.057650
O15   O     O_2   0.423121 0.205202 0.163213 -0.319377
O16   O     O_2   0.310255 0.159899 0.299632 -0.207039
O17   O     O_3   0.347820 0.339933 0.284362 -0.526318
H15   H     H_    0.290281 0.336446 0.235609 0.378997
S4    S     S_3+6 0.378920 0.762581 0.291281 0.067794
O18   O     O_2   0.299515 0.825995 0.275331 -0.186862
O19   O     O_2   0.433663 0.781605 0.183384 -0.327746
O20   O     O_3   0.342148 0.648509 0.288007 -0.529422
H16   H     H_    0.296759 0.645388 0.218028 0.377827
H17   H     H_    0.519942 0.660943 0.890536 0.242980
H18   H     H_    0.451018 0.355010 0.887746 0.259729
H19   H     H_    0.647172 0.523695 0.138518 0.213936
H20   H     H_    0.612862 0.402372 0.125239 0.214153
S5    S     S_3+6 0.688502 0.571854 0.913209 0.054708
O21   O     O_2   0.669929 0.665306 0.974546 -0.270392
O22   O     O_2   0.778502 0.540428 0.962921 -0.195498
O23   O     O_3   0.690411 0.590543 0.760194 -0.526551
H21   H     H_    0.745445 0.560528 0.736278 0.378165
S6    S     S_3+6 0.653247 0.366409 0.897677 0.017093
O24   O     O_2   0.676492 0.373440 0.765339 -0.295345
O25   O     O_2   0.736856 0.347518 0.976055 -0.195059
O26   O     O_3   0.584745 0.271971 0.914107 -0.571812
H22   H     H_    0.589248 0.256572 0.003643 0.381839
S7    S     S_3+6 0.061022 0.661662 0.350805 0.104432
O27   O     O_2   0.036416 0.753163 0.412114 -0.170863
O28   O     O_2   0.132458 0.683916 0.265243 -0.207403
O29   O     O_3   0.972823 0.616340 0.267085 -0.499511
H23   H     H_    0.947418 0.671639 0.219883 0.414424
S8    S     S_3+6 0.034271 0.371081 0.702891 0.099796
O30   O     O_2   0.999829 0.275954 0.653721 -0.227753
O31   O     O_2   0.094299 0.355340 0.817136 -0.170974
O32   O     O_3   0.948717 0.437052 0.743076 -0.514888
H24   H     H_    0.911056 0.392144 0.788132 0.407575
S9    S     S_3+6 0.221482 0.692408 0.588390 0.105964
O33   O     O_2   0.244042 0.769600 0.498529 -0.187803
O34   O     O_2   0.145389 0.725557 0.658404 -0.199667
O35   O     O_3   0.308210 0.673769 0.690267 -0.551355
H25   H     H_    0.332072 0.738661 0.711325 0.371697
S10   S     S_3+6 0.235914 0.307149 0.615807 0.106020
O36   O     O_2   0.176220 0.235518 0.673322 -0.135583
O37   O     O_2   0.263352 0.264218 0.498120 -0.221056
O38   O     O_3   0.325583 0.324440 0.712667 -0.553620
H26   H     H_    0.358338 0.263470 0.711100 0.371901
H27   H     H_    0.943358 0.357933 0.435343 0.211112
H28   H     H_    0.943242 0.650799 0.548186 0.223206

loop_
_geom_bond_atom_site_label_1
_geom_bond_atom_site_label_2
_ccdc_geom_bond_type
C15   C18   A    
C5    S9    S    
S7    O27   D    
C4    S8    S    
C29   H6    S    
Cu1   O7    S    
O38   H26   S    
C4    C8    A    
Cu1   O1    S    
C19   N2    A    
C31   H18   S    
O20   H16   S    
C32   H19   S    
O32   H24   S    
S4    O19   D    
C18   H1    S    
S1    O10   D    
O35   H25   S    
C23   H4    S    
C29   C33   S    
C28   H5    S    
S10   O36   D    
C2    C32   S    
S3    O16   D    
S2    O13   D    
Cu1   Cu2   S    
S4    O20   S    
Cu1   O3    S    
C2    S6    S    
C16   H14   S    
C20   N1    A    
C10   H28   S    
C31   H8    S    
C2    C34   S    
S7    O28   D    
C2    S5    S    
C17   C33   S    
C28   H9    S    
C27   C34   S    
C27   O8    A    
S4    O18   D    
C30   C34   S    
C24   C25   S    
C4    C6    A    
C3    C8    A    
C10   C14   A    
C17   O3    A    
O26   H22   S    
C5    C7    A    
O23   H21   S    
C1    O1    A    
S1    O11   S    
C21   S4    S    
C3    S7    S    
O11   H11   S    
S3    O17   S    
C9    C14   A    
S2    O12   D    
C19   H2    S    
C26   O6    A    
C12   S2    S    
S5    O21   D    
S6    O26   S    
C15   H13   S    
O29   H23   S    
C31   C34   S    
Cu2   N1    S    
S9    O34   D    
C12   C13   A    
C9    C11   A    
C10   C12   A    
C30   H17   S    
C15   C24   A    
S5    O22   D    
S6    O25   D    
C28   C33   S    
O14   H12   S    
S7    O29   S    
S8    O31   D    
C21   C23   A    
Cu1   O5    S    
C22   C24   A    
C30   H7    S    
C18   N1    A    
Cu2   O4    S    
C21   N2    A    
C16   C25   A    
C8    C14   S    
S2    O14   S    
C1    C7    S    
C20   C22   A    
O17   H15   S    
C3    C5    A    
Cu2   O6    S    
C17   O4    A    
C27   O7    A    
C1    O2    A    
C6    C7    A    
C29   H10   S    
S8    O32   S    
C32   H20   S    
S10   O38   S    
C9    H27   S    
C32   C33   S    
C28   C30   S    
C29   C31   S    
C26   O5    A    
C11   C13   A    
S1    O9    D    
C16   C19   A    
C22   H3    S    
S10   O37   D    
Cu2   O2    S    
S9    O35   S    
C23   C25   A    
S3    O15   D    
C13   C26   S    
Cu2   O8    S    
S5    O23   S    
S6    O24   D    
S8    O30   D    
S9    O33   D    
C6    S10   S    
C20   S3    S    
C11   S1    S    
Cu1   N2    S    
