data_mof_unit_6569.cif
_audit_creation_date              2012-12-11T15:10:47-0500
_audit_creation_method            fapswitch 2.2
_symmetry_space_group_name_H-M    P1
_symmetry_Int_Tables_number       1
_space_group_crystal_system       triclinic
_cell_length_a                    21.081974
_cell_length_b                    7.23485
_cell_length_c                    18.28899
_cell_angle_alpha                 90.000262
_cell_angle_beta                  93.515604
_cell_angle_gamma                 90.000064
_cell_volume                      2784.2772175

loop_
_atom_site_label
_atom_site_type_symbol
_atom_type_description
_atom_site_fract_x
_atom_site_fract_y
_atom_site_fract_z
_atom_type_partial_charge
O1    O     O_R   0.448880 0.506250 0.415280 -0.537192
O2    O     O_R   0.551120 0.006250 0.584720 -0.537192
O3    O     O_R   0.434830 0.174000 0.557310 -0.526730
O4    O     O_R   0.565170 0.674000 0.442690 -0.526730
C1    C     C_R   0.417075 0.344529 0.579781 0.697007
C2    C     C_R   0.582925 0.844529 0.420219 0.697009
O5    O     O_R   0.441680 0.176440 0.414130 -0.522887
O6    O     O_R   0.558320 0.676440 0.585870 -0.522889
O7    O     O_R   0.558020 0.007570 0.440520 -0.515210
O8    O     O_R   0.441980 0.507570 0.559480 -0.515210
C3    C     C_R   0.428165 0.344703 0.388161 0.749339
C4    C     C_R   0.571834 0.844704 0.611839 0.749341
O9    O     O_3   0.538160 0.339670 0.508820 -0.366882
O10   O     O_3   0.461840 0.839670 0.491180 -0.366882
V1    V     V_3+5 0.492920 0.064260 0.498360 1.411180
V2    V     V_3+5 0.507080 0.564260 0.501640 1.411179
C5    C     C_R   0.875559 0.007068 0.688461 -0.217113
C6    C     C_R   0.124443 0.507094 0.311537 -0.217113
H1    H     H_    0.897561 0.045703 0.638752 0.142480
H2    H     H_    0.102442 0.545742 0.361245 0.142481
C7    C     C_R   0.888358 0.943872 0.818533 -0.078372
C8    C     C_R   0.111642 0.443876 0.181467 -0.078375
C9    C     C_R   0.582669 0.796750 0.746475 0.262531
C10   C     C_R   0.417329 0.296729 0.253526 0.262532
C11   C     C_R   0.619729 0.782909 0.812791 0.277597
C12   C     C_R   0.380269 0.282876 0.187211 0.277595
C13   C     C_R   0.684937 0.820432 0.814945 -0.263012
C14   C     C_R   0.315061 0.320407 0.185057 -0.263012
C15   C     C_R   0.715467 0.875844 0.751880 0.054421
C16   C     C_R   0.284533 0.375837 0.248121 0.054421
C17   C     C_R   0.677657 0.891338 0.684680 -0.050858
C18   C     C_R   0.322343 0.391341 0.315319 -0.050858
C19   C     C_R   0.782382 0.914910 0.753530 0.069668
C20   C     C_R   0.217618 0.414911 0.246470 0.069667
C21   C     C_R   0.809809 0.969645 0.687620 0.027372
C22   C     C_R   0.190192 0.469661 0.312379 0.027374
C23   C     C_R   0.771757 0.985256 0.621443 0.289424
C24   C     C_R   0.228245 0.485280 0.378555 0.289423
C25   C     C_R   0.706588 0.945791 0.621034 -0.200443
C26   C     C_R   0.293413 0.445808 0.378965 -0.200446
C27   C     C_R   0.823173 0.903068 0.818597 -0.267219
C28   C     C_R   0.176826 0.403062 0.181404 -0.267219
C29   C     C_R   0.914712 0.994383 0.752767 0.280230
C30   C     C_R   0.085290 0.494403 0.247232 0.280233
C31   C     C_R   0.611394 0.849762 0.681975 -0.163883
C32   C     C_R   0.388605 0.349758 0.318024 -0.163886
H3    H     H_    0.805837 0.866790 0.870855 0.108563
H4    H     H_    0.194161 0.366773 0.129146 0.108564
H5    H     H_    0.710192 0.805760 0.867543 0.126254
H6    H     H_    0.289805 0.305725 0.132460 0.126254
H7    H     H_    0.677834 0.961031 0.570481 0.118162
H8    H     H_    0.322168 0.461055 0.429517 0.118166
C33   C     C_1   0.864678 0.939031 0.132315 -0.207683
C34   C     C_1   0.135322 0.439030 0.867685 -0.207683
C35   C     C_1   0.821831 0.924973 0.176088 -0.004778
C36   C     C_1   0.178169 0.424972 0.823912 -0.004777
C37   C     C_1   0.771196 0.905785 0.228116 -0.007221
C38   C     C_1   0.228803 0.405785 0.771884 -0.007221
C39   C     C_1   0.728519 0.889052 0.271969 -0.007782
C40   C     C_1   0.271480 0.389052 0.728031 -0.007781
C41   C     C_1   0.677846 0.869797 0.323923 -0.009258
C42   C     C_1   0.322153 0.369798 0.676077 -0.009257
C43   C     C_1   0.635018 0.855746 0.367705 -0.214344
C44   C     C_1   0.364981 0.355747 0.632294 -0.214344
O11   O     O_R   0.058070 0.289240 0.940580 -0.514637
O12   O     O_R   0.941930 0.789240 0.059420 -0.514637
O13   O     O_R   0.058330 0.616740 0.085880 -0.525006
O14   O     O_R   0.941670 0.116740 0.914120 -0.525008
C45   C     C_R   0.071919 0.448886 0.111860 0.736758
C46   C     C_R   0.928081 0.948885 0.888140 0.736762
O15   O     O_R   0.065180 0.619040 0.942700 -0.527668
O16   O     O_R   0.934820 0.119040 0.057300 -0.527668
O17   O     O_R   0.948870 0.787780 0.915270 -0.537434
O18   O     O_R   0.051130 0.287780 0.084730 -0.537434
C47   C     C_R   0.083130 0.450357 0.920103 0.703976
C48   C     C_R   0.916870 0.950357 0.079897 0.703977
O19   O     O_3   0.961870 0.453310 0.991210 -0.367101
O20   O     O_3   0.038130 0.953310 0.008790 -0.367101
V3    V     V_3+5 0.007070 0.728770 0.001630 1.415633
V4    V     V_3+5 0.992930 0.228770 0.998370 1.415632
N1    N     N_2   0.980519 0.038773 0.751164 -0.533452
H9    H     H_    0.992173 0.128387 0.710193 0.252287
C49   C     C_3   0.024837 0.886668 0.762597 -0.514636
H10   H     H_    0.048999 0.858738 0.711429 0.182779
H11   H     H_    0.000926 0.757283 0.778856 0.190341
H12   H     H_    0.061237 0.924471 0.806462 0.204039
N2    N     N_2   0.019483 0.538804 0.248834 -0.533450
H13   H     H_    0.007831 0.628424 0.289804 0.252287
C50   C     C_3   0.975162 0.386706 0.237402 -0.514637
H14   H     H_    0.950999 0.358786 0.288570 0.182780
H15   H     H_    0.999071 0.257315 0.221145 0.190339
H16   H     H_    0.938763 0.424512 0.193537 0.204039
N3    N     N_2   0.799660 0.047048 0.556280 -0.529067
H17   H     H_    0.818264 0.178852 0.559473 0.252889
C51   C     C_3   0.770543 0.998091 0.485168 -0.533432
H18   H     H_    0.804859 0.023585 0.442608 0.203320
H19   H     H_    0.727810 0.084710 0.472294 0.189127
H20   H     H_    0.757671 0.849132 0.483581 0.204002
N4    N     N_2   0.200343 0.547085 0.443717 -0.529067
H21   H     H_    0.181742 0.678892 0.440523 0.252889
C52   C     C_3   0.229459 0.498130 0.514830 -0.533431
H22   H     H_    0.195143 0.523634 0.557389 0.203319
H23   H     H_    0.272193 0.584744 0.527704 0.189126
H24   H     H_    0.242328 0.349169 0.516419 0.204001
N5    N     N_2   0.516895 0.747721 0.743690 -0.523607
H25   H     H_    0.503608 0.651110 0.781292 0.282027
C53   C     C_3   0.471483 0.896411 0.730463 -0.523765
H26   H     H_    0.442001 0.912547 0.778355 0.180865
H27   H     H_    0.439736 0.862237 0.681683 0.208001
H28   H     H_    0.495196 0.030792 0.720778 0.188288
N6    N     N_2   0.483103 0.247695 0.256312 -0.523604
H29   H     H_    0.496389 0.151075 0.218711 0.282027
C54   C     C_3   0.528517 0.396383 0.269535 -0.523762
H30   H     H_    0.557998 0.412511 0.221641 0.180864
H31   H     H_    0.560264 0.362212 0.318315 0.207999
H32   H     H_    0.504805 0.530767 0.279218 0.188286
N7    N     N_2   0.591437 0.728853 0.878175 -0.528220
H33   H     H_    0.620716 0.649196 0.912733 0.253865
C55   C     C_3   0.563083 0.879602 0.916580 -0.549264
H34   H     H_    0.600308 0.979359 0.936623 0.191959
H35   H     H_    0.538958 0.824489 0.964275 0.197732
H36   H     H_    0.527198 0.952443 0.880166 0.216039
N8    N     N_2   0.408559 0.228800 0.121828 -0.528220
H37   H     H_    0.379279 0.149135 0.087273 0.253863
C56   C     C_3   0.436913 0.379539 0.083418 -0.549249
H38   H     H_    0.399688 0.479289 0.063368 0.191956
H39   H     H_    0.461040 0.324410 0.035726 0.197729
H40   H     H_    0.472798 0.452393 0.119829 0.216035

loop_
_geom_bond_atom_site_label_1
_geom_bond_atom_site_label_2
_ccdc_geom_bond_type
O14   V4    S    
C25   H7    S    
N2    H13   S    
C52   H22   S    
C9    C31   A    
C13   C15   A    
C33   C35   T    
C51   H18   S    
O1    C3    A    
O16   C48   A    
O2    C4    A    
C2    O7    A    
O15   V3    S    
N1    H9    S    
C51   H20   S    
N8    H37   S    
O5    C3    A    
O12   V3    S    
N5    C53   S    
N3    H17   S    
C21   C23   A    
C10   C12   A    
N7    C55   S    
N8    C56   S    
C38   C40   T    
C9    N5    S    
C15   C19   A    
C40   C42   S    
C41   C43   T    
N3    C51   S    
C42   C44   T    
C19   C21   A    
C7    C29   A    
C14   H6    S    
C8    C30   A    
N4    H21   S    
C36   C38   S    
C20   C28   A    
C56   H40   S    
C53   H26   S    
C50   H15   S    
C30   N2    S    
C8    C45   S    
C20   C22   A    
C54   H32   S    
O5    V1    S    
O6    V2    S    
O11   V4    S    
O18   V4    S    
C53   H27   S    
C10   N6    S    
N1    C49   S    
C55   H35   S    
C27   H3    S    
C23   C25   A    
C34   C36   T    
C39   C41   S    
C16   C20   A    
C16   C18   A    
O13   V3    S    
O4    C2    A    
O20   V3    S    
C24   N4    S    
C26   H8    S    
C1    C44   S    
O13   C45   A    
C2    C43   S    
O4    V2    S    
C5    C29   A    
C6    C30   A    
C49   H10   S    
O6    C4    A    
O12   C48   A    
C49   H12   S    
C46   O17   A    
O17   V3    S    
C23   N3    S    
C45   O18   A    
N6    C54   S    
O1    V2    S    
C28   H4    S    
C50   H16   S    
O2    V1    S    
C7    C27   A    
O14   C46   A    
N4    C52   S    
C52   H24   S    
C35   C37   S    
C56   H38   S    
C29   N1    S    
C53   H28   S    
C33   C48   S    
C12   N8    S    
O3    V1    S    
C54   H30   S    
C52   H23   S    
O19   V4    S    
N6    H29   S    
C49   H11   S    
C18   C32   A    
C55   H36   S    
C4    C31   S    
O3    C1    A    
C11   N7    S    
C55   H34   S    
C51   H19   S    
C11   C13   A    
N5    H25   S    
C12   C14   A    
O11   C47   A    
C7    C46   S    
C19   C27   A    
C14   C16   A    
O7    V1    S    
C10   C32   A    
C1    O8    A    
C15   C17   A    
O8    V2    S    
N7    H33   S    
O15   C47   A    
C8    C28   A    
C24   C26   A    
C22   C24   A    
C5    H1    S    
C17   C25   A    
C6    H2    S    
C18   C26   A    
C37   C39   T    
C34   C47   S    
C9    C11   A    
O16   V4    S    
C17   C31   A    
O9    V2    S    
C56   H39   S    
N2    C50   S    
O10   V1    S    
C3    C32   S    
C5    C21   A    
C50   H14   S    
C6    C22   A    
C13   H5    S    
C54   H31   S    
