data_mof_unit_32386.cif
_audit_creation_date              2012-12-11T21:12:05-0500
_audit_creation_method            fapswitch 2.2
_symmetry_space_group_name_H-M    P1
_symmetry_Int_Tables_number       1
_space_group_crystal_system       triclinic
_cell_length_a                    8.264168
_cell_length_b                    18.93782
_cell_length_c                    27.031693
_cell_angle_alpha                 100.087846
_cell_angle_beta                  92.314728
_cell_angle_gamma                 88.312811
_cell_volume                      4160.72567873

loop_
_atom_site_label
_atom_site_type_symbol
_atom_type_description
_atom_site_fract_x
_atom_site_fract_y
_atom_site_fract_z
_atom_type_partial_charge
Ba1   Ba    Ba6+2 0.160810 0.465630 0.521640 1.756206
Ba2   Ba    Ba6+2 0.649380 0.534380 0.478400 1.799706
C1    C     C_3   0.451719 0.237504 0.690369 -0.249272
C2    C     C_R   0.062154 0.092728 0.445754 -0.118022
C3    C     C_R   0.197257 0.949870 0.454310 -0.102210
C4    C     C_3   0.969751 0.274241 0.628987 0.421211
C5    C     C_R   0.047258 0.975291 0.474470 0.058676
C6    C     C_R   0.253906 0.880356 0.455343 -0.083397
C7    C     C_R   0.164831 0.832383 0.476745 0.021455
C8    C     C_R   0.017423 0.856895 0.500153 -0.010837
C9    C     C_R   0.958915 0.928761 0.498814 0.026827
C10   C     C_R   0.221228 0.761129 0.476524 0.050251
C11   C     C_R   0.129437 0.715209 0.498221 -0.227835
C12   C     C_3   0.485204 0.264494 0.642162 0.253622
C13   C     C_R   0.985826 0.736945 0.522171 0.055474
C14   C     C_R   0.931736 0.810608 0.526157 -0.042841
C15   C     C_R   0.842376 0.071744 0.497292 0.021732
C16   C     C_3   0.992979 0.205512 0.650514 -0.334769
C17   C     C_R   0.787409 0.144604 0.498798 -0.032953
C18   C     C_R   0.876576 0.192536 0.475754 -0.076470
C19   C     C_R   0.007475 0.163075 0.446236 0.628379
C20   C     C_R   0.800812 0.842037 0.555631 0.415222
C21   C     C_R   0.741700 0.910524 0.551996 -0.085641
C22   C     C_R   0.813733 0.954080 0.522511 -0.051122
C23   C     C_3   0.471770 0.314016 0.395442 0.254931
C24   C     C_R   0.751410 0.024411 0.519852 0.055170
C25   C     C_R   0.598144 0.048588 0.538119 -0.101840
C26   C     C_R   0.639945 0.168673 0.521917 0.042037
C27   C     C_R   0.544501 0.118962 0.539365 -0.080336
C28   C     C_3   0.838594 0.616014 0.629324 0.303634
C29   C     C_R   0.590324 0.241450 0.526033 0.031933
C30   C     C_R   0.688508 0.289712 0.508491 -0.259651
C31   C     C_R   0.827682 0.266842 0.482198 0.080319
C32   C     C_R   0.268681 0.444971 0.170036 0.615568
C33   C     C_R   0.213576 0.571272 0.176757 0.576364
C34   C     C_3   0.521100 0.236919 0.373679 0.422659
C35   C     C_2   0.050748 0.548225 0.270024 -0.065675
C36   C     C_3   0.042886 0.574115 0.325690 -0.041780
C37   C     C_1   0.277571 0.492998 0.335965 -0.035390
C38   C     C_2   0.310405 0.488681 0.287681 -0.156893
C39   C     C_2   0.188365 0.514824 0.251532 0.218196
C40   C     C_3   0.830522 0.631549 0.686333 -0.304993
C41   C     C_R   0.299515 0.502713 0.096878 -0.088316
C42   C     C_R   0.306572 0.440461 0.118940 -0.041839
C43   C     C_R   0.352092 0.375050 0.089536 -0.049414
C44   C     C_R   0.252809 0.568460 0.126177 -0.024078
C45   C     C_3   0.856898 0.732164 0.379579 0.346502
C46   C     C_2   0.153771 0.532795 0.356620 0.155198
C47   C     C_2   0.639930 0.467727 0.635055 -0.277213
C48   C     C_R   0.408502 0.428424 0.963518 -0.041252
C49   C     C_R   0.385691 0.560081 0.973963 -0.039639
C50   C     C_R   0.416682 0.492593 0.943256 0.041996
C51   C     C_R   0.429200 0.362358 0.930674 -0.140466
C52   C     C_3   0.008665 0.349421 0.361104 0.659639
C53   C     C_R   0.463283 0.359116 0.880369 0.647837
C54   C     C_R   0.479312 0.422210 0.860351 -0.092757
C55   C     C_R   0.456096 0.489219 0.891801 -0.228176
C56   C     C_3   0.823925 0.806912 0.367616 -0.356608
C57   C     C_R   0.471960 0.552805 0.871848 -0.101574
C58   C     C_R   0.514076 0.548280 0.821038 0.638312
C59   C     C_R   0.516893 0.419818 0.809536 0.634625
C60   C     C_2   0.713184 0.439082 0.721132 -0.086372
C61   C     C_3   0.738255 0.421050 0.665373 -0.069698
C62   C     C_1   0.516534 0.507598 0.654929 0.043460
C63   C     C_2   0.476421 0.512623 0.702576 -0.075919
C64   C     C_3   0.090189 0.294536 0.321282 -0.269464
C65   C     C_2   0.581202 0.478053 0.738584 0.193419
C66   C     C_R   0.378188 0.432111 0.015559 0.043465
C67   C     C_3   0.381672 0.692287 0.352633 0.326585
C68   C     C_R   0.338736 0.499276 0.045454 0.061545
C69   C     C_R   0.337801 0.563078 0.024448 0.044224
C70   C     C_R   0.387004 0.370831 0.039097 -0.095503
C71   C     C_R   0.245579 0.630387 0.104386 -0.055126
C72   C     C_R   0.405203 0.622620 0.953111 -0.141731
C73   C     C_R   0.447360 0.619267 0.903412 0.653644
C74   C     C_R   0.287100 0.627904 0.054787 -0.100057
C75   C     C_3   0.325330 0.688326 0.599497 0.283173
C76   C     C_3   0.297540 0.766249 0.624482 0.439422
C77   C     C_3   0.394289 0.714854 0.301742 -0.340208
C78   C     C_R   0.986806 0.046532 0.472901 -0.072933
Cl1   Cl    Cl    0.886844 0.406161 0.328677 -0.704245
Cl2   Cl    Cl    0.716964 0.807865 0.605108 -0.649831
Cl3   Cl    Cl    0.148793 0.562815 0.421190 -0.700314
F1    F     F_    0.270113 0.809693 0.588857 -0.726254
F2    F     F_    0.546552 0.197298 0.411657 -0.736047
F3    F     F_    0.082602 0.199743 0.415496 -0.709158
F4    F     F_    0.481225 0.293193 0.851508 -0.653065
F5    F     F_    0.463723 0.682099 0.886564 -0.637586
H1    H     H_    0.513744 0.322197 0.651555 0.037090
H2    H     H_    0.405701 0.686153 0.567287 0.078271
H3    H     H_    0.350470 0.269206 0.709874 0.175671
H4    H     H_    0.191564 0.770387 0.648912 0.046093
H5    H     H_    0.405467 0.785909 0.648110 0.122400
H6    H     H_    0.590277 0.232770 0.625196 -0.033247
H7    H     H_    0.561984 0.242644 0.715464 0.142291
H8    H     H_    0.579860 0.341254 0.414885 0.007500
H9    H     H_    0.376263 0.313444 0.423026 0.075379
H10   H     H_    0.633936 0.236305 0.352655 0.065317
H11   H     H_    0.424932 0.211064 0.347486 0.060482
H12   H     H_    0.733828 0.672425 0.697819 0.160425
H13   H     H_    0.419226 0.180054 0.681673 0.100410
H14   H     H_    0.934363 0.160594 0.624687 0.064247
H15   H     H_    0.819755 0.731685 0.418570 0.053027
H16   H     H_    0.989322 0.720987 0.377149 -0.064008
H17   H     H_    0.693881 0.822020 0.371953 0.153693
H18   H     H_    0.897185 0.846524 0.393620 0.065279
H19   H     H_    0.857207 0.808439 0.328430 0.124832
H20   H     H_    0.252266 0.684127 0.358830 -0.043184
H21   H     H_    0.451269 0.641053 0.351955 0.086888
H22   H     H_    0.368864 0.668374 0.271742 0.126898
H23   H     H_    0.804008 0.581985 0.700704 0.058342
H24   H     H_    0.518197 0.733193 0.297090 0.155138
H25   H     H_    0.025636 0.266766 0.591682 0.067159
H26   H     H_    0.305825 0.759111 0.298119 0.120322
H27   H     H_    0.176633 0.661987 0.499410 0.100475
H28   H     H_    0.370495 0.865370 0.439600 0.108730
H29   H     H_    0.426760 0.133601 0.554447 0.097475
H30   H     H_    0.650001 0.345460 0.512451 0.038189
H31   H     H_    0.277118 0.983113 0.438377 0.083559
H32   H     H_    0.162312 0.075293 0.421972 0.118391
H33   H     H_    0.644300 0.930909 0.576246 0.131169
H34   H     H_    0.948562 0.651842 0.703300 0.135584
H35   H     H_    0.837206 0.282976 0.623486 -0.157473
H36   H     H_    0.514185 0.013671 0.550835 0.088171
H37   H     H_    0.426865 0.467174 0.274184 0.138297
H38   H     H_    0.360991 0.326361 0.105484 0.131367
H39   H     H_    0.790906 0.413205 0.746313 0.105423
H40   H     H_    0.415881 0.311436 0.942424 0.113211
H41   H     H_    0.424422 0.318589 0.019867 0.083275
H42   H     H_    0.959378 0.567205 0.245170 0.108113
H43   H     H_    0.207749 0.681639 0.125780 0.128671
H44   H     H_    0.392618 0.675793 0.974740 0.112045
H45   H     H_    0.099853 0.381592 0.385650 -0.029111
H46   H     H_    0.123586 0.192158 0.654928 0.143226
H47   H     H_    0.366204 0.541190 0.715771 0.115025
H48   H     H_    0.274245 0.677874 0.041031 0.083486
H49   H     H_    0.656550 0.458473 0.594808 0.072405
H50   H     H_    0.936688 0.211978 0.687707 0.126527
H51   H     H_    0.718356 0.599807 0.612753 -0.003089
H52   H     H_    0.928004 0.571714 0.618764 0.065687
H53   H     H_    0.166634 0.256899 0.339554 0.129806
H54   H     H_    0.165382 0.321659 0.297426 0.115454
H55   H     H_    0.997537 0.262872 0.296648 0.138581
H56   H     H_    0.206734 0.664929 0.586520 -0.047414
N1    N     N_R   0.223207 0.510032 0.198536 -0.423652
N2    N     N_R   0.536637 0.482302 0.790645 -0.447235
O1    O     O_2   0.106080 0.324280 0.466820 -0.434844
O2    O     O_2   0.702831 0.545569 0.325950 -0.445916
O3    O     O_3   0.767745 0.682026 0.345301 -0.608363
O4    O     O_3   0.859130 0.413620 0.470620 -0.471858
O5    O     O_3   0.459240 0.537930 0.559910 -0.486366
O6    O     O_2   0.583120 0.462390 0.379940 -0.383784
O7    O     O_3   0.410940 0.347821 0.356039 -0.690989
O8    O     O_2   0.559985 0.756693 0.481361 -0.474430
O9    O     O_3   0.446251 0.745934 0.389974 -0.616528
O10   O     O_2   0.274223 0.390807 0.188928 -0.577536
O11   O     O_2   0.531118 0.361915 0.781806 -0.548688
O12   O     O_3   0.399252 0.651755 0.635198 -0.668987
O13   O     O_2   0.171873 0.628703 0.201568 -0.618788
O14   O     O_2   0.532530 0.602994 0.803951 -0.506780
O15   O     O_3   0.376230 0.370290 0.556910 -0.476707
O16   O     O_2   0.255266 0.244234 0.516546 -0.458238
O17   O     O_3   0.906347 0.312597 0.387149 -0.599815
O18   O     O_3   0.347551 0.255048 0.609893 -0.599718
O19   O     O_2   0.227190 0.537650 0.620070 -0.463678
O20   O     O_3   0.971110 0.406970 0.583250 -0.498463
O21   O     O_2   0.061625 0.472623 0.675580 -0.483461
O22   O     O_3   0.042980 0.331704 0.661750 -0.566927
O23   O     O_2   0.704230 0.675760 0.533200 -0.433907
O24   O     O_3   0.951180 0.586390 0.529420 -0.474124
O25   O     O_3   0.434080 0.629720 0.443130 -0.440738
O26   O     O_3   0.885123 0.678290 0.613047 -0.579327
O27   O     O_3   0.351080 0.462080 0.440130 -0.418934
O28   O     O_3   0.839200 0.593040 0.416790 -0.411180
P1    P     P_3+3 0.929380 0.335110 0.452880 1.091783
P2    P     P_3+3 0.398530 0.559060 0.613740 0.997878
P3    P     P_3+3 0.954793 0.411288 0.647746 0.967944
P4    P     P_3+3 0.880940 0.664900 0.547160 1.066574
P5    P     P_3+3 0.836308 0.595979 0.352241 1.064542
P6    P     P_3+3 0.394514 0.277209 0.552066 0.970407
P7    P     P_3+3 0.400522 0.440661 0.376396 1.031580
P8    P     P_3+3 0.414465 0.723352 0.448778 0.981437

loop_
_geom_bond_atom_site_label_1
_geom_bond_atom_site_label_2
_ccdc_geom_bond_type
Ba2   O4    S    
C53   C54   A    
C71   H43   S    
Ba1   P2    S    
C47   C61   S    
C47   H49   S    
C25   C27   A    
Ba1   O24   S    
O25   P8    S    
C17   C18   A    
C49   C72   A    
C41   C42   A    
O17   P1    S    
O28   P5    S    
C74   H48   S    
O9    P8    S    
C70   H41   S    
C21   H33   S    
C64   H53   S    
C75   C76   S    
C54   C55   A    
O19   P2    D    
C5    C9    A    
Ba1   O27   S    
C24   C25   A    
C67   O9    S    
C49   C69   A    
C77   H24   S    
C3    H31   S    
C15   C24   A    
C20   Cl2   S    
C26   C27   A    
C22   C24   A    
Ba1   Ba2   S    
C72   H44   S    
Ba2   O27   S    
C33   N1    Am   
C69   C74   A    
C32   N1    Am   
O1    P1    D    
C55   C57   A    
C76   H5    S    
O26   P4    S    
C13   C14   A    
C9    C22   A    
O3    P5    S    
C35   H42   S    
C1    H3    S    
C56   H19   S    
C16   H14   S    
C16   H50   S    
C67   H21   S    
C10   P8    S    
C45   O3    S    
C6    C7    A    
C63   C65   S    
C48   C50   A    
C21   C22   A    
Ba1   O5    S    
C68   C69   A    
C45   H16   S    
C52   O17   S    
C62   P2    S    
C7    C8    A    
O7    P7    S    
O16   P6    D    
O18   P6    S    
C75   O12   S    
C1    H13   S    
O4    P1    S    
Ba1   O15   S    
C57   C58   A    
C47   C62   D    
C43   C70   A    
C53   F4    S    
C4    H25   S    
C58   N2    Am   
C4    H35   S    
C65   N2    S    
C41   C44   A    
C67   H20   S    
C51   C53   A    
Ba2   O6    S    
C4    C16   S    
C4    O22   S    
C75   H2    S    
C48   C51   A    
C45   H15   S    
C72   C73   A    
C23   O7    S    
C49   C50   A    
C32   C42   A    
C8    C9    A    
C37   C38   D    
C3    C5    A    
C64   H55   S    
Ba2   O23   S    
C76   H4    S    
C52   H45   S    
C27   H29   S    
C23   H9    S    
C15   C78   A    
O5    P2    S    
C56   H18   S    
C28   H51   S    
C40   H23   S    
C12   H1    S    
C35   C36   S    
C51   H40   S    
C40   H12   S    
C29   C30   A    
Ba1   O19   S    
C43   H38   S    
C66   C70   A    
C60   C61   S    
Ba1   O4    S    
O20   P3    S    
C37   P7    S    
C18   C19   A    
O15   P6    S    
C17   C26   A    
C28   O26   S    
C11   H27   S    
C1    C12   S    
Ba2   O24   S    
C64   H54   S    
C59   O11   D    
C60   C65   D    
O12   P2    S    
C38   C39   S    
O21   P3    D    
O24   P4    S    
C13   P4    S    
C41   C68   A    
C11   C13   A    
C71   C74   A    
C67   C77   S    
C18   C31   A    
C57   C73   A    
O23   P4    D    
C5    C78   A    
C42   C43   A    
C40   H34   S    
C63   H47   S    
Ba2   O5    S    
C19   F3    S    
Ba1   P1    S    
C14   C20   A    
C36   P5    S    
C77   H22   S    
C54   C59   A    
C36   C46   S    
C26   C29   A    
C28   C40   S    
C58   O14   D    
C30   H30   S    
C28   H52   S    
C3    C6    A    
C1    H7    S    
C25   H36   S    
C2    C78   A    
C52   C64   S    
C32   O10   D    
C34   F2    S    
O2    P5    D    
Ba2   P4    S    
Ba2   O25   S    
C61   P3    S    
C46   Cl3   S    
C29   P6    S    
C56   H17   S    
C62   C63   D    
C75   H56   S    
C8    C14   A    
C30   C31   A    
C45   C56   S    
C2    C19   A    
C60   H39   S    
Ba1   O20   S    
C38   H37   S    
O8    P8    D    
C15   C17   A    
C16   H46   S    
C34   H11   S    
C44   C71   A    
C35   C39   D    
C31   P1    S    
C7    C10   A    
C33   O13   D    
Ba1   O1    S    
C50   C55   A    
C6    H28   S    
C23   C34   S    
O27   P7    S    
C76   F1    S    
C73   F5    S    
C39   N1    S    
C10   C11   A    
C23   H8    S    
C66   C68   A    
C77   H26   S    
C20   C21   A    
C2    H32   S    
C34   H10   S    
C59   N2    Am   
O6    P7    D    
C33   C44   A    
C48   C66   A    
C12   O18   S    
C12   H6    S    
C52   Cl1   S    
Ba2   O28   S    
O22   P3    S    
C37   C46   D    
