data_mof_unit_25605.cif
_audit_creation_date              2012-12-11T15:35:33-0500
_audit_creation_method            fapswitch 2.2
_symmetry_space_group_name_H-M    P1
_symmetry_Int_Tables_number       1
_space_group_crystal_system       triclinic
_cell_length_a                    17.327033
_cell_length_b                    24.119595
_cell_length_c                    14.83597
_cell_angle_alpha                 90.070158
_cell_angle_beta                  124.350193
_cell_angle_gamma                 90.017713
_cell_volume                      5118.95683556

loop_
_atom_site_label
_atom_site_type_symbol
_atom_type_description
_atom_site_fract_x
_atom_site_fract_y
_atom_site_fract_z
_atom_type_partial_charge
C1    C     C_R   0.308549 0.122883 0.909176 -0.025645
C2    C     C_R   0.598596 0.125328 0.908227 -0.106348
C3    C     C_R   0.251316 0.546967 0.303239 -0.126143
C4    C     C_R   0.059509 0.346793 0.911636 -0.138000
C5    C     C_R   0.060705 0.653101 0.912284 -0.139381
C6    C     C_R   0.423069 0.999853 0.627885 0.068923
C7    C     C_R   0.057996 0.500116 0.733016 0.086451
C8    C     C_R   0.817991 0.001741 0.336292 0.159119
C9    C     C_R   0.296468 0.501235 0.367166 0.162768
C10   C     C_R   0.686627 0.139033 0.999265 0.062522
C11   C     C_R   0.685306 0.858493 0.999900 0.067810
C12   C     C_R   0.124008 0.683460 0.004757 0.089847
C13   C     C_R   0.308517 0.877042 0.910289 -0.083807
C14   C     C_R   0.121487 0.315955 0.003631 0.080642
C15   C     C_3   0.050774 0.971951 0.598991 0.780336
C16   C     C_3   0.061895 0.063947 0.517606 0.928838
C17   C     C_3   0.511887 0.459915 0.649706 0.853622
C18   C     C_3   0.525694 0.560981 0.606295 0.935965
C19   C     C_3   0.943907 0.977291 0.519778 -0.603413
C20   C     C_3   0.956004 0.062899 0.433263 -0.700450
C21   C     C_3   0.410159 0.455459 0.545204 -0.716852
C22   C     C_3   0.418631 0.557248 0.526462 -0.674856
C23   C     C_3   0.072026 0.971106 0.438833 0.920680
C24   C     C_R   0.856708 0.653755 0.909907 0.015784
C25   C     C_3   0.556391 0.482330 0.512693 0.859974
C26   C     C_3   0.099664 0.001715 0.547484 -0.018654
C27   C     C_3   0.569294 0.500384 0.623186 0.015738
C28   C     C_3   0.918968 0.002850 0.412030 0.210365
C29   C     C_3   0.392675 0.501703 0.463286 0.207352
C30   C     C_R   0.402058 0.875143 0.093062 -0.106729
C31   C     C_R   0.401243 0.125161 0.092062 -0.149387
C32   C     C_R   0.944911 0.346149 0.089968 -0.089995
C33   C     C_R   0.947174 0.654032 0.091104 -0.057385
C34   C     C_3   0.963243 0.969909 0.361612 -0.710191
C35   C     C_R   0.853909 0.347122 0.908378 0.021785
C36   C     C_3   0.454120 0.492893 0.418591 -0.668253
C37   C     C_R   0.151437 0.822725 0.915785 0.544449
C38   C     C_R   0.151307 0.178667 0.909886 0.529659
C39   C     C_R   0.804364 0.224825 0.901315 0.546127
C40   C     C_R   0.811363 0.776771 0.905957 0.541666
C41   C     C_R   0.751036 0.181629 0.902649 -0.326347
C42   C     C_R   0.752665 0.816497 0.905130 -0.191042
C43   C     C_R   0.109034 0.773545 0.914618 -0.198785
C44   C     C_R   0.106482 0.226748 0.910705 -0.321824
C45   C     C_R   0.761913 0.167281 0.000516 0.105058
C46   C     C_R   0.686918 0.126407 0.090480 -0.113339
C47   C     C_R   0.760728 0.829686 0.002116 0.037113
C48   C     C_R   0.149825 0.741522 0.009693 0.028155
C49   C     C_R   0.145730 0.257636 0.007135 0.105204
C50   C     C_R   0.839721 0.187020 0.099293 -0.146064
C51   C     C_R   0.838362 0.810443 0.101670 -0.149047
C52   C     C_R   0.222162 0.764173 0.109262 -0.141484
C53   C     C_R   0.216660 0.234140 0.106212 -0.149288
C54   C     C_R   0.266021 0.812017 0.109962 -0.185823
C55   C     C_R   0.261693 0.187123 0.105786 -0.234972
C56   C     C_R   0.890511 0.230859 0.098570 -0.226016
C57   C     C_R   0.685862 0.872294 0.090943 -0.101353
C58   C     C_R   0.892905 0.768620 0.102168 -0.168826
C59   C     C_R   0.239258 0.836718 0.010762 -0.047625
C60   C     C_R   0.237593 0.164163 0.006113 0.068056
C61   C     C_R   0.864926 0.254585 0.999096 0.057654
C62   C     C_R   0.871335 0.746422 0.003164 -0.062706
C63   C     C_R   0.389349 0.949704 0.465011 0.433643
C64   C     C_R   0.388891 0.049913 0.464959 0.441999
C65   C     C_R   0.123126 0.450228 0.642005 0.416499
C66   C     C_R   0.121895 0.550482 0.641696 0.477394
C67   C     C_R   0.431010 0.949854 0.407668 -0.340911
C68   C     C_R   0.151901 0.650150 0.093651 -0.110867
C69   C     C_R   0.430608 0.050013 0.407670 -0.349566
C70   C     C_R   0.111360 0.450176 0.541374 -0.167397
C71   C     C_R   0.112566 0.550053 0.541741 -0.303842
C72   C     C_R   0.461377 0.000013 0.389892 0.111046
C73   C     C_R   0.096362 0.500067 0.484988 0.068644
C74   C     C_R   0.522000 0.045600 0.289154 0.575933
C75   C     C_R   0.522513 0.954603 0.289554 0.571144
C76   C     C_R   0.044517 0.545703 0.302083 0.635444
C77   C     C_R   0.044617 0.454371 0.302101 0.622668
C78   C     C_R   0.386863 0.999789 0.511597 0.081414
C79   C     C_R   0.150505 0.349383 0.093011 -0.126098
C80   C     C_R   0.109923 0.500348 0.680873 -0.115750
C81   C     C_R   0.249691 0.954735 0.693722 0.726127
C82   C     C_R   0.251356 0.046156 0.694880 0.731174
C83   C     C_R   0.730440 0.453530 0.741373 0.746346
C84   C     C_R   0.731024 0.546181 0.745933 0.764089
C85   C     C_R   0.310866 0.135924 0.002094 0.024554
C86   C     C_R   0.311619 0.864472 0.004163 0.007077
C87   C     C_R   0.890983 0.687201 0.000887 -0.030772
C88   C     C_R   0.886530 0.313601 0.998672 -0.011461
C89   C     C_R   0.511527 0.000123 0.337466 -0.155825
C90   C     C_R   0.597972 0.873179 0.908494 -0.111220
C91   C     C_R   0.060359 0.500055 0.367783 -0.252077
C92   C     C_R   0.202649 0.000861 0.630298 -0.181643
C93   C     C_R   0.672138 0.499904 0.710133 -0.250587
C94   C     C_R   0.445606 0.045564 0.694477 -0.107757
C95   C     C_R   0.445567 0.954251 0.694480 -0.115686
C96   C     C_R   0.022668 0.546040 0.755310 -0.048703
C97   C     C_R   0.021920 0.454058 0.754126 -0.136604
C98   C     C_R   0.764894 0.954446 0.290258 -0.136843
C99   C     C_R   0.762257 0.047361 0.289708 -0.136099
C100  C     C_R   0.252306 0.454430 0.304981 -0.141160
F1    F     F_    0.551380 0.096454 0.335571 -0.710751
F2    F     F_    0.552918 0.904052 0.336723 -0.705024
F3    F     F_    0.068359 0.599014 0.334653 -0.733831
F4    F     F_    0.069064 0.401196 0.334948 -0.731854
F5    F     F_    0.243192 0.902154 0.657822 -0.626233
F6    F     F_    0.253881 0.097445 0.659396 -0.652371
F7    F     F_    0.706076 0.400127 0.711241 -0.632804
F8    F     F_    0.708146 0.600268 0.733221 -0.663675
H1    H     H_    0.251492 0.127469 0.824908 0.217087
H2    H     H_    0.937739 0.081930 0.355094 0.191599
H3    H     H_    0.399279 0.414143 0.506503 0.187728
H4    H     H_    0.394958 0.593925 0.472481 0.172484
H5    H     H_    0.936167 0.926717 0.343431 0.169984
H6    H     H_    0.939554 0.988324 0.281096 0.210237
H7    H     H_    0.428136 0.458021 0.358977 0.182853
H8    H     H_    0.449234 0.530559 0.372152 0.230846
H9    H     H_    0.697338 0.162287 0.826615 0.129997
H10   H     H_    0.699540 0.835442 0.828418 0.148455
H11   H     H_    0.046748 0.759894 0.838660 0.145218
H12   H     H_    0.250555 0.871981 0.826408 0.206426
H13   H     H_    0.045326 0.241464 0.835007 0.137356
H14   H     H_    0.856139 0.173291 0.177521 0.120008
H15   H     H_    0.852412 0.823030 0.179442 0.123481
H16   H     H_    0.251761 0.742753 0.185900 0.127029
H17   H     H_    0.244461 0.254499 0.183634 0.127907
H18   H     H_    0.327077 0.825005 0.187380 0.139122
H19   H     H_    0.321648 0.173361 0.183299 0.144072
H20   H     H_    0.942440 0.249353 0.176296 0.149814
H21   H     H_    0.944172 0.749989 0.179908 0.147570
H22   H     H_    0.429676 0.867537 0.177004 0.170665
H23   H     H_    0.821609 0.667721 0.826889 0.194023
H24   H     H_    0.428130 0.133062 0.175816 0.177855
H25   H     H_    0.991916 0.331974 0.172883 0.166044
H26   H     H_    0.994928 0.667829 0.174260 0.161187
H27   H     H_    0.440513 0.910869 0.379286 0.196780
H28   H     H_    0.439823 0.089056 0.379318 0.197410
H29   H     H_    0.111676 0.410562 0.508219 0.235452
H30   H     H_    0.113445 0.589234 0.507945 0.222861
H31   H     H_    0.429380 0.088382 0.670399 0.201050
H32   H     H_    0.429247 0.911390 0.670416 0.198854
H33   H     H_    0.032050 0.589212 0.746031 0.168821
H34   H     H_    0.818796 0.333865 0.825000 0.227012
H35   H     H_    0.030050 0.410912 0.742662 0.154660
H36   H     H_    0.784953 0.912349 0.318597 0.110873
H37   H     H_    0.776830 0.089929 0.316553 0.113070
H38   H     H_    0.267032 0.411599 0.330555 0.122758
H39   H     H_    0.261120 0.590186 0.325790 0.119383
H40   H     H_    0.741644 0.134777 0.173931 0.092001
H41   H     H_    0.739864 0.864079 0.174742 0.093020
H42   H     H_    0.189952 0.662456 0.178337 0.095278
H43   H     H_    0.188476 0.337008 0.177596 0.100380
H44   H     H_    0.572354 0.868066 0.823642 0.106603
H45   H     H_    0.915347 0.003815 0.555971 0.212047
H46   H     H_    0.572773 0.130030 0.823292 0.105739
H47   H     H_    0.014384 0.331742 0.828849 0.117430
H48   H     H_    0.015907 0.668528 0.829830 0.103454
H49   H     H_    0.050163 0.977815 0.730576 0.320594
H50   H     H_    0.063027 0.131582 0.592962 0.319657
H51   H     H_    0.474498 0.456859 0.752399 0.313835
H52   H     H_    0.518158 0.619321 0.693718 0.316317
H53   H     H_    0.067618 0.889563 0.457948 0.351018
H54   H     H_    0.094998 0.979019 0.324868 0.333539
H55   H     H_    0.527493 0.401796 0.497542 0.336180
H56   H     H_    0.921803 0.088275 0.464065 0.192256
H57   H     H_    0.609204 0.499907 0.429438 0.342008
H58   H     H_    0.130363 0.893227 0.845233 0.307714
H59   H     H_    0.053567 0.163375 0.757566 0.328543
H60   H     H_    0.750309 0.214027 0.746395 0.333663
H61   H     H_    0.868534 0.754276 0.832218 0.298026
H62   H     H_    0.363578 0.870472 0.443031 0.324812
H63   H     H_    0.362337 0.129018 0.442862 0.324423
H64   H     H_    0.175109 0.409488 0.775971 0.318111
H65   H     H_    0.145826 0.630063 0.660234 0.330978
H66   H     H_    0.039057 0.897331 0.642969 0.350962
H67   H     H_    0.358159 0.458707 0.566527 0.208888
H68   H     H_    0.080242 0.130983 0.456028 0.315596
H69   H     H_    0.511915 0.382985 0.692122 0.315992
H70   H     H_    0.539376 0.635109 0.560968 0.329676
H71   H     H_    0.383907 0.559879 0.570667 0.219450
H72   H     H_    0.909679 0.936085 0.504567 0.179389
N1    N     N_R   0.392140 0.102630 0.941800 -0.059759
N2    N     N_R   0.525160 0.972040 0.206160 -0.141542
N3    N     N_R   0.025160 0.527960 0.206160 -0.139896
N4    N     N_R   0.025160 0.472040 0.206160 -0.137093
N5    N     N_R   0.317870 0.971120 0.792790 -0.174785
N6    N     N_R   0.317870 0.028880 0.792790 -0.171026
N7    N     N_R   0.817870 0.471120 0.792790 -0.171717
N8    N     N_R   0.817870 0.528880 0.792790 -0.169925
N9    N     N_R   0.473480 0.027920 0.793480 -0.070084
N10   N     N_R   0.473480 0.972080 0.793480 -0.071067
N11   N     N_R   0.973480 0.527920 0.793480 -0.061147
N12   N     N_R   0.392140 0.897370 0.941800 -0.047379
N13   N     N_R   0.973480 0.472080 0.793480 -0.047465
N14   N     N_R   0.681610 0.971120 0.207570 -0.047045
N15   N     N_R   0.681610 0.028880 0.207570 -0.048057
N16   N     N_R   0.181610 0.471120 0.207570 -0.050147
N17   N     N_R   0.181610 0.528880 0.207570 -0.052512
N18   N     N_R   0.605410 0.102620 0.056870 -0.041934
N19   N     N_R   0.605410 0.897380 0.056870 -0.043511
N20   N     N_R   0.105410 0.602620 0.056870 -0.043245
N21   N     N_R   0.105410 0.397380 0.056870 -0.040746
N22   N     N_R   0.549680 0.896430 0.944180 -0.044299
N23   N     N_R   0.892140 0.602630 0.941800 -0.062662
N24   N     N_R   0.549680 0.103570 0.944180 -0.044520
N25   N     N_R   0.049680 0.396430 0.944180 -0.050626
N26   N     N_R   0.049680 0.603570 0.944180 -0.052062
N27   N     N_R   0.892140 0.397370 0.941800 -0.076051
N28   N     N_R   0.450890 0.896450 0.057150 -0.044554
N29   N     N_R   0.450890 0.103550 0.057150 -0.043168
N30   N     N_R   0.950890 0.396450 0.057150 -0.049657
N31   N     N_R   0.950890 0.603550 0.057150 -0.052858
N32   N     N_R   0.525160 0.027960 0.206160 -0.139565
Ni1   Ni    Ni4+2 0.433410 0.064680 0.868830 0.263800
Ni2   Ni    Ni4+2 0.433410 0.935320 0.868830 0.263884
Ni3   Ni    Ni4+2 0.933410 0.564680 0.868830 0.233935
Ni4   Ni    Ni4+2 0.933410 0.435320 0.868830 0.242309
Ni5   Ni    Ni4+2 0.565650 0.934380 0.131170 0.263937
Ni6   Ni    Ni4+2 0.565650 0.065620 0.131170 0.260961
Ni7   Ni    Ni4+2 0.065650 0.434380 0.131170 0.241915
Ni8   Ni    Ni4+2 0.065650 0.565620 0.131170 0.238002
O1    O     O_3   0.081044 0.997113 0.699884 -0.731806
O2    O     O_3   0.114372 0.147331 0.816286 -0.738865
O3    O     O_3   0.795356 0.239401 0.805912 -0.775060
O4    O     O_3   0.806471 0.767945 0.811191 -0.741025
O5    O     O_3   0.356156 0.901441 0.481579 -0.722596
O6    O     O_3   0.355179 0.097990 0.481415 -0.715810
O7    O     O_3   0.143888 0.400751 0.697375 -0.744964
O8    O     O_3   0.139067 0.599140 0.699293 -0.760817
O9    O     O_3   0.074446 0.915230 0.616818 -0.741218
O10   O     O_3   0.104522 0.092432 0.473248 -0.642062
O11   O     O_3   0.551593 0.406629 0.679028 -0.690646
O12   O     O_3   0.080606 0.092024 0.611767 -0.702844
O13   O     O_3   0.558568 0.596560 0.559107 -0.676384
O14   O     O_3   0.511203 0.482103 0.737340 -0.710091
O15   O     O_3   0.549219 0.582755 0.707380 -0.674319
O16   O     O_3   0.110527 0.917183 0.459286 -0.662539
O17   O     O_3   0.107624 0.001075 0.388469 -0.676180
O18   O     O_3   0.580255 0.426063 0.514501 -0.681845
O19   O     O_3   0.615056 0.514523 0.495692 -0.700188
O20   O     O_3   0.107091 0.854704 0.823136 -0.774409

loop_
_geom_bond_atom_site_label_1
_geom_bond_atom_site_label_2
_ccdc_geom_bond_type
C44   C49   A    
N26   Ni3   S    
C2    C10   A    
C24   N23   A    
C58   C62   A    
N3    Ni8   S    
C31   C85   A    
C22   C29   S    
C51   H15   S    
C53   C55   A    
C11   C47   S    
N19   Ni5   S    
C12   C48   S    
N23   N31   A    
N16   Ni7   S    
C64   O6    S    
C17   O11   S    
C18   O13   S    
C82   C92   A    
C4    N25   A    
C63   O5    S    
C17   O14   S    
C34   H5    S    
C15   C19   S    
C7    C96   A    
C12   C68   A    
C29   C36   S    
C65   O7    S    
C95   H32   S    
C13   N12   A    
C82   N6    A    
C24   H23   S    
N29   Ni6   S    
C25   O18   S    
C96   N11   A    
N23   Ni3   S    
C8    C99   A    
C32   H25   S    
C23   O17   S    
H64   O7    S    
C49   C53   A    
C46   N18   A    
H61   O4    S    
C25   O19   S    
C58   H21   S    
H58   O20   S    
C65   C70   A    
C83   C93   A    
N6    Ni1   S    
C99   N15   A    
C44   H13   S    
N16   N17   A    
C77   N4    A    
C40   C62   A    
N5    Ni2   S    
C98   N14   A    
C6    C78   S    
N1    N29   A    
C67   C72   A    
C23   C26   S    
C97   N13   A    
N21   N25   A    
C8    C98   A    
H68   O10   S    
C97   H35   S    
C95   N10   A    
C1    H1    S    
C5    N26   A    
C81   C92   A    
C33   H26   S    
N4    Ni7   S    
C46   H40   S    
N25   Ni4   S    
C100  H38   S    
C79   N21   A    
H52   O15   S    
C50   H14   S    
C13   C86   A    
C10   C46   A    
N19   N22   A    
C30   C86   A    
C76   N3    A    
C43   C48   A    
C9    C29   S    
C53   H17   S    
N11   Ni3   S    
C76   F3    S    
C40   C42   A    
N14   N15   A    
C99   H37   S    
C28   C34   S    
C2    H46   S    
C65   C80   A    
C55   C60   A    
C57   N19   A    
H49   O1    S    
C94   H31   S    
N12   N28   A    
C39   O3    S    
N18   Ni6   S    
C10   C45   S    
C81   N5    A    
C42   C47   A    
C21   H3    S    
N8    Ni3   S    
C52   C54   A    
N14   Ni5   S    
C81   F5    S    
C54   C59   A    
C100  N16   A    
C16   C26   S    
C34   H6    S    
C39   C61   A    
C63   C67   A    
H57   O19   S    
C32   C88   A    
C17   C27   S    
C21   H67   S    
C2    N24   A    
N21   Ni7   S    
C5    C12   A    
C39   C41   A    
H50   O12   S    
C71   C73   A    
H54   O17   S    
C1    N1    A    
C18   O15   S    
C42   H10   S    
C15   C26   S    
C47   C51   A    
C20   C28   S    
C75   F2    S    
C6    C94   A    
C30   H22   S    
C21   C29   S    
N24   Ni1   S    
C16   O12   S    
C17   C21   S    
N30   Ni7   S    
C57   H41   S    
C76   C91   A    
C37   C43   A    
C69   C72   A    
C67   H27   S    
N3    N4    A    
N11   N13   A    
H59   O2    S    
C38   C44   A    
C31   H24   S    
C3    C9    A    
C61   C88   S    
N27   N30   A    
C32   N30   A    
C35   C88   A    
C82   F6    S    
C66   C71   A    
C31   N29   A    
H63   O6    S    
C48   C52   A    
N31   Ni8   S    
C16   C20   S    
C23   C34   S    
C30   N28   A    
C70   C73   A    
N2    N32   A    
N12   Ni2   S    
C51   C58   A    
C71   H30   S    
N22   Ni2   S    
C19   C28   S    
N10   Ni2   S    
C73   C91   S    
C37   C59   A    
H55   O18   S    
N9    Ni1   S    
N2    Ni5   S    
C74   F1    S    
C20   H2    S    
C23   O16   S    
C90   H44   S    
C83   N7    A    
C40   O4    S    
C9    C100  A    
C22   H4    S    
N18   N24   A    
C25   C27   S    
C19   H45   S    
H51   O14   S    
C38   C60   A    
C84   N8    A    
C1    C85   A    
C8    C28   S    
H60   O3    S    
C66   O8    S    
N17   Ni8   S    
C13   H12   S    
C66   C80   A    
C14   C49   S    
C74   C89   A    
N13   Ni4   S    
C79   H43   S    
C77   F4    S    
C35   N27   A    
N28   Ni5   S    
C68   H42   S    
N7    Ni4   S    
C77   C91   A    
N20   N26   A    
C7    C97   A    
C98   H36   S    
C25   C36   S    
C18   C22   S    
C64   C78   A    
C18   C27   S    
C55   H19   S    
C22   H71   S    
C37   O20   S    
H65   O8    S    
H69   O11   S    
H70   O13   S    
C24   C87   A    
C60   C85   S    
C69   H28   S    
C5    H48   S    
C64   C69   A    
C62   C87   S    
C68   N20   A    
C38   O2    S    
C27   C93   S    
C33   C87   A    
C59   C86   S    
N7    N8    A    
C96   H33   S    
C3    H39   S    
C72   C89   S    
C52   H16   S    
C11   C90   A    
N5    N6    A    
H53   O16   S    
N32   Ni6   S    
C45   C50   A    
C36   H7    S    
N20   Ni8   S    
C16   O10   S    
N27   Ni4   S    
C3    N17   A    
C83   F7    S    
C84   C93   A    
C56   H20   S    
C4    C14   A    
N9    N10   A    
C33   N31   A    
H66   O9    S    
C50   C56   A    
C94   N9    A    
C14   C79   A    
C75   C89   A    
C35   H34   S    
C54   H18   S    
C84   F8    S    
C4    H47   S    
C15   O1    S    
C70   H29   S    
C6    C95   A    
H62   O5    S    
C74   N32   A    
C41   C45   A    
C56   C61   A    
C20   H56   S    
N1    Ni1   S    
C41   H9    S    
C11   C57   A    
C75   N2    A    
C26   C92   S    
C19   H72   S    
N15   Ni6   S    
C15   O9    S    
C43   H11   S    
C7    C80   S    
C90   N22   A    
C63   C78   A    
C36   H8    S    
