data_mof_unit_56721.cif
_audit_creation_date              2012-12-10T16:53:07-0500
_audit_creation_method            fapswitch 2.2
_symmetry_space_group_name_H-M    P1
_symmetry_Int_Tables_number       1
_space_group_crystal_system       triclinic
_cell_length_a                    10.785428
_cell_length_b                    10.920448
_cell_length_c                    9.697578
_cell_angle_alpha                 90.623433
_cell_angle_beta                  89.957345
_cell_angle_gamma                 89.941079
_cell_volume                      1142.12873258

loop_
_atom_site_label
_atom_site_type_symbol
_atom_type_description
_atom_site_fract_x
_atom_site_fract_y
_atom_site_fract_z
_atom_type_partial_charge
C1    C     C_R   0.504556 0.265318 0.498955 0.897258
C2    C     C_R   0.065420 0.604654 0.576797 0.098527
C3    C     C_R   0.128914 0.512984 0.500202 -0.093591
C4    C     C_R   0.064205 0.427677 0.420048 -0.211535
C5    C     C_R   0.936342 0.427780 0.419819 -0.179145
C6    C     C_R   0.871143 0.513062 0.499836 -0.109073
C7    C     C_2   0.533480 0.930921 0.390400 -0.243905
C8    C     C_2   0.516714 0.866467 0.505453 -0.324530
C9    C     C_2   0.555220 0.063620 0.394387 0.026942
C10   C     C_2   0.503942 0.132645 0.496412 -0.337255
C11   C     C_2   0.427560 0.430517 0.921372 -0.057475
C12   C     C_R   0.262634 0.504333 0.500155 0.779361
C13   C     C_2   0.429882 0.428190 0.077016 -0.048412
C14   C     C_R   0.503097 0.734712 0.500943 0.834584
C15   C     C_R   0.737398 0.504236 0.499982 0.811353
C16   C     C_R   0.128983 0.698575 0.649231 -0.175489
C17   C     C_R   0.063879 0.789122 0.721409 -0.134475
C18   C     C_R   0.934933 0.789230 0.721112 -0.130680
C19   C     C_R   0.870250 0.698765 0.648664 -0.178521
C20   C     C_R   0.934226 0.604718 0.576562 0.093128
Cu1   Cu    Cu3+1 0.500020 0.500020 0.638630 0.939421
Cu2   Cu    Cu3+1 0.499980 0.499980 0.361370 0.971331
H1    H     H_    0.113097 0.358777 0.359721 0.149807
H2    H     H_    0.450218 0.091258 0.578097 0.125583
H3    H     H_    0.362382 0.370214 0.869362 0.152399
H4    H     H_    0.562801 0.553895 0.894529 0.192914
H5    H     H_    0.369045 0.363620 0.127625 0.144984
H6    H     H_    0.554341 0.562150 0.106754 0.191241
H7    H     H_    0.228973 0.704801 0.648782 0.149859
H8    H     H_    0.113742 0.860476 0.776296 0.134015
H9    H     H_    0.884755 0.860666 0.775758 0.135735
H10   H     H_    0.770267 0.705175 0.647722 0.143644
H11   H     H_    0.887937 0.359043 0.359228 0.202198
H12   H     H_    0.538338 0.884443 0.290834 0.162487
H13   H     H_    0.521496 0.909174 0.606822 0.150196
N1    N     N_2   0.498640 0.498660 0.846910 -0.281506
N2    N     N_2   0.498610 0.498630 0.153040 -0.274126
O1    O     O_R   0.500020 0.321960 0.617040 -0.582618
O2    O     O_R   0.499980 0.321920 0.382900 -0.540467
O3    O     O_R   0.319670 0.500020 0.617100 -0.582474
O4    O     O_R   0.319630 0.499980 0.382950 -0.576513
O5    O     O_R   0.500020 0.678080 0.617100 -0.599587
O6    O     O_R   0.499980 0.678040 0.382960 -0.576007
O7    O     O_R   0.680370 0.500020 0.617050 -0.582214
O8    O     O_R   0.680330 0.499980 0.382900 -0.553075
C21   C     C_2   0.634929 0.112816 0.282749 0.398167
H14   H     H_    0.640774 0.064181 0.184774 0.043006
O9    O     O_2   0.700407 0.202568 0.301230 -0.555466

loop_
_geom_bond_atom_site_label_1
_geom_bond_atom_site_label_2
_ccdc_geom_bond_type
C12   O3    A    
C12   O4    A    
C3    C12   S    
Cu1   O7    S    
C6    C20   A    
C9    C10   D    
C13   N2    D    
C19   C20   A    
C14   O5    A    
C17   C18   A    
C6    C15   S    
C9    C21   S    
Cu1   N1    S    
Cu1   Cu2   S    
C17   H8    S    
C11   C13   S    
Cu1   O1    S    
Cu1   O3    S    
H6    N2    S    
C19   H10   S    
C1    O1    A    
H4    N1    S    
C11   N1    D    
C15   O7    A    
C2    C3    A    
C5    C6    A    
C7    H12   S    
C21   O9    D    
Cu2   O4    S    
C16   C17   A    
C1    O2    A    
C2    C20   A    
C3    C4    A    
C7    C8    D    
Cu2   O8    S    
C2    C16   A    
C18   C19   A    
C7    C9    S    
C4    H1    S    
C11   H3    S    
C21   H14   S    
C14   O6    A    
C8    C14   S    
C18   H9    S    
C10   H2    S    
C16   H7    S    
Cu2   N2    S    
Cu2   O2    S    
C8    H13   S    
Cu1   O5    S    
C13   H5    S    
C1    C10   S    
Cu2   O6    S    
C4    C5    A    
C15   O8    A    
C5    H11   S    
