data_mof_unit_27826.cif
_audit_creation_date              2012-12-10T17:47:45-0500
_audit_creation_method            fapswitch 2.2
_symmetry_space_group_name_H-M    P1
_symmetry_Int_Tables_number       1
_space_group_crystal_system       triclinic
_cell_length_a                    10.675207
_cell_length_b                    10.672887
_cell_length_c                    9.926775
_cell_angle_alpha                 90.90684
_cell_angle_beta                  89.42409
_cell_angle_gamma                 93.139642
_cell_volume                      1129.12301228

loop_
_atom_site_label
_atom_site_type_symbol
_atom_type_description
_atom_site_fract_x
_atom_site_fract_y
_atom_site_fract_z
_atom_type_partial_charge
C1    C     C_R   0.515140 0.261644 0.499571 0.894776
C2    C     C_R   0.539929 0.065574 0.623754 0.061990
C3    C     C_R   0.529323 0.128255 0.500346 -0.116473
C4    C     C_R   0.258085 0.504588 0.500267 0.845518
C5    C     C_R   0.504569 0.061390 0.381091 -0.178459
C6    C     C_R   0.481680 0.934342 0.384622 -0.194606
C7    C     C_R   0.476611 0.873158 0.508250 -0.126471
C8    C     C_R   0.298435 0.357679 0.128137 -0.006871
C9    C     C_R   0.195810 0.317561 0.048565 -0.222077
C10   C     C_R   0.207049 0.313594 0.911057 -0.224322
C11   C     C_R   0.316600 0.359563 0.851717 -0.131273
C12   C     C_3   0.878777 0.505911 0.495810 0.122974
C13   C     C_R   0.407915 0.430421 0.925280 0.166262
C14   C     C_R   0.404711 0.429607 0.070281 0.122729
C15   C     C_R   0.589028 0.565868 0.071740 -0.093945
C16   C     C_R   0.488512 0.739343 0.502207 0.874927
C17   C     C_R   0.588608 0.566258 0.928909 -0.111198
C18   C     C_R   0.742196 0.503448 0.499002 0.824502
C19   C     C_3   0.064035 0.375404 0.529356 -0.430977
C20   C     C_3   0.921165 0.377512 0.542789 -0.409742
C21   C     C_3   0.074511 0.601624 0.606848 -0.372031
C22   C     C_3   0.076433 0.549053 0.356075 -0.175341
C23   C     C_3   0.931822 0.609661 0.594929 -0.440524
C24   C     C_3   0.121480 0.508754 0.498302 0.098768
C25   C     C_1   0.620600 0.136884 0.984975 0.129542
C26   C     C_1   0.357104 0.800561 0.786062 0.201267
C27   C     C_1   0.292149 0.286938 0.249626 0.247570
C28   C     C_1   0.122542 0.678411 0.322508 0.155651
C29   C     C_1   0.894562 0.438142 0.248866 0.176915
C30   C     C_3   0.932254 0.535716 0.350810 -0.173031
C31   C     C_R   0.594178 0.124007 0.739736 -0.203114
C32   C     C_R   0.574518 0.071422 0.866213 0.048296
C33   C     C_R   0.500200 0.961013 0.878215 -0.241048
C34   C     C_R   0.454714 0.897017 0.763070 0.015393
C35   C     C_R   0.488659 0.942399 0.632060 0.046364
H1    H     H_    0.103202 0.339219 0.623546 0.172713
H2    H     H_    0.326974 0.336915 0.747901 0.211491
H3    H     H_    0.875851 0.299244 0.482150 0.166599
H4    H     H_    0.892926 0.362140 0.649836 0.185678
H5    H     H_    0.888882 0.599289 0.697081 0.193408
H6    H     H_    0.116596 0.487206 0.277387 0.151980
H7    H     H_    0.893522 0.624730 0.316765 0.128993
H8    H     H_    0.121429 0.696510 0.595237 0.176663
H9    H     H_    0.112579 0.270524 0.092441 0.165244
H10   H     H_    0.660973 0.620943 0.875540 0.141713
H11   H     H_    0.096407 0.567850 0.709027 0.212259
H12   H     H_    0.909917 0.703883 0.558024 0.169450
H13   H     H_    0.499840 0.107266 0.284971 0.184325
H14   H     H_    0.650659 0.211211 0.732642 0.159852
H15   H     H_    0.475398 0.926171 0.977686 0.143551
H16   H     H_    0.468945 0.884054 0.289597 0.175169
H17   H     H_    0.661756 0.619997 0.125457 0.138586
H18   H     H_    0.085997 0.309386 0.446381 0.190266
H19   H     H_    0.134082 0.266391 0.851078 0.154124
N1    N     N_R   0.498810 0.498800 0.142780 -0.116156
N2    N     N_R   0.498760 0.498720 0.857170 -0.121307
N3    N     N_1   0.657032 0.189618 0.080666 -0.191213
N4    N     N_1   0.279232 0.723680 0.807438 -0.217700
N5    N     N_1   0.277126 0.224071 0.343012 -0.243440
N6    N     N_1   0.158819 0.779360 0.296356 -0.207537
N7    N     N_1   0.866008 0.362281 0.168837 -0.195451
O1    O     O_R   0.500000 0.316780 0.614690 -0.650323
O2    O     O_R   0.499990 0.316750 0.385360 -0.604893
O3    O     O_R   0.314800 0.499990 0.614670 -0.634816
O4    O     O_R   0.314790 0.499970 0.385330 -0.631586
O5    O     O_R   0.500010 0.683250 0.614640 -0.615714
O6    O     O_R   0.500000 0.683220 0.385310 -0.619814
O7    O     O_R   0.685210 0.500030 0.614670 -0.633292
O8    O     O_R   0.685200 0.500010 0.385330 -0.619854
Zn1   Zn    Zn3+2 0.500010 0.500020 0.653130 0.936068
Zn2   Zn    Zn3+2 0.499990 0.499980 0.346870 0.963026

loop_
_geom_bond_atom_site_label_1
_geom_bond_atom_site_label_2
_ccdc_geom_bond_type
C2    C35   A    
C2    C31   A    
C11   H2    S    
C6    C7    A    
C19   C24   S    
O3    Zn1   S    
C6    H16   S    
C26   N4    T    
C9    C10   A    
C4    O3    A    
O6    Zn2   S    
C31   C32   A    
C12   C23   S    
C13   N2    A    
C1    O1    A    
C19   H18   S    
C18   O8    A    
C21   C23   S    
C14   N1    A    
C20   H4    S    
C16   O6    A    
C27   N5    T    
C15   H17   S    
C32   C33   A    
C11   C13   A    
C17   N2    A    
C12   C20   S    
C29   C30   S    
C25   N3    T    
C31   H14   S    
C34   C35   A    
C10   H19   S    
C1    O2    A    
C22   C24   S    
O7    Zn1   S    
C7    C16   S    
C22   C28   S    
C33   C34   A    
C2    C3    A    
C20   H3    S    
N2    Zn1   S    
C19   H1    S    
C28   N6    T    
C5    C6    A    
C4    C24   S    
C5    H13   S    
C29   N7    T    
C22   H6    S    
C23   H12   S    
C10   C11   A    
C18   O7    A    
C23   H5    S    
C3    C5    A    
O4    Zn2   S    
C16   O5    A    
O5    Zn1   S    
O1    Zn1   S    
C15   C17   A    
C21   H11   S    
C21   C24   S    
C12   C18   S    
O8    Zn2   S    
C8    C27   S    
C4    O4    A    
C30   H7    S    
C9    H9    S    
C8    C14   A    
C22   C30   S    
C13   C14   A    
C12   C30   S    
C33   H15   S    
C21   H8    S    
C7    C35   A    
O2    Zn2   S    
C26   C34   S    
N1    Zn2   S    
C19   C20   S    
C17   H10   S    
C8    C9    A    
C1    C3    S    
C25   C32   S    
C15   N1    A    
