data_mof_unit_44707.cif
_audit_creation_date              2012-12-11T15:47:07-0500
_audit_creation_method            fapswitch 2.2
_symmetry_space_group_name_H-M    P1
_symmetry_Int_Tables_number       1
_space_group_crystal_system       triclinic
_cell_length_a                    20.26034
_cell_length_b                    7.253491
_cell_length_c                    13.574051
_cell_angle_alpha                 90.000874
_cell_angle_beta                  103.567158
_cell_angle_gamma                 89.999303
_cell_volume                      1939.15386701

loop_
_atom_site_label
_atom_site_type_symbol
_atom_type_description
_atom_site_fract_x
_atom_site_fract_y
_atom_site_fract_z
_atom_type_partial_charge
O1    O     O_R   0.449560 0.506810 0.599700 -0.540227
O2    O     O_R   0.550440 0.006810 0.400300 -0.540225
O3    O     O_R   0.587960 0.180060 0.595760 -0.539193
O4    O     O_R   0.412040 0.680060 0.404240 -0.539185
C1    C     C_R   0.615217 0.344041 0.616554 0.746669
C2    C     C_R   0.384782 0.844041 0.383446 0.746671
O5    O     O_R   0.452380 0.177430 0.611700 -0.529894
O6    O     O_R   0.547620 0.677430 0.388300 -0.529887
O7    O     O_R   0.413900 0.001890 0.416350 -0.548317
O8    O     O_R   0.586100 0.501890 0.583650 -0.548310
C3    C     C_R   0.436371 0.345603 0.637303 0.802000
C4    C     C_R   0.563629 0.845600 0.362696 0.801979
O9    O     O_3   0.487530 0.337490 0.435890 -0.378675
O10   O     O_3   0.512470 0.837490 0.564110 -0.378682
V1    V     V_3+5 0.502310 0.064660 0.511890 1.537924
V2    V     V_3+5 0.497690 0.564660 0.488110 1.537959
C5    C     C_R   0.605228 0.808117 0.107955 -0.194156
C6    C     C_R   0.394778 0.308291 0.892051 -0.194008
H1    H     H_    0.681562 0.827975 0.979121 0.160841
H2    H     H_    0.318444 0.328208 0.020881 0.160859
H3    H     H_    0.579321 0.785800 0.029477 0.189909
H4    H     H_    0.420688 0.286057 0.970535 0.190006
C7    C     C_R   0.601375 0.851729 0.282897 -0.163706
C8    C     C_R   0.398623 0.351746 0.717097 -0.163733
C9    C     C_R   0.927128 0.833102 0.313136 0.454444
C10   C     C_R   0.072873 0.332912 0.686876 0.454638
C11   C     C_R   0.890003 0.795401 0.384854 -0.131486
C12   C     C_R   0.110002 0.295161 0.615169 -0.131626
C13   C     C_R   0.819734 0.794542 0.358210 -0.261422
C14   C     C_R   0.180270 0.294383 0.641808 -0.261414
C15   C     C_R   0.783429 0.840837 0.259573 0.072184
C16   C     C_R   0.216571 0.340798 0.740429 0.072284
C17   C     C_R   0.819744 0.856569 0.181261 -0.010691
C18   C     C_R   0.180256 0.356587 0.818739 -0.010706
C19   C     C_R   0.711037 0.854517 0.235756 0.084792
C20   C     C_R   0.288961 0.354529 0.764240 0.084764
C21   C     C_R   0.675710 0.831183 0.133863 -0.004627
C22   C     C_R   0.324293 0.331303 0.866139 -0.004698
C23   C     C_R   0.710430 0.836549 0.057215 -0.086143
C24   C     C_R   0.289574 0.336710 0.942786 -0.086133
C25   C     C_R   0.780629 0.863653 0.078269 0.121354
C26   C     C_R   0.219371 0.363751 0.921728 0.121326
C27   C     C_R   0.671927 0.890285 0.308515 0.037003
C28   C     C_R   0.328067 0.390242 0.691468 0.036955
C29   C     C_R   0.568032 0.810024 0.182017 0.380746
C30   C     C_R   0.431972 0.310143 0.817987 0.380741
C31   C     C_R   0.892871 0.858176 0.210378 -0.219473
C32   C     C_R   0.107128 0.358140 0.789623 -0.219499
H5    H     H_    0.794017 0.752606 0.415827 0.169511
H6    H     H_    0.205991 0.252398 0.584205 0.169424
H7    H     H_    0.915467 0.764054 0.462421 0.221565
H8    H     H_    0.084541 0.263698 0.537616 0.221398
C33   C     C_R   0.219668 0.023043 0.217044 -0.128496
C34   C     C_R   0.780338 0.523046 0.782937 -0.128467
H9    H     H_    0.198334 0.155723 0.190764 0.122354
H10   H     H_    0.801676 0.655729 0.809202 0.122351
C35   C     C_R   0.285066 0.018423 0.279925 -0.124973
C36   C     C_R   0.714939 0.518426 0.720058 -0.124969
H11   H     H_    0.312023 0.147232 0.299314 0.124864
H12   H     H_    0.687986 0.647238 0.700655 0.124847
C37   C     C_R   0.315230 0.849906 0.316622 -0.009690
C38   C     C_R   0.684769 0.349905 0.683379 -0.009670
C39   C     C_R   0.277637 0.686466 0.290342 -0.129803
C40   C     C_R   0.722357 0.186461 0.709675 -0.129814
H13   H     H_    0.298596 0.554115 0.318637 0.118702
H14   H     H_    0.701394 0.054106 0.681395 0.118703
C41   C     C_R   0.212072 0.691388 0.227775 -0.121240
C42   C     C_R   0.787923 0.191382 0.772241 -0.121327
H15   H     H_    0.184363 0.563313 0.210580 0.137949
H16   H     H_    0.815628 0.063303 0.789450 0.137943
C43   C     C_R   0.182668 0.859333 0.188528 -0.008252
C44   C     C_R   0.817332 0.359332 0.811471 -0.008230
O11   O     O_R   0.913920 0.203370 0.916260 -0.545710
O12   O     O_R   0.086080 0.703370 0.083740 -0.545729
O13   O     O_R   0.047620 0.535540 0.888290 -0.529704
O14   O     O_R   0.952380 0.035540 0.111710 -0.529680
C45   C     C_R   0.065321 0.368379 0.864360 0.809255
C46   C     C_R   0.934678 0.868384 0.135639 0.809271
O15   O     O_R   0.912040 0.532780 0.904220 -0.546548
O16   O     O_R   0.087960 0.032780 0.095780 -0.546527
O17   O     O_R   0.949550 0.708160 0.099720 -0.534914
O18   O     O_R   0.050450 0.208160 0.900280 -0.534893
C47   C     C_R   0.885809 0.364907 0.881888 0.735023
C48   C     C_R   0.114191 0.864907 0.118112 0.735009
O19   O     O_3   0.012480 0.375300 0.064060 -0.376049
O20   O     O_3   0.987520 0.875300 0.935940 -0.376041
V3    V     V_3+5 0.997690 0.648180 0.988110 1.541345
V4    V     V_3+5 0.002310 0.148180 0.011890 1.541416
S1    S     S_3+6 0.479065 0.773473 0.144725 -0.002946
O21   O     O_2   0.461944 0.594120 0.188222 -0.317566
O22   O     O_2   0.442669 0.927011 0.184365 -0.355646
O23   O     O_3   0.452287 0.764452 0.017706 -0.491853
H17   H     H_    0.453863 0.893648 0.994655 0.359946
S2    S     S_3+6 0.520941 0.273641 0.855284 -0.002932
O24   O     O_2   0.538079 0.094298 0.811792 -0.317570
O25   O     O_2   0.557325 0.427199 0.815643 -0.355678
O26   O     O_3   0.547716 0.264638 0.982304 -0.491770
H18   H     H_    0.546177 0.393887 0.005344 0.359925
C49   C     C_3   0.701053 0.993716 0.406440 -0.761655
H19   H     H_    0.668349 0.113388 0.413260 0.213899
H20   H     H_    0.704197 0.901672 0.472757 0.183935
H21   H     H_    0.751282 0.055970 0.408485 0.226763
C50   C     C_3   0.298927 0.493545 0.593506 -0.761579
H22   H     H_    0.331617 0.613217 0.586636 0.213844
H23   H     H_    0.295790 0.401417 0.527224 0.183931
H24   H     H_    0.248692 0.555782 0.591443 0.226916
S3    S     S_3+6 0.017050 0.836704 0.353820 0.003661
O27   O     O_2   0.045800 0.674834 0.308763 -0.341574
O28   O     O_2   0.043781 0.012092 0.318738 -0.345239
O29   O     O_3   0.041497 0.824674 0.480996 -0.482680
H25   H     H_    0.091679 0.833765 0.496826 0.361750
S4    S     S_3+6 0.982949 0.336324 0.646200 0.003623
O30   O     O_2   0.954259 0.174395 0.691291 -0.341902
O31   O     O_2   0.956158 0.511654 0.681251 -0.344973
O32   O     O_3   0.958501 0.324212 0.519028 -0.482704
H26   H     H_    0.908283 0.331389 0.503253 0.361842
C51   C     C_3   0.809087 0.901352 0.987386 -0.767702
H27   H     H_    0.768764 0.911788 0.916390 0.192243
H28   H     H_    0.835060 0.036151 0.997324 0.216085
H29   H     H_    0.842824 0.788423 0.975270 0.203417
C52   C     C_3   0.190910 0.401454 0.012607 -0.767680
H30   H     H_    0.231230 0.411912 0.083605 0.192237
H31   H     H_    0.164931 0.536244 0.002660 0.216108
H32   H     H_    0.157178 0.288517 0.024729 0.203389

loop_
_geom_bond_atom_site_label_1
_geom_bond_atom_site_label_2
_ccdc_geom_bond_type
C36   C38   A    
C22   C24   A    
C39   H13   S    
C7    C29   A    
C10   S4    S    
C11   C13   A    
O1    C3    A    
O16   C48   A    
O2    C4    A    
C2    O7    A    
S4    O31   D    
O26   H18   S    
C23   C25   A    
C13   H5    S    
O5    C3    A    
C4    C7    S    
C40   C42   A    
C2    C37   S    
C19   C21   A    
C5    C29   A    
C51   H28   S    
H2    C24   S    
O18   V4    S    
C35   H11   S    
C36   H12   S    
O32   H26   S    
C3    C8    S    
C7    C27   A    
C37   C39   A    
O29   H25   S    
C52   H32   S    
C38   C40   A    
O15   C47   A    
C18   C26   A    
S3    O27   D    
C15   C17   A    
O12   V3    S    
S1    O22   D    
C19   C27   A    
C9    C31   A    
C10   C32   A    
C24   C26   A    
C14   H6    S    
O6    V2    S    
C13   C15   A    
S3    O28   D    
C6    C30   A    
O15   V3    S    
S4    O30   D    
C28   C50   S    
C11   H7    S    
C39   C41   A    
C33   H9    S    
C34   H10   S    
O4    C2    A    
C51   H29   S    
O12   C48   A    
C33   C35   A    
O20   V3    S    
O5    V1    S    
S2    O26   S    
C5    H3    S    
C41   H15   S    
C16   C18   A    
C32   C45   S    
O4    V2    S    
O11   V4    S    
C49   H19   S    
C30   S2    S    
C42   C44   A    
C50   H23   S    
O1    V2    S    
C5    C21   A    
S1    O23   S    
S2    O25   D    
O2    V1    S    
O13   C45   A    
C52   H30   S    
O17   V3    S    
H1    C23   S    
O13   V3    S    
C49   H20   S    
C17   C31   A    
S3    O29   S    
C15   C19   A    
C20   C28   A    
C18   C32   A    
C33   C43   A    
C16   C20   A    
O3    V1    S    
C9    S3    S    
C43   C48   S    
C34   C36   A    
O19   V4    S    
O14   V4    S    
C29   S1    S    
C6    H4    S    
O14   C46   A    
O3    C1    A    
C35   C37   A    
C9    C11   A    
C10   C12   A    
C8    C30   A    
C20   C22   A    
C6    C22   A    
C17   C25   A    
C1    O8    A    
O16   V4    S    
O8    V2    S    
C51   H27   S    
C27   C49   S    
C14   C16   A    
C12   H8    S    
C46   O17   A    
C45   O18   A    
C8    C28   A    
C12   C14   A    
O23   H17   S    
C1    C38   S    
C50   H24   S    
C41   C43   A    
O7    V1    S    
S2    O24   D    
C52   H31   S    
C44   C47   S    
C49   H21   S    
C34   C44   A    
C21   C23   A    
O9    V2    S    
C50   H22   S    
C42   H16   S    
O10   V1    S    
C31   C46   S    
C25   C51   S    
S1    O21   D    
O11   C47   A    
S4    O32   S    
O6    C4    A    
C26   C52   S    
C40   H14   S    
