data_mof_unit_29177.cif
_audit_creation_date              2012-12-10T18:34:27-0500
_audit_creation_method            fapswitch 2.2
_symmetry_space_group_name_H-M    P1
_symmetry_Int_Tables_number       1
_space_group_crystal_system       triclinic
_cell_length_a                    15.021886
_cell_length_b                    15.449516
_cell_length_c                    15.742487
_cell_angle_alpha                 89.816333
_cell_angle_beta                  104.71825
_cell_angle_gamma                 82.30545
_cell_volume                      3499.1874335

loop_
_atom_site_label
_atom_site_type_symbol
_atom_type_description
_atom_site_fract_x
_atom_site_fract_y
_atom_site_fract_z
_atom_type_partial_charge
C1    C     C_R   0.441941 0.662158 0.489959 0.867540
C2    C     C_R   0.558151 0.337704 0.513853 0.868903
C3    C     C_R   0.282987 0.873453 0.487782 -0.136590
C4    C     C_R   0.713694 0.127547 0.602580 -0.147619
C5    C     C_R   0.312329 0.785271 0.478660 -0.202910
C6    C     C_R   0.686429 0.215038 0.574310 -0.200419
C7    C     C_R   0.472365 0.810775 0.527291 -0.198540
C8    C     C_R   0.527232 0.187593 0.524848 -0.203618
C9    C     C_R   0.444841 0.898570 0.539771 0.046515
C10   C     C_R   0.551514 0.101864 0.558798 0.048827
C11   C     C_R   0.348596 0.931207 0.515939 0.046631
C12   C     C_R   0.646965 0.070088 0.594620 0.051996
C13   C     C_R   0.511693 0.955738 0.567583 -0.004480
C14   C     C_R   0.483001 0.046185 0.553340 0.000508
C15   C     C_R   0.386822 0.077935 0.533922 -0.290152
C16   C     C_R   0.606359 0.925257 0.607128 -0.311358
C17   C     C_R   0.320063 0.021017 0.518907 0.498597
C18   C     C_R   0.673807 0.981490 0.620399 0.503671
C19   C     C_R   0.841626 0.640724 0.626673 -0.378455
C20   C     C_R   0.158846 0.358045 0.374931 -0.334696
C21   C     C_R   0.752939 0.615608 0.608160 0.654467
C22   C     C_R   0.246824 0.384266 0.392071 0.642759
C23   C     C_R   0.501172 0.500269 0.661976 0.883576
C24   C     C_R   0.498821 0.499738 0.338017 0.888560
C25   C     C_R   0.794391 0.509471 0.510662 -0.123061
C26   C     C_R   0.206030 0.489833 0.490272 -0.124331
C27   C     C_R   0.886132 0.529675 0.529352 -0.034501
C28   C     C_R   0.114683 0.468701 0.472786 -0.037741
C29   C     C_R   0.908441 0.597796 0.587878 -0.031283
C30   C     C_R   0.092400 0.400359 0.414507 -0.045705
C31   C     C_R   0.955371 0.485713 0.491405 0.005613
C32   C     C_R   0.045716 0.512150 0.511392 0.008154
C33   C     C_R   0.064023 0.581327 0.568926 -0.294117
C34   C     C_R   0.937283 0.416041 0.434482 -0.298536
C35   C     C_R   0.996915 0.622925 0.606697 0.635625
C36   C     C_R   0.004293 0.374533 0.396569 0.648180
C37   C     C_3   0.535911 0.569510 0.037426 0.312726
C38   C     C_3   0.463877 0.430600 0.962462 0.313251
C39   C     C_3   0.588318 0.495837 0.995867 0.305779
C40   C     C_3   0.411467 0.504269 0.004027 0.305942
C41   C     C_1   0.503514 0.500897 0.751375 -0.163159
C42   C     C_1   0.496430 0.499163 0.248589 -0.167916
C43   C     C_3   0.449458 0.574587 0.959081 0.435717
C44   C     C_3   0.550329 0.425519 0.040809 0.436498
C45   C     C_3   0.502074 0.500727 0.917078 -0.257932
C46   C     C_3   0.497717 0.499384 0.082825 -0.257885
C47   C     C_1   0.503764 0.501013 0.826663 0.193515
C48   C     C_1   0.496100 0.499081 0.173272 0.193511
C49   C     C_R   0.407443 0.754222 0.496770 -0.061857
C50   C     C_R   0.592661 0.245129 0.535278 -0.062169
H1    H     H_    0.230670 0.538902 0.535053 0.155882
H2    H     H_    0.769718 0.460693 0.465523 0.156270
H3    H     H_    0.857712 0.693885 0.670035 0.210164
H4    H     H_    0.143116 0.304675 0.331701 0.220088
H5    H     H_    0.129894 0.605573 0.586429 0.169549
H6    H     H_    0.871709 0.391217 0.417717 0.170902
H7    H     H_    0.456855 0.210584 0.488503 0.187814
H8    H     H_    0.545037 0.786210 0.537354 0.188779
H9    H     H_    0.738270 0.258968 0.583559 0.165541
H10   H     H_    0.260838 0.741873 0.456458 0.165634
H11   H     H_    0.209093 0.896461 0.471123 0.190136
H12   H     H_    0.786808 0.105253 0.630982 0.186372
H13   H     H_    0.361410 0.146855 0.531845 0.169540
H14   H     H_    0.629327 0.858161 0.630616 0.187176
N1    N     N_R   0.731710 0.552730 0.549140 -0.135730
N2    N     N_R   0.268290 0.447270 0.450860 -0.139309
O1    O     O_R   0.383110 0.605620 0.475230 -0.629062
O2    O     O_R   0.616890 0.394380 0.524770 -0.629203
O3    O     O_R   0.531900 0.639510 0.506760 -0.572844
O4    O     O_R   0.468100 0.360490 0.493240 -0.572519
O5    O     O_R   0.425620 0.483070 0.607460 -0.614575
O6    O     O_R   0.574380 0.516930 0.392540 -0.611199
O7    O     O_R   0.574400 0.516960 0.638990 -0.578068
O8    O     O_R   0.425600 0.483040 0.361010 -0.581901
Zn1   Zn    Zn3+2 0.400660 0.477370 0.478940 0.991567
Zn2   Zn    Zn3+2 0.599340 0.522630 0.521060 0.994343
O9    O     O_3   0.678336 0.492751 0.983169 -0.596518
C51   C     C_3   0.744602 0.480453 0.065019 -0.180290
H15   H     H_    0.749294 0.413511 0.093172 0.227944
H16   H     H_    0.729955 0.530149 0.112418 0.178101
H17   H     H_    0.813673 0.487554 0.054777 0.170720
O10   O     O_3   0.321441 0.507349 0.016706 -0.597837
C52   C     C_3   0.255188 0.519664 0.934848 -0.182025
H18   H     H_    0.269855 0.469993 0.887432 0.177514
H19   H     H_    0.250489 0.586620 0.906721 0.228184
H20   H     H_    0.186113 0.512539 0.945068 0.170746
O11   O     O_3   0.315149 0.342258 0.356142 -0.592067
C53   C     C_3   0.288081 0.355190 0.263849 -0.271958
H21   H     H_    0.349735 0.335573 0.238060 0.198541
H22   H     H_    0.262649 0.425146 0.243383 0.168627
H23   H     H_    0.234788 0.313351 0.233435 0.158005
O12   O     O_3   0.683462 0.658417 0.642337 -0.605791
C54   C     C_3   0.711724 0.655472 0.735053 -0.304853
H24   H     H_    0.648935 0.670461 0.760164 0.201864
H25   H     H_    0.757019 0.706159 0.759090 0.169544
H26   H     H_    0.746779 0.589499 0.762707 0.173733
O13   O     O_3   0.573393 0.639591 0.084294 -0.584114
C55   C     C_3   0.595037 0.697851 0.025975 -0.198821
H27   H     H_    0.530829 0.733562 0.981791 0.217932
H28   H     H_    0.640637 0.664319 0.986919 0.171401
H29   H     H_    0.633426 0.747109 0.065019 0.176095
O14   O     O_3   0.426416 0.360545 0.915525 -0.585193
C56   C     C_3   0.404722 0.302248 0.973770 -0.203005
H30   H     H_    0.359036 0.335749 0.012763 0.171561
H31   H     H_    0.468906 0.266557 0.018006 0.219844
H32   H     H_    0.366404 0.252979 0.934666 0.172651
F1    F     F_    0.601027 0.350295 0.085547 -0.651089
F2    F     F_    0.398760 0.649803 0.914323 -0.653129
O15   O     O_3   0.226599 0.054310 0.495866 -0.599620
C57   C     C_3   0.200104 0.080707 0.572582 -0.281591
H33   H     H_    0.234992 0.136751 0.601812 0.163614
H34   H     H_    0.214392 0.025421 0.621927 0.161319
H35   H     H_    0.124111 0.102784 0.554742 0.209311
O16   O     O_3   0.765616 0.950268 0.661192 -0.608944
C58   C     C_3   0.804826 0.900590 0.601305 -0.284683
H36   H     H_    0.771837 0.840488 0.584273 0.168665
H37   H     H_    0.879596 0.879585 0.632723 0.229623
H38   H     H_    0.800048 0.940129 0.540627 0.159926
F3    F     F_    0.018961 0.688693 0.661931 -0.677290
F4    F     F_    0.982401 0.308392 0.341792 -0.660025

loop_
_geom_bond_atom_site_label_1
_geom_bond_atom_site_label_2
_ccdc_geom_bond_type
C33   H5    S    
C38   C40   S    
O11   C53   S    
C34   H6    S    
C54   H24   S    
C27   C29   A    
C24   C42   S    
C35   F3    S    
O6    Zn2   S    
C18   O16   S    
C37   O13   S    
O13   C55   S    
C20   C30   A    
O9    C51   S    
C40   C46   S    
N1    Zn2   S    
C39   O9    S    
C19   C21   A    
C2    O2    A    
C51   H16   S    
C58   H36   S    
C4    H12   S    
O3    Zn2   S    
C15   C17   A    
C9    C13   A    
C57   H33   S    
C22   N2    A    
C38   C45   S    
C2    C50   S    
C1    O1    A    
C40   C43   S    
C31   C32   A    
C58   H37   S    
C4    C12   A    
C7    H8    S    
C39   C45   S    
C19   H3    S    
C45   C47   S    
C54   H25   S    
C13   C14   A    
C5    C49   A    
C23   O7    A    
C44   C46   S    
O16   C58   S    
C3    H11   S    
C46   C48   S    
O8    Zn1   S    
C27   C31   A    
C26   N2    A    
C23   O5    A    
C28   C32   A    
C25   N1    A    
C7    C49   A    
C4    C6    A    
C10   C14   A    
C51   H15   S    
C1    O3    A    
C37   C43   S    
C38   C44   S    
C40   O10   S    
C8    H7    S    
C43   C45   S    
C52   H18   S    
C53   H23   S    
C58   H38   S    
C41   C47   T    
C31   C34   A    
C56   H31   S    
C42   C48   T    
C22   O11   S    
C6    C50   A    
C9    C11   A    
C57   H35   S    
C10   C12   A    
C20   H4    S    
C52   H19   S    
C53   H22   S    
O10   C52   S    
C54   H26   S    
C55   H28   S    
C25   C27   A    
O7    Zn2   S    
C26   H1    S    
O1    Zn1   S    
C19   C29   A    
C8    C50   A    
C56   H30   S    
C24   O6    A    
C44   F1    S    
C7    C9    A    
C11   C17   A    
C5    H10   S    
C21   N1    A    
C6    H9    S    
C8    C10   A    
C20   C22   A    
C3    C5    A    
C17   O15   S    
C39   C44   S    
O2    Zn2   S    
C55   H29   S    
C29   C35   A    
C26   C28   A    
C23   C41   S    
C30   C36   A    
C32   C33   A    
C28   C30   A    
C25   H2    S    
C37   C39   S    
O15   C57   S    
O5    Zn1   S    
C51   H17   S    
C24   O8    A    
N2    Zn1   S    
O12   C54   S    
C33   C35   A    
C56   H32   S    
C34   C36   A    
C43   F2    S    
C38   O14   S    
O14   C56   S    
C36   F4    S    
C57   H34   S    
C3    C11   A    
C52   H20   S    
C53   H21   S    
C16   C18   A    
C55   H27   S    
C13   C16   A    
C12   C18   A    
O4    Zn1   S    
C15   H13   S    
C14   C15   A    
C16   H14   S    
C37   C46   S    
C2    O4    A    
C1    C49   S    
C21   O12   S    
