data_mof_unit_57305.cif
_audit_creation_date              2013-03-05T15:52:54-0500
_audit_creation_method            fapswitch 2.2
_symmetry_space_group_name_H-M    P1
_symmetry_Int_Tables_number       1
_space_group_crystal_system       triclinic
_cell_length_a                    10.718908
_cell_length_b                    10.746342
_cell_length_c                    17.119476
_cell_angle_alpha                 99.613702
_cell_angle_beta                  99.967846
_cell_angle_gamma                 60.867598
_cell_volume                      1688.65055837

loop_
_atom_site_label
_atom_site_type_symbol
_atom_site_description
_atom_site_fract_x
_atom_site_fract_y
_atom_site_fract_z
_atom_type_partial_charge
O1    O     O_R   0.749810 0.499790 0.438040 -0.514386
O2    O     O_R   0.477660 0.726260 0.439290 -0.503868
C1    C     C_R   0.356367 0.769059 0.397921 0.538832
O3    O     O_R   0.260150 0.743000 0.412270 -0.523801
O4    O     O_R   0.297740 0.466550 0.394720 -0.490046
C2    C     C_R   0.369624 0.346792 0.357370 0.567481
O5    O     O_R   0.488080 0.253500 0.386430 -0.519707
O6    O     O_R   0.722670 0.303800 0.421940 -0.505024
C3    C     C_R   0.774625 0.378361 0.402975 0.544029
O7    O     O_R   0.751130 0.502220 0.613520 -0.475909
O8    O     O_R   0.478890 0.728510 0.601960 -0.486866
C4    C     C_R   0.380507 0.716961 0.631696 0.527192
O9    O     O_R   0.261470 0.745430 0.587750 -0.495408
O10   O     O_R   0.298970 0.468800 0.557390 -0.489699
C5    C     C_R   0.414801 0.379721 0.598842 0.549684
O11   O     O_R   0.489400 0.255930 0.561910 -0.515297
O12   O     O_R   0.723890 0.306050 0.584610 -0.549307
C6    C     C_R   0.773310 0.380773 0.629840 0.543280
Cr1   Cr    Cr6+3 0.608100 0.610860 0.522250 1.036773
Cr2   Cr    Cr6+3 0.288890 0.599990 0.488420 1.041110
Cr3   Cr    Cr6+3 0.603040 0.289190 0.489390 0.987313
O13   O     O_3   0.500010 0.500010 0.500020 -0.295824
C7    C     C_1   0.343159 0.336838 0.274043 -0.024634
C8    C     C_1   0.332107 0.326369 0.203338 -0.018864
H1    H     H_    0.744319 0.576839 0.316038 0.162035
C9    C     C_R   0.829996 0.326331 0.160440 -0.003576
C10   C     C_R   0.854129 0.205039 0.197147 -0.014732
C11   C     C_R   0.865036 0.214205 0.280886 0.010267
C12   C     C_R   0.782162 0.470477 0.284940 -0.132829
C13   C     C_R   0.787646 0.458750 0.204617 -0.137496
C14   C     C_R   0.869203 0.074923 0.153680 -0.064461
C15   C     C_R   0.918696 0.950775 0.191808 0.189161
C16   C     C_R   0.947993 0.958235 0.274910 -0.138151
C17   C     C_R   0.919048 0.088554 0.319057 -0.142020
C18   C     C_R   0.820503 0.349604 0.324026 0.014929
H2    H     H_    0.836830 0.069878 0.090416 0.175813
H3    H     H_    0.764880 0.553038 0.177653 0.168315
H4    H     H_    0.986506 0.864509 0.306211 0.158944
H5    H     H_    0.940635 0.089790 0.383236 0.140254
H6    H     H_    0.228149 0.685601 0.270233 0.173153
C19   C     C_R   0.355257 0.817965 0.158129 -0.012719
C20   C     C_R   0.446931 0.853225 0.217340 0.008049
C21   C     C_R   0.432927 0.857487 0.298483 0.010967
C22   C     C_R   0.282536 0.741000 0.257076 -0.143214
C23   C     C_R   0.284335 0.750700 0.178355 -0.135870
C24   C     C_R   0.550335 0.886050 0.198705 -0.081275
C25   C     C_R   0.625341 0.936124 0.258161 -0.100106
C26   C     C_R   0.604766 0.949124 0.337384 -0.100883
C27   C     C_R   0.506748 0.913761 0.357639 -0.094596
C28   C     C_R   0.348048 0.802046 0.317807 0.000976
H7    H     H_    0.579743 0.868204 0.139107 0.171459
H8    H     H_    0.222405 0.713523 0.133280 0.201961
H9    H     H_    0.697927 0.967021 0.242335 0.147900
H10   H     H_    0.664884 0.986965 0.383297 0.141062
H11   H     H_    0.489619 0.931670 0.419790 0.141754
H12   H     H_    0.228252 0.584192 0.698172 0.179513
C29   C     C_R   0.329940 0.318438 0.815260 -0.012846
C30   C     C_R   0.436631 0.204962 0.769632 -0.015293
C31   C     C_R   0.494648 0.240392 0.716129 0.007364
C32   C     C_R   0.292084 0.481216 0.721693 -0.140782
C33   C     C_R   0.262207 0.459269 0.792809 0.179665
C34   C     C_R   0.488202 0.057062 0.775212 -0.096277
C35   C     C_R   0.617889 0.953128 0.747119 -0.009277
C36   C     C_R   0.693601 0.995376 0.708264 -0.014445
C37   C     C_R   0.631421 0.137956 0.692690 -0.102889
C38   C     C_R   0.405573 0.370960 0.681742 -0.056830
H13   H     H_    0.427796 0.021267 0.800781 0.152950
H14   H     H_    0.688822 0.166484 0.660010 0.156064
C39   C     C_1   0.818031 0.342150 0.709054 -0.026870
C40   C     C_1   0.845046 0.313825 0.776677 -0.024572
C41   C     C_1   0.357430 0.767707 0.713635 -0.045516
C42   C     C_1   0.324662 0.813726 0.780413 -0.030046
O14   O     O_R   0.171100 0.914680 0.053100 -0.469480
O15   O     O_R   0.941680 0.184840 0.050710 -0.520686
C43   C     C_R   0.891196 0.308569 0.087048 0.530845
O16   O     O_R   0.922080 0.403420 0.072610 -0.481075
O17   O     O_R   0.196880 0.369150 0.083850 -0.454683
C44   C     C_R   0.319317 0.299537 0.120134 0.556468
O18   O     O_R   0.411730 0.181020 0.091530 -0.520931
O19   O     O_R   0.365010 0.944360 0.063320 -0.520333
C45   C     C_R   0.298399 0.887483 0.084253 0.553667
O20   O     O_R   0.159380 0.906670 0.876210 -0.436159
O21   O     O_R   0.930820 0.177420 0.886730 -0.501557
C46   C     C_R   0.886250 0.297387 0.858959 0.540094
O22   O     O_R   0.910360 0.395420 0.895720 -0.478686
O23   O     O_R   0.186010 0.361730 0.919870 -0.439972
C47   C     C_R   0.302727 0.285488 0.887710 0.560511
O24   O     O_R   0.400000 0.173010 0.914630 -0.533898
O25   O     O_R   0.354140 0.936940 0.899340 -0.526804
C48   C     C_R   0.280533 0.881593 0.857597 0.562026
Cr4   Cr    Cr6+3 0.053960 0.052250 0.967380 1.106231
Cr5   Cr    Cr6+3 0.059890 0.373160 0.992710 1.161262
Cr6   Cr    Cr6+3 0.373370 0.061690 0.991710 1.037222
O26   O     O_3   0.162410 0.162370 0.983930 -0.290062
N1    N     N_R   0.163636 0.578936 0.840426 0.094565
O27   O     O_R   0.203205 0.604039 0.915066 -0.311058
O28   O     O_R   0.045256 0.675971 0.806655 -0.306317
C49   C     C_1   0.673371 0.805940 0.761840 0.255654
N2    N     N_1   0.717908 0.688250 0.774172 -0.233504
C50   C     C_1   0.828686 0.893659 0.678119 0.233870
N3    N     N_1   0.936568 0.812696 0.653450 -0.252362
N4    N     N_R   0.934050 0.819166 0.146655 0.046986
O29   O     O_R   0.914005 0.809656 0.069158 -0.327038
O30   O     O_R   0.967503 0.707703 0.182641 -0.376832

loop_
_geom_bond_atom_site_label_1
_geom_bond_atom_site_label_2
_geom_bond_distance
_ccdc_geom_bond_type
C30   C34   1.420501 A    
C47   O24   1.246257 A    
O17   Cr5   1.939109 S    
Cr6   O26   1.965554 S    
C19   C20   1.423406 A    
N1    O27   1.301558 A    
O4    Cr2   1.946888 S    
O17   C44   1.258941 A    
C26   H10   1.082341 S    
O8    Cr1   1.936980 S    
C9    C10   1.431713 A    
C34   C35   1.396960 A    
C34   H13   1.075020 S    
O18   Cr6   2.066866 S    
C35   C49   1.443755 S    
C14   H2    1.079332 S    
C31   C38   1.415574 A    
O4    C2    1.260558 A    
C5    O11   1.291205 A    
C20   C24   1.412578 A    
C24   C25   1.388151 A    
C1    C28   1.450487 S    
C25   C26   1.384873 A    
C11   C18   1.406172 A    
O6    C3    1.281221 A    
C7    C8    1.187302 T    
C40   C46   1.415016 S    
C33   N1    1.435172 S    
C25   H9    1.069369 S    
C6    C39   1.417864 S    
C11   C17   1.409998 A    
Cr3   O13   1.970080 S    
N4    O29   1.301609 A    
O14   C45   1.282020 A    
O22   Cr5   2.054557 S    
C16   C17   1.390432 A    
H1    C12   1.083752 S    
O1    Cr1   2.056290 S    
O15   C43   1.259945 A    
C10   C14   1.417434 A    
C17   H5    1.082121 S    
O10   Cr2   1.938269 S    
Cr1   O13   1.986450 S    
O1    C3    1.260787 A    
C46   O22   1.249014 A    
O14   Cr4   2.048177 S    
O23   C47   1.276458 A    
C21   C27   1.414699 A    
C23   H8    1.083343 S    
C30   C31   1.383779 A    
C27   H11   1.080591 S    
C5    C38   1.461201 S    
C24   H7    1.079004 S    
O12   Cr3   1.940866 S    
O20   Cr4   2.057711 S    
C29   C47   1.456495 S    
C13   H3    1.084341 S    
C32   C33   1.394565 A    
O15   Cr4   1.938954 S    
C43   O16   1.284787 A    
C12   C13   1.368609 A    
C42   C48   1.435348 S    
O21   C46   1.281682 A    
H6    C22   1.083139 S    
O7    Cr1   2.047469 S    
C37   H14   1.070340 S    
C19   C45   1.460986 S    
Cr5   O26   1.970069 S    
O12   C6    1.260733 A    
C21   C28   1.410656 A    
N4    O30   1.301790 A    
O16   Cr5   2.059615 S    
C8    C44   1.401624 S    
C26   C27   1.388307 A    
C4    C41   1.435121 S    
Cr2   O13   1.965508 S    
C9    C13   1.390485 A    
C15   N4    1.441236 S    
C20   C21   1.413710 A    
C1    O3    1.262661 A    
C22   C23   1.373072 A    
C22   C28   1.404418 A    
O24   Cr6   2.060089 S    
O9    Cr2   2.063699 S    
O2    Cr1   1.929367 S    
C44   O18   1.254736 A    
C14   C15   1.403302 A    
O19   C45   1.264298 A    
O6    Cr3   1.942030 S    
O8    C4    1.311873 A    
N1    O28   1.300311 A    
O11   Cr3   2.061190 S    
C29   C33   1.411774 A    
C2    O5    1.254301 A    
O21   Cr4   1.928360 S    
C12   C18   1.406850 A    
C16   H4    1.082078 S    
O20   C48   1.278441 A    
C15   C16   1.400273 A    
O2    C1    1.269352 A    
O19   Cr6   1.940372 S    
C41   C42   1.206604 T    
O23   Cr5   1.941227 S    
C31   C37   1.416657 A    
Cr4   O26   1.986304 S    
O5    Cr3   2.062720 S    
C29   C30   1.427692 A    
O7    C6    1.278511 A    
C2    C7    1.401914 S    
C36   C37   1.394126 A    
C50   N3    1.157273 T    
O25   Cr6   1.946392 S    
C39   C40   1.196880 T    
C32   C38   1.401942 A    
C35   C36   1.397754 A    
O3    Cr2   2.055587 S    
H12   C32   1.082186 S    
C36   C50   1.444635 S    
C4    O9    1.285350 A    
C9    C43   1.459005 S    
C49   N2    1.156923 T    
C10   C11   1.408721 A    
C3    C18   1.451443 S    
C19   C23   1.389278 A    
O10   C5    1.313824 A    
O25   C48   1.267560 A    
