data_mof_unit_64837.cif
_audit_creation_date              2012-12-10T18:45:27-0500
_audit_creation_method            fapswitch 2.2
_symmetry_space_group_name_H-M    P1
_symmetry_Int_Tables_number       1
_space_group_crystal_system       triclinic
_cell_length_a                    18.095474
_cell_length_b                    18.138195
_cell_length_c                    43.058617
_cell_angle_alpha                 90.039684
_cell_angle_beta                  89.89414
_cell_angle_gamma                 90.043982
_cell_volume                      14132.6347144

loop_
_atom_site_label
_atom_site_type_symbol
_atom_type_description
_atom_site_fract_x
_atom_site_fract_y
_atom_site_fract_z
_atom_type_partial_charge
C1    C     C_R   0.499726 0.999774 0.334273 0.873849
C2    C     C_R   0.500275 0.000224 0.665726 0.873800
C3    C     C_R   0.999984 0.500021 0.334284 0.883016
C4    C     C_R   0.000019 0.499978 0.665719 0.883260
C5    C     C_R   0.999724 0.499776 0.834274 0.873800
C6    C     C_R   0.000274 0.500225 0.165727 0.873859
C7    C     C_R   0.499981 0.000021 0.834281 0.883256
C8    C     C_R   0.500016 0.999979 0.165716 0.882996
C9    C     C_R   0.500060 0.999942 0.131145 -0.110171
C10   C     C_R   0.499927 0.000057 0.868846 -0.109878
C11   C     C_R   0.001298 0.501934 0.131207 -0.092824
C12   C     C_R   0.998693 0.498094 0.868796 -0.092809
C13   C     C_R   0.000073 0.499942 0.631154 -0.109873
C14   C     C_R   0.999938 0.500058 0.368855 -0.110154
C15   C     C_R   0.501307 0.001903 0.631204 -0.092811
C16   C     C_R   0.498701 0.998066 0.368793 -0.092834
C17   C     C_R   0.999996 0.500045 0.468635 0.406839
C18   C     C_R   0.000022 0.499969 0.531383 0.406945
C19   C     C_R   0.499035 0.998702 0.468604 0.341493
C20   C     C_R   0.501002 0.001163 0.531392 0.341463
C21   C     C_R   0.499976 0.000030 0.968617 0.406938
C22   C     C_R   0.500001 0.999954 0.031365 0.406833
C23   C     C_R   0.998999 0.498832 0.968608 0.341449
C24   C     C_R   0.000964 0.501297 0.031397 0.341482
C25   C     C_R   0.641726 0.141041 0.249739 0.893887
C26   C     C_R   0.358256 0.858977 0.750269 0.894077
C27   C     C_R   0.858752 0.641544 0.249753 0.896090
C28   C     C_R   0.141246 0.358455 0.750248 0.896176
C29   C     C_R   0.358233 0.858961 0.249735 0.894925
C30   C     C_R   0.641784 0.141021 0.750273 0.895110
C31   C     C_R   0.141310 0.358491 0.249769 0.904224
C32   C     C_R   0.858704 0.641522 0.750238 0.904463
C33   C     C_R   0.141743 0.641023 0.749731 0.894077
C34   C     C_R   0.858274 0.358959 0.250261 0.893890
C35   C     C_R   0.358753 0.141545 0.749752 0.896176
C36   C     C_R   0.641248 0.858456 0.250247 0.896091
C37   C     C_R   0.858215 0.358978 0.749727 0.895110
C38   C     C_R   0.141767 0.641039 0.250265 0.894925
C39   C     C_R   0.641296 0.858478 0.749762 0.904464
C40   C     C_R   0.358689 0.141508 0.250231 0.904224
C41   C     C_3   0.233246 0.201047 0.272052 0.154780
C42   C     C_3   0.766590 0.798804 0.727868 0.154679
C43   C     C_3   0.794087 0.239131 0.274322 0.161920
C44   C     C_3   0.206333 0.760434 0.725511 0.161587
C45   C     C_3   0.767038 0.799357 0.271869 0.150608
C46   C     C_3   0.232970 0.200647 0.728128 0.150590
C47   C     C_3   0.205296 0.761416 0.274151 0.164124
C48   C     C_3   0.794368 0.238933 0.725712 0.163884
C49   C     C_3   0.733410 0.701197 0.772132 0.154677
C50   C     C_3   0.266753 0.298951 0.227947 0.154782
C51   C     C_3   0.293668 0.739566 0.774489 0.161587
C52   C     C_3   0.705913 0.260869 0.225678 0.161922
C53   C     C_3   0.267030 0.299353 0.771872 0.150590
C54   C     C_3   0.732963 0.700643 0.228130 0.150605
C55   C     C_3   0.705631 0.261067 0.774288 0.163883
C56   C     C_3   0.294704 0.738584 0.225849 0.164123
C57   C     C_3   0.184586 0.219503 0.243904 0.142284
C58   C     C_3   0.815441 0.780563 0.755983 0.142347
C59   C     C_3   0.782039 0.184106 0.247656 0.143831
C60   C     C_3   0.217895 0.815917 0.752047 0.144212
C61   C     C_3   0.815330 0.780328 0.243590 0.141516
C62   C     C_3   0.184671 0.219667 0.756407 0.141438
C63   C     C_3   0.218011 0.815831 0.247335 0.143044
C64   C     C_3   0.782056 0.184146 0.752427 0.143407
C65   C     C_3   0.684559 0.719437 0.744017 0.142346
C66   C     C_3   0.315413 0.280496 0.256095 0.142279
C67   C     C_3   0.282105 0.684083 0.747953 0.144212
C68   C     C_3   0.717960 0.315894 0.252344 0.143828
C69   C     C_3   0.315329 0.280333 0.743593 0.141439
C70   C     C_3   0.684670 0.719672 0.256410 0.141517
C71   C     C_3   0.717944 0.315854 0.747573 0.143407
C72   C     C_3   0.281989 0.684169 0.252665 0.143044
C73   C     C_3   0.198677 0.302278 0.249691 -0.220014
C74   C     C_3   0.801344 0.697743 0.750315 -0.220049
C75   C     C_3   0.698128 0.198247 0.249810 -0.210645
C76   C     C_3   0.301847 0.801776 0.750193 -0.210692
C77   C     C_3   0.801296 0.697680 0.249659 -0.219216
C78   C     C_3   0.198700 0.302318 0.750341 -0.219201
C79   C     C_3   0.301854 0.801770 0.249793 -0.212271
C80   C     C_3   0.698171 0.198205 0.750212 -0.212371
C81   C     C_3   0.698656 0.802258 0.749685 -0.220048
C82   C     C_3   0.301321 0.197721 0.250308 -0.220012
C83   C     C_3   0.198153 0.698224 0.749807 -0.210692
C84   C     C_3   0.801872 0.301753 0.250190 -0.210645
C85   C     C_3   0.301300 0.197682 0.749659 -0.219202
C86   C     C_3   0.698704 0.802321 0.250341 -0.219215
C87   C     C_3   0.801829 0.301795 0.749788 -0.212372
C88   C     C_3   0.198146 0.698230 0.250207 -0.212272
C89   C     C_3   0.247967 0.283553 0.278064 -0.102015
C90   C     C_3   0.751863 0.716251 0.721976 -0.102105
C91   C     C_3   0.710390 0.253931 0.276673 -0.120069
C92   C     C_3   0.290074 0.745633 0.723461 -0.120132
C93   C     C_3   0.752368 0.716951 0.278155 -0.098768
C94   C     C_3   0.247637 0.283055 0.721847 -0.098817
C95   C     C_3   0.288928 0.746692 0.276803 -0.117284
C96   C     C_3   0.710693 0.253655 0.723304 -0.117379
C97   C     C_3   0.748137 0.783749 0.778024 -0.102106
C98   C     C_3   0.252031 0.216446 0.221936 -0.102009
C99   C     C_3   0.209926 0.754367 0.776539 -0.120131
C100  C     C_3   0.789610 0.246069 0.223327 -0.120067
C101  C     C_3   0.252364 0.216945 0.778153 -0.098817
C102  C     C_3   0.747632 0.783049 0.221845 -0.098769
C103  C     C_3   0.789307 0.246345 0.776696 -0.117379
C104  C     C_3   0.211072 0.753308 0.223197 -0.117285
C105  C     C_R   0.529075 0.061245 0.114575 0.088684
C106  C     C_R   0.470622 0.938889 0.885410 0.088691
C107  C     C_R   0.942515 0.535533 0.114837 0.100833
C108  C     C_R   0.057520 0.464600 0.885175 0.100806
C109  C     C_R   0.471085 0.938612 0.114592 0.088723
C110  C     C_R   0.529181 0.061251 0.885397 0.088673
C111  C     C_R   0.061053 0.470223 0.114606 0.084851
C112  C     C_R   0.938885 0.529731 0.885390 0.085019
C113  C     C_R   0.029383 0.561108 0.614590 0.088695
C114  C     C_R   0.970914 0.438758 0.385424 0.088678
C115  C     C_R   0.442481 0.035398 0.614824 0.100813
C116  C     C_R   0.557489 0.964477 0.385164 0.100839
C117  C     C_R   0.970813 0.438751 0.614603 0.088669
C118  C     C_R   0.028921 0.561383 0.385408 0.088715
C119  C     C_R   0.561113 0.970262 0.614610 0.085023
C120  C     C_R   0.438940 0.029766 0.385395 0.084865
C121  C     C_R   0.531468 0.059838 0.081804 -0.063616
C122  C     C_R   0.468268 0.940280 0.918182 -0.063643
C123  C     C_R   0.942489 0.535609 0.082008 -0.059880
C124  C     C_R   0.057542 0.464565 0.918004 -0.059850
C125  C     C_R   0.468664 0.940008 0.081824 -0.063537
C126  C     C_R   0.531563 0.059858 0.918165 -0.063556
C127  C     C_R   0.060460 0.469594 0.081859 -0.051429
C128  C     C_R   0.939469 0.530391 0.918136 -0.051348
C129  C     C_R   0.031737 0.559716 0.581818 -0.063645
C130  C     C_R   0.968524 0.440164 0.418196 -0.063624
C131  C     C_R   0.442459 0.035431 0.581995 -0.059855
C132  C     C_R   0.557516 0.964402 0.417993 -0.059884
C133  C     C_R   0.968430 0.440144 0.581835 -0.063559
C134  C     C_R   0.031339 0.559989 0.418176 -0.063540
C135  C     C_R   0.560529 0.969601 0.581864 -0.051361
C136  C     C_R   0.439533 0.030395 0.418142 -0.051438
C137  C     C_R   0.500042 0.999931 0.065568 -0.135913
C138  C     C_R   0.499940 0.000057 0.934418 -0.136077
C139  C     C_R   0.001757 0.502960 0.065616 -0.128281
C140  C     C_R   0.998222 0.497142 0.934388 -0.128293
C141  C     C_R   0.000058 0.499942 0.565582 -0.136079
C142  C     C_R   0.999955 0.500068 0.434432 -0.135924
C143  C     C_R   0.501778 0.002853 0.565612 -0.128295
C144  C     C_R   0.498242 0.997040 0.434385 -0.128282
N1    N     N_R   0.469465 0.056816 0.015486 -0.120288
N2    N     N_R   0.530508 0.943165 0.984495 -0.120243
N3    N     N_R   0.054212 0.536477 0.014855 -0.084609
N4    N     N_R   0.945748 0.463656 0.985151 -0.084745
N5    N     N_R   0.530526 0.943130 0.015377 -0.120937
N6    N     N_R   0.469454 0.056856 0.984603 -0.120903
N7    N     N_R   0.946594 0.464999 0.016046 -0.126072
N8    N     N_R   0.053366 0.535134 0.983960 -0.125991
N9    N     N_R   0.969500 0.556839 0.515505 -0.120245
N10   N     N_R   0.030522 0.443177 0.484514 -0.120292
N11   N     N_R   0.554234 0.036367 0.514850 -0.084710
N12   N     N_R   0.445805 0.963494 0.485145 -0.084589
N13   N     N_R   0.030534 0.443138 0.515396 -0.120906
N14   N     N_R   0.969481 0.556874 0.484623 -0.120942
N15   N     N_R   0.446651 0.964835 0.516041 -0.126001
N16   N     N_R   0.553388 0.035026 0.483954 -0.126073
O1    O     O_3   0.500000 0.000000 0.250000 -0.503013
O2    O     O_3   0.500000 0.000000 0.750000 -0.502962
O3    O     O_3   0.000000 0.500000 0.250000 -0.503012
O4    O     O_3   0.000000 0.500000 0.750000 -0.502962
O5    O     O_R   0.438450 0.000020 0.319320 -0.619460
O6    O     O_R   0.561550 0.999980 0.680680 -0.619550
O7    O     O_R   0.999980 0.438450 0.319320 -0.620905
O8    O     O_R   0.000020 0.561550 0.680680 -0.621135
O9    O     O_R   0.561550 0.999980 0.319320 -0.609821
O10   O     O_R   0.438450 0.000020 0.680680 -0.609942
O11   O     O_R   0.000020 0.561550 0.319320 -0.620546
O12   O     O_R   0.999980 0.438450 0.680680 -0.620714
O13   O     O_R   0.938450 0.500020 0.819320 -0.619551
O14   O     O_R   0.061550 0.499980 0.180680 -0.619465
O15   O     O_R   0.499980 0.938450 0.819320 -0.621137
O16   O     O_R   0.500020 0.061550 0.180680 -0.620890
O17   O     O_R   0.061550 0.499980 0.819320 -0.609941
O18   O     O_R   0.938450 0.500020 0.180680 -0.609823
O19   O     O_R   0.500020 0.061550 0.819320 -0.620711
O20   O     O_R   0.499980 0.938450 0.180680 -0.620539
O21   O     O_R   0.648010 0.086580 0.268180 -0.611052
O22   O     O_R   0.351990 0.913420 0.731820 -0.611550
O23   O     O_R   0.913420 0.648010 0.268180 -0.626917
O24   O     O_R   0.086580 0.351990 0.731820 -0.626855
O25   O     O_R   0.351990 0.913420 0.268180 -0.615148
O26   O     O_R   0.648010 0.086580 0.731820 -0.615534
O27   O     O_R   0.086580 0.351990 0.268180 -0.628338
O28   O     O_R   0.913420 0.648010 0.731820 -0.628424
O29   O     O_R   0.148010 0.586580 0.768180 -0.611549
O30   O     O_R   0.851990 0.413420 0.231820 -0.611052
O31   O     O_R   0.413420 0.148010 0.768180 -0.626856
O32   O     O_R   0.586580 0.851990 0.231820 -0.626917
O33   O     O_R   0.851990 0.413420 0.768180 -0.615536
O34   O     O_R   0.148010 0.586580 0.231820 -0.615147
O35   O     O_R   0.586580 0.851990 0.768180 -0.628427
O36   O     O_R   0.413420 0.148010 0.231820 -0.628339
O37   O     O_R   0.413460 0.851950 0.231830 -0.658659
O38   O     O_R   0.586540 0.148050 0.768170 -0.658379
O39   O     O_R   0.148050 0.413460 0.231830 -0.649587
O40   O     O_R   0.851950 0.586540 0.768170 -0.649506
O41   O     O_R   0.586540 0.148050 0.231830 -0.658278
O42   O     O_R   0.413460 0.851950 0.768170 -0.657956
O43   O     O_R   0.851950 0.586540 0.231830 -0.651755
O44   O     O_R   0.148050 0.413460 0.768170 -0.651804
O45   O     O_R   0.913460 0.351950 0.731830 -0.658379
O46   O     O_R   0.086540 0.648050 0.268170 -0.658663
O47   O     O_R   0.648050 0.913460 0.731830 -0.649506
O48   O     O_R   0.351950 0.086540 0.268170 -0.649588
O49   O     O_R   0.086540 0.648050 0.731830 -0.657957
O50   O     O_R   0.913460 0.351950 0.268170 -0.658287
O51   O     O_R   0.351950 0.086540 0.731830 -0.651802
O52   O     O_R   0.648050 0.913460 0.268170 -0.651756
Zn1   Zn    Zn3+2 0.499980 0.087890 0.224030 0.993272
Zn2   Zn    Zn3+2 0.500020 0.912110 0.775970 0.993376
Zn3   Zn    Zn3+2 0.912110 0.499980 0.224030 1.018784
Zn4   Zn    Zn3+2 0.087890 0.500020 0.775970 1.018673
Zn5   Zn    Zn3+2 0.500020 0.912110 0.224030 0.990701
Zn6   Zn    Zn3+2 0.499980 0.087890 0.775970 0.990861
Zn7   Zn    Zn3+2 0.087890 0.500020 0.224030 1.010052
Zn8   Zn    Zn3+2 0.912110 0.499980 0.775970 1.010051
Zn9   Zn    Zn3+2 0.999980 0.587890 0.724030 0.993378
Zn10  Zn    Zn3+2 0.000020 0.412110 0.275970 0.993263
Zn11  Zn    Zn3+2 0.412110 0.999980 0.724030 1.018674
Zn12  Zn    Zn3+2 0.587890 0.000020 0.275970 1.018784
Zn13  Zn    Zn3+2 0.000020 0.412110 0.724030 0.990860
Zn14  Zn    Zn3+2 0.999980 0.587890 0.275970 0.990698
Zn15  Zn    Zn3+2 0.587890 0.000020 0.724030 1.010053
Zn16  Zn    Zn3+2 0.412110 0.999980 0.275970 1.010052
N17   N     N_2   0.112599 0.188833 0.236651 -0.283384
H1    H     H_    0.070057 0.210454 0.249711 0.234349
C145  C     C_3   0.109356 0.109447 0.233711 -0.720891
H2    H     H_    0.054681 0.093176 0.224307 0.235045
H3    H     H_    0.116679 0.082885 0.256690 0.246476
H4    H     H_    0.152511 0.088996 0.217556 0.256120
N18   N     N_2   0.887453 0.811326 0.763117 -0.283326
H5    H     H_    0.929921 0.789640 0.750034 0.234527
C146  C     C_3   0.890650 0.890736 0.765946 -0.720641
H6    H     H_    0.945369 0.907122 0.775268 0.235041
H7    H     H_    0.847579 0.911276 0.782121 0.256099
H8    H     H_    0.883161 0.917115 0.742939 0.246403
N19   N     N_2   0.814434 0.111265 0.245242 -0.286677
H9    H     H_    0.788808 0.078342 0.228972 0.239240
C147  C     C_3   0.894215 0.109065 0.243142 -0.755718
H10   H     H_    0.913469 0.051636 0.246602 0.230265
H11   H     H_    0.919982 0.144112 0.261273 0.264085
H12   H     H_    0.912845 0.127904 0.219905 0.252474
N20   N     N_2   0.185430 0.888781 0.754139 -0.286399
H13   H     H_    0.210765 0.922000 0.770383 0.239316
C148  C     C_3   0.105617 0.890971 0.755994 -0.755831
H14   H     H_    0.086391 0.948321 0.752279 0.230182
H15   H     H_    0.086614 0.872566 0.779239 0.252276
H16   H     H_    0.080174 0.855558 0.737907 0.264194
N21   N     N_2   0.887275 0.810740 0.235981 -0.287294
H17   H     H_    0.930023 0.788952 0.248792 0.233490
C149  C     C_3   0.890778 0.890108 0.233084 -0.719020
H18   H     H_    0.945011 0.906098 0.223081 0.235088
H19   H     H_    0.884922 0.916597 0.256178 0.246953
H20   H     H_    0.846826 0.910849 0.217456 0.256105
N22   N     N_2   0.112730 0.189238 0.764011 -0.287272
H21   H     H_    0.069979 0.211029 0.751202 0.233552
C150  C     C_3   0.109242 0.109865 0.766895 -0.718384
H22   H     H_    0.055005 0.093851 0.776887 0.235222
H23   H     H_    0.153187 0.089120 0.782526 0.256072
H24   H     H_    0.115122 0.083403 0.743798 0.246732
N23   N     N_2   0.185639 0.888591 0.244570 -0.287579
H25   H     H_    0.211633 0.921133 0.228247 0.239578
C151  C     C_3   0.105906 0.890675 0.242252 -0.756012
H26   H     H_    0.086538 0.948190 0.245386 0.230436
H27   H     H_    0.079737 0.856170 0.260486 0.264360
H28   H     H_    0.087822 0.871115 0.219062 0.252234
N24   N     N_2   0.814514 0.111371 0.754931 -0.287392
H29   H     H_    0.788759 0.078574 0.771231 0.239669
C152  C     C_3   0.894279 0.109311 0.757057 -0.756228
H30   H     H_    0.913654 0.051868 0.753700 0.230435
H31   H     H_    0.912647 0.128484 0.780265 0.252070
H32   H     H_    0.920182 0.144155 0.738871 0.264436
N25   N     N_2   0.612547 0.688674 0.736883 -0.283326
H33   H     H_    0.570079 0.710360 0.749966 0.234526
C153  C     C_3   0.609350 0.609264 0.734054 -0.720641
H34   H     H_    0.554631 0.592879 0.724731 0.235041
H35   H     H_    0.616839 0.582885 0.757060 0.246402
H36   H     H_    0.652421 0.588725 0.717879 0.256098
N26   N     N_2   0.387400 0.311166 0.263349 -0.283384
H37   H     H_    0.429942 0.289543 0.250290 0.234349
C154  C     C_3   0.390643 0.390553 0.266286 -0.720884
H38   H     H_    0.445315 0.406823 0.275694 0.235047
H39   H     H_    0.347482 0.411007 0.282439 0.256114
H40   H     H_    0.383329 0.417111 0.243306 0.246475
N27   N     N_2   0.314570 0.611219 0.745862 -0.286398
H41   H     H_    0.289235 0.578000 0.729617 0.239316
C155  C     C_3   0.394383 0.609029 0.744007 -0.755830
H42   H     H_    0.413609 0.551679 0.747721 0.230182
H43   H     H_    0.419826 0.644441 0.762093 0.264194
H44   H     H_    0.413386 0.627434 0.720761 0.252275
N28   N     N_2   0.685566 0.388735 0.254759 -0.286679
H45   H     H_    0.711191 0.421658 0.271029 0.239239
C156  C     C_3   0.605785 0.390935 0.256858 -0.755709
H46   H     H_    0.586532 0.448366 0.253399 0.230264
H47   H     H_    0.587153 0.372093 0.280094 0.252472
H48   H     H_    0.580018 0.355892 0.238725 0.264086
N29   N     N_2   0.387271 0.310763 0.735989 -0.287271
H49   H     H_    0.430021 0.288971 0.748797 0.233552
C157  C     C_3   0.390759 0.390135 0.733105 -0.718385
H50   H     H_    0.444996 0.406149 0.723113 0.235222
H51   H     H_    0.384878 0.416597 0.756202 0.246733
H52   H     H_    0.346814 0.410880 0.717474 0.256072
N30   N     N_2   0.612725 0.689260 0.264018 -0.287292
H53   H     H_    0.569977 0.711048 0.251207 0.233490
C158  C     C_3   0.609223 0.609892 0.266916 -0.719021
H54   H     H_    0.554989 0.593902 0.276918 0.235087
H55   H     H_    0.653173 0.589151 0.282545 0.256105
H56   H     H_    0.615080 0.583403 0.243822 0.246953
N31   N     N_2   0.685485 0.388629 0.745069 -0.287392
H57   H     H_    0.711240 0.421426 0.728769 0.239669
C159  C     C_3   0.605720 0.390689 0.742943 -0.756228
H58   H     H_    0.586346 0.448132 0.746300 0.230435
H59   H     H_    0.579818 0.355845 0.761130 0.264437
H60   H     H_    0.587352 0.371516 0.719735 0.252070
N32   N     N_2   0.314362 0.611409 0.255430 -0.287580
H61   H     H_    0.288368 0.578867 0.271754 0.239577
C160  C     C_3   0.394095 0.609325 0.257748 -0.756009
H62   H     H_    0.413462 0.551809 0.254614 0.230436
H63   H     H_    0.412179 0.628887 0.280938 0.252234
H64   H     H_    0.420263 0.643828 0.239513 0.264360
N33   N     N_2   0.217239 0.146901 0.295922 -0.282081
H65   H     H_    0.262622 0.134967 0.309417 0.262769
C161  C     C_3   0.151896 0.160170 0.314525 -0.767488
H66   H     H_    0.139423 0.110245 0.328483 0.238578
H67   H     H_    0.103337 0.172133 0.299754 0.245970
H68   H     H_    0.161071 0.206949 0.330676 0.253788
N34   N     N_2   0.782404 0.852783 0.703909 -0.282154
H69   H     H_    0.736920 0.864601 0.690455 0.262734
C162  C     C_3   0.847625 0.839406 0.685245 -0.767153
H70   H     H_    0.859985 0.889236 0.671210 0.238576
H71   H     H_    0.838359 0.792508 0.669164 0.253862
H72   H     H_    0.896286 0.827564 0.699974 0.245879
N35   N     N_2   0.843050 0.229764 0.300651 -0.296760
H73   H     H_    0.849260 0.277462 0.313410 0.253060
C163  C     C_3   0.828864 0.166205 0.320042 -0.712780
H74   H     H_    0.873774 0.160910 0.337429 0.232454
H75   H     H_    0.827491 0.114919 0.306039 0.270719
H76   H     H_    0.775619 0.172556 0.332578 0.253240
N36   N     N_2   0.157814 0.769304 0.699008 -0.296898
H77   H     H_    0.151823 0.721368 0.686388 0.252786
C164  C     C_3   0.172306 0.832513 0.679455 -0.712290
H78   H     H_    0.127674 0.837492 0.661926 0.232525
H79   H     H_    0.225749 0.825942 0.667090 0.253188
H80   H     H_    0.173455 0.884047 0.693300 0.270726
N37   N     N_2   0.783994 0.854029 0.295426 -0.280205
H81   H     H_    0.738931 0.867956 0.308841 0.259222
C165  C     C_3   0.848966 0.840040 0.314053 -0.759140
H82   H     H_    0.863078 0.890513 0.327378 0.243804
H83   H     H_    0.897059 0.825466 0.299334 0.244630
H84   H     H_    0.838337 0.794742 0.330778 0.250448
N38   N     N_2   0.216018 0.145978 0.704570 -0.280269
H85   H     H_    0.261085 0.132043 0.691158 0.259213
C166  C     C_3   0.151055 0.159974 0.685938 -0.759068
H86   H     H_    0.136936 0.109498 0.672616 0.243811
H87   H     H_    0.161702 0.205261 0.669210 0.250480
H88   H     H_    0.102961 0.174566 0.700653 0.244602
N39   N     N_2   0.155763 0.771520 0.300326 -0.292619
H89   H     H_    0.149192 0.724150 0.313250 0.253858
C167  C     C_3   0.169652 0.835540 0.319514 -0.732518
H90   H     H_    0.124319 0.841414 0.336745 0.233593
H91   H     H_    0.171551 0.886476 0.305323 0.270659
H92   H     H_    0.222552 0.829382 0.332238 0.248154
N40   N     N_2   0.843544 0.229230 0.699392 -0.292675
H93   H     H_    0.849908 0.276792 0.686575 0.253641
C168  C     C_3   0.829430 0.165474 0.680078 -0.732255
H94   H     H_    0.874516 0.159888 0.662717 0.233652
H95   H     H_    0.776338 0.171767 0.667507 0.248141
H96   H     H_    0.827783 0.114336 0.694145 0.270607
N41   N     N_2   0.717597 0.647217 0.796091 -0.282154
H97   H     H_    0.763080 0.635400 0.809546 0.262734
C169  C     C_3   0.652375 0.660594 0.814755 -0.767154
H98   H     H_    0.640015 0.610765 0.828791 0.238577
H99   H     H_    0.603714 0.672436 0.800026 0.245878
H100  H     H_    0.661641 0.707493 0.830836 0.253861
N42   N     N_2   0.282760 0.353096 0.204078 -0.282077
H101  H     H_    0.237376 0.365029 0.190583 0.262763
C170  C     C_3   0.348102 0.339827 0.185475 -0.767509
H102  H     H_    0.360582 0.389756 0.171520 0.238580
H103  H     H_    0.338922 0.293056 0.169319 0.253788
H104  H     H_    0.396659 0.327850 0.200245 0.245975
N43   N     N_2   0.342186 0.730696 0.800992 -0.296896
H105  H     H_    0.348177 0.778632 0.813611 0.252787
C171  C     C_3   0.327694 0.667487 0.820545 -0.712290
H106  H     H_    0.372327 0.662508 0.838074 0.232527
H107  H     H_    0.326544 0.615953 0.806700 0.270725
H108  H     H_    0.274251 0.674058 0.832910 0.253188
N44   N     N_2   0.656950 0.270238 0.199349 -0.296761
H109  H     H_    0.650737 0.222539 0.186591 0.253060
C172  C     C_3   0.671138 0.333795 0.179957 -0.712782
H110  H     H_    0.626224 0.339097 0.162574 0.232461
H111  H     H_    0.724379 0.327439 0.167419 0.253240
H112  H     H_    0.672521 0.385081 0.193961 0.270720
N45   N     N_2   0.283982 0.354023 0.795430 -0.280269
H113  H     H_    0.238916 0.367959 0.808841 0.259211
C173  C     C_3   0.348945 0.340026 0.814061 -0.759071
H114  H     H_    0.363065 0.390502 0.827383 0.243812
H115  H     H_    0.397039 0.325433 0.799347 0.244603
H116  H     H_    0.338298 0.294739 0.830790 0.250480
N46   N     N_2   0.716006 0.645971 0.204574 -0.280204
H117  H     H_    0.761069 0.632045 0.191158 0.259225
C174  C     C_3   0.651034 0.659960 0.185947 -0.759142
H118  H     H_    0.636923 0.609488 0.172621 0.243805
H119  H     H_    0.661663 0.705259 0.169222 0.250448
H120  H     H_    0.602941 0.674533 0.200666 0.244629
N47   N     N_2   0.656456 0.270770 0.800608 -0.292674
H121  H     H_    0.650090 0.223209 0.813424 0.253643
C175  C     C_3   0.670570 0.334526 0.819922 -0.732255
H122  H     H_    0.625484 0.340112 0.837283 0.233653
H123  H     H_    0.672217 0.385664 0.805855 0.270606
H124  H     H_    0.723661 0.328232 0.832493 0.248141
N48   N     N_2   0.344238 0.728479 0.199674 -0.292619
H125  H     H_    0.350809 0.775850 0.186751 0.253859
C176  C     C_3   0.330348 0.664460 0.180486 -0.732511
H126  H     H_    0.375684 0.658584 0.163256 0.233597
H127  H     H_    0.277450 0.670621 0.167760 0.248156
H128  H     H_    0.328444 0.613525 0.194677 0.270658
C177  C     C_2   0.247704 0.319716 0.309430 0.915617
O53   O     O_2   0.290581 0.298318 0.329373 -0.597106
O54   O     O_R   0.198982 0.377548 0.315711 -0.821098
H129  H     H_    0.204020 0.396987 0.337685 0.344609
C178  C     C_2   0.751949 0.679860 0.690657 0.915616
O55   O     O_2   0.708923 0.701076 0.670736 -0.596981
O56   O     O_R   0.800678 0.622022 0.684394 -0.821114
H130  H     H_    0.795500 0.602406 0.662454 0.344768
C179  C     C_2   0.667338 0.259662 0.306379 0.912398
O57   O     O_2   0.684624 0.306068 0.325635 -0.621817
O58   O     O_R   0.607779 0.212390 0.311891 -0.808575
H131  H     H_    0.583299 0.221772 0.332715 0.351936
C180  C     C_2   0.333655 0.739441 0.693909 0.912314
O59   O     O_2   0.316760 0.692689 0.674741 -0.621745
O60   O     O_R   0.393257 0.786687 0.688440 -0.808889
H132  H     H_    0.418126 0.776966 0.667725 0.352062
C181  C     C_2   0.753033 0.680781 0.309510 0.915032
O61   O     O_2   0.709884 0.701595 0.329523 -0.623772
O62   O     O_R   0.802326 0.623432 0.315681 -0.817915
H133  H     H_    0.797458 0.603901 0.337643 0.343742
C182  C     C_2   0.246983 0.319230 0.690492 0.915117
O63   O     O_2   0.290138 0.298417 0.670481 -0.623680
O64   O     O_R   0.197695 0.376582 0.684320 -0.817807
H134  H     H_    0.202573 0.396118 0.662359 0.343845
C183  C     C_2   0.331137 0.741682 0.306684 0.909863
O65   O     O_2   0.313457 0.695565 0.325999 -0.623252
O66   O     O_R   0.390286 0.789350 0.312313 -0.820570
H135  H     H_    0.414066 0.780533 0.333281 0.340982
C184  C     C_2   0.668053 0.259037 0.693543 0.909841
O67   O     O_2   0.685416 0.305433 0.674296 -0.623170
O68   O     O_R   0.608865 0.211394 0.687949 -0.820754
H136  H     H_    0.584767 0.220487 0.667067 0.341085
C185  C     C_2   0.748052 0.820141 0.809343 0.915616
O69   O     O_2   0.791077 0.798924 0.829264 -0.596983
O70   O     O_R   0.699324 0.877981 0.815605 -0.821117
H137  H     H_    0.704503 0.897597 0.837545 0.344766
C186  C     C_2   0.252296 0.180282 0.190569 0.915615
O71   O     O_2   0.209421 0.201681 0.170626 -0.597114
O72   O     O_R   0.301018 0.122450 0.184289 -0.821108
H138  H     H_    0.295982 0.103011 0.162315 0.344604
C187  C     C_2   0.166345 0.760559 0.806091 0.912316
O73   O     O_2   0.183240 0.807311 0.825259 -0.621744
O74   O     O_R   0.106743 0.713313 0.811560 -0.808888
H139  H     H_    0.081874 0.723033 0.832275 0.352063
C188  C     C_2   0.832662 0.240338 0.193621 0.912400
O75   O     O_2   0.815376 0.193933 0.174366 -0.621814
O76   O     O_R   0.892221 0.287610 0.188109 -0.808574
H140  H     H_    0.916701 0.278227 0.167285 0.351936
C189  C     C_2   0.253017 0.180771 0.809508 0.915117
O77   O     O_2   0.209862 0.201584 0.829519 -0.623678
O78   O     O_R   0.302305 0.123418 0.815680 -0.817809
H141  H     H_    0.297427 0.103883 0.837641 0.343845
C190  C     C_2   0.746967 0.819220 0.190490 0.915032
O79   O     O_2   0.790116 0.798406 0.170476 -0.623773
O80   O     O_R   0.697673 0.876568 0.184319 -0.817921
H142  H     H_    0.702541 0.896099 0.162356 0.343740
C191  C     C_2   0.831946 0.240963 0.806457 0.909841
O81   O     O_2   0.814583 0.194568 0.825704 -0.623169
O82   O     O_R   0.891135 0.288605 0.812051 -0.820755
H143  H     H_    0.915232 0.279513 0.832933 0.341086
C192  C     C_2   0.168864 0.758318 0.193316 0.909867
O83   O     O_2   0.186544 0.804436 0.174001 -0.623251
O84   O     O_R   0.109715 0.710651 0.187686 -0.820569
H144  H     H_    0.085935 0.719468 0.166719 0.340983
N49   N     N_2   0.560965 0.121844 0.131018 -0.295538
H145  H     H_    0.612606 0.138285 0.123571 0.238758
C193  C     C_3   0.511500 0.182426 0.138371 -0.601998
H146  H     H_    0.522641 0.230207 0.122982 0.248074
H147  H     H_    0.521098 0.200380 0.162675 0.237319
H148  H     H_    0.452468 0.166142 0.136039 0.242453
N50   N     N_2   0.438381 0.878485 0.868961 -0.295845
H149  H     H_    0.386621 0.862385 0.876396 0.238488
C194  C     C_3   0.487462 0.817578 0.861627 -0.602252
H150  H     H_    0.475643 0.769706 0.876878 0.247790
H151  H     H_    0.546587 0.833333 0.864176 0.242477
H152  H     H_    0.478134 0.799987 0.837258 0.237757
N51   N     N_2   0.886286 0.573547 0.131707 -0.298988
H153  H     H_    0.833236 0.566734 0.123623 0.270212
C195  C     C_3   0.903947 0.649324 0.139094 -0.682895
H154  H     H_    0.907512 0.682673 0.117506 0.255261
H155  H     H_    0.957220 0.652641 0.151807 0.228169
H156  H     H_    0.860088 0.672596 0.154203 0.263478
N52   N     N_2   0.113802 0.426636 0.868316 -0.298978
H157  H     H_    0.166842 0.433544 0.876397 0.270164
C196  C     C_3   0.096250 0.350816 0.860961 -0.682784
H158  H     H_    0.092706 0.317518 0.882564 0.255235
H159  H     H_    0.140157 0.327560 0.845873 0.263386
H160  H     H_    0.042995 0.347398 0.848240 0.228173
N53   N     N_2   0.439317 0.877966 0.131057 -0.294946
H161  H     H_    0.387697 0.861427 0.123691 0.238919
C197  C     C_3   0.488909 0.817484 0.138294 -0.603155
H162  H     H_    0.477765 0.769634 0.122933 0.247578
H163  H     H_    0.479463 0.799602 0.162622 0.237613
H164  H     H_    0.547905 0.833845 0.135820 0.241826
N54   N     N_2   0.561273 0.121724 0.868929 -0.295224
H165  H     H_    0.612998 0.137954 0.876287 0.238723
C198  C     C_3   0.512028 0.182501 0.861709 -0.603278
H166  H     H_    0.523752 0.230416 0.876960 0.247341
H167  H     H_    0.452946 0.166609 0.864360 0.241842
H168  H     H_    0.521263 0.200085 0.837330 0.237984
N55   N     N_2   0.121483 0.438295 0.131041 -0.292176
H169  H     H_    0.134688 0.385462 0.124183 0.262340
C199  C     C_3   0.185718 0.485582 0.133717 -0.668831
H170  H     H_    0.212148 0.493679 0.110688 0.243570
H171  H     H_    0.226558 0.459780 0.149516 0.227458
H172  H     H_    0.170111 0.540163 0.143455 0.258762
N56   N     N_2   0.878410 0.561557 0.868949 -0.292213
H173  H     H_    0.865091 0.614357 0.875813 0.262095
C200  C     C_3   0.814271 0.514147 0.866253 -0.669109
H174  H     H_    0.787805 0.506020 0.889273 0.243631
H175  H     H_    0.830000 0.459587 0.856529 0.258708
H176  H     H_    0.773420 0.539862 0.850433 0.227541
N57   N     N_2   0.061630 0.621509 0.631039 -0.295845
H177  H     H_    0.113392 0.637603 0.623604 0.238487
C201  C     C_3   0.012555 0.682421 0.638372 -0.602245
H178  H     H_    0.024383 0.730293 0.623122 0.247783
H179  H     H_    0.021881 0.700008 0.662742 0.237756
H180  H     H_    0.953428 0.666679 0.635821 0.242471
N58   N     N_2   0.939013 0.378165 0.368981 -0.295545
H181  H     H_    0.887364 0.361739 0.376427 0.238751
C202  C     C_3   0.988462 0.317569 0.361629 -0.601969
H182  H     H_    0.977260 0.269767 0.376999 0.248029
H183  H     H_    0.047497 0.333817 0.363990 0.242443
H184  H     H_    0.978909 0.299661 0.337316 0.237360
N59   N     N_2   0.386201 0.073366 0.631683 -0.298977
H185  H     H_    0.333160 0.066458 0.623602 0.270166
C203  C     C_3   0.403755 0.149186 0.639037 -0.682795
H186  H     H_    0.407302 0.182481 0.617433 0.255234
H187  H     H_    0.457009 0.152604 0.651759 0.228175
H188  H     H_    0.359847 0.172446 0.654124 0.263391
N60   N     N_2   0.613722 0.926468 0.368294 -0.298984
H189  H     H_    0.666772 0.933288 0.376377 0.270212
C204  C     C_3   0.596069 0.850688 0.360908 -0.682887
H190  H     H_    0.592506 0.817342 0.382497 0.255257
H191  H     H_    0.639933 0.827418 0.345801 0.263470
H192  H     H_    0.542798 0.847364 0.348195 0.228171
N61   N     N_2   0.938716 0.378281 0.631072 -0.295224
H193  H     H_    0.886990 0.362056 0.623714 0.238727
C205  C     C_3   0.987956 0.317500 0.638291 -0.603279
H194  H     H_    0.976224 0.269584 0.623042 0.247340
H195  H     H_    0.978725 0.299919 0.662671 0.237986
H196  H     H_    0.047040 0.333384 0.635637 0.241840
N62   N     N_2   0.060702 0.622023 0.368942 -0.294951
H197  H     H_    0.112326 0.638550 0.376308 0.238915
C206  C     C_3   0.011124 0.682518 0.361706 -0.603150
H198  H     H_    0.022304 0.730376 0.377059 0.247559
H199  H     H_    0.952124 0.666180 0.364195 0.241822
H200  H     H_    0.020548 0.700378 0.337375 0.237632
N63   N     N_2   0.621587 0.938435 0.631052 -0.292212
H201  H     H_    0.634900 0.885632 0.624190 0.262119
C207  C     C_3   0.685730 0.985839 0.633745 -0.669115
H202  H     H_    0.712193 0.993962 0.610724 0.243611
H203  H     H_    0.726581 0.960123 0.649564 0.227542
H204  H     H_    0.670007 0.040402 0.643468 0.258706
N64   N     N_2   0.378502 0.061679 0.368959 -0.292168
H205  H     H_    0.365282 0.114508 0.375818 0.262350
C208  C     C_3   0.314281 0.014375 0.366283 -0.668845
H206  H     H_    0.287851 0.006272 0.389312 0.243556
H207  H     H_    0.329903 0.959797 0.356545 0.258763
H208  H     H_    0.273434 0.040165 0.350483 0.227465
C209  C     C_2   0.569473 0.119699 0.064354 0.930446
O85   O     O_2   0.553032 0.184143 0.068870 -0.611455
O86   O     O_R   0.623388 0.101830 0.042297 -0.769963
H209  H     H_    0.644800 0.146983 0.031718 0.359982
C210  C     C_2   0.430067 0.880543 0.935631 0.930435
O87   O     O_2   0.446233 0.816041 0.931086 -0.611417
O88   O     O_R   0.376282 0.898587 0.957719 -0.769963
H210  H     H_    0.354716 0.853500 0.968293 0.360031
C211  C     C_2   0.882192 0.572856 0.064738 0.928126
O89   O     O_2   0.896814 0.623148 0.046846 -0.584716
O90   O     O_R   0.809161 0.549185 0.068325 -0.797282
H211  H     H_    0.773319 0.578530 0.055155 0.361010
C212  C     C_2   0.117891 0.427426 0.935283 0.928135
O91   O     O_2   0.103342 0.377130 0.953183 -0.584761
O92   O     O_R   0.190886 0.451205 0.931694 -0.797304
H212  H     H_    0.226770 0.421928 0.944870 0.360986
C213  C     C_2   0.430692 0.880111 0.064407 0.930071
O93   O     O_2   0.447157 0.815678 0.068876 -0.613000
O94   O     O_R   0.376770 0.897930 0.042440 -0.769604
H213  H     H_    0.355380 0.852754 0.031877 0.359739
C214  C     C_2   0.569731 0.119624 0.935586 0.930062
O95   O     O_2   0.553540 0.184116 0.931094 -0.612970
O96   O     O_R   0.623522 0.101620 0.957583 -0.769579
H214  H     H_    0.645068 0.146724 0.968144 0.359787
C215  C     C_2   0.120487 0.431775 0.064667 0.921946
O97   O     O_2   0.123473 0.364450 0.064561 -0.588111
O98   O     O_R   0.173567 0.473211 0.048785 -0.774633
H215  H     H_    0.211534 0.441179 0.037914 0.361910
C216  C     C_2   0.879370 0.568116 0.935319 0.921871
O99   O     O_2   0.876331 0.635440 0.935454 -0.588125
O100  O     O_R   0.826287 0.526596 0.951158 -0.774671
H216  H     H_    0.788267 0.558568 0.962027 0.361866
C217  C     C_2   0.069943 0.619450 0.564369 0.930436
O101  O     O_2   0.053783 0.683953 0.568914 -0.611415
O102  O     O_R   0.123727 0.601400 0.542281 -0.769965
H217  H     H_    0.145299 0.646484 0.531707 0.360031
C218  C     C_2   0.930518 0.380302 0.435645 0.930466
O103  O     O_2   0.946954 0.315858 0.431126 -0.611433
O104  O     O_R   0.876606 0.398170 0.457703 -0.769968
H218  H     H_    0.855194 0.353017 0.468282 0.359979
C219  C     C_2   0.382109 0.072567 0.564716 0.928129
O105  O     O_2   0.396656 0.122858 0.546814 -0.584767
O106  O     O_R   0.309113 0.048789 0.568307 -0.797308
H219  H     H_    0.273228 0.078063 0.555130 0.360985
C220  C     C_2   0.617820 0.927167 0.435263 0.928121
O107  O     O_2   0.603208 0.876876 0.453157 -0.584727
O108  O     O_R   0.690848 0.950849 0.431674 -0.797284
H220  H     H_    0.726696 0.921512 0.444843 0.361008
C221  C     C_2   0.930254 0.380382 0.564415 0.930065
O109  O     O_2   0.946435 0.315888 0.568908 -0.612973
O110  O     O_R   0.876467 0.398392 0.542417 -0.769578
H221  H     H_    0.854916 0.353291 0.531856 0.359789
C222  C     C_2   0.069315 0.619884 0.435592 0.930082
O111  O     O_2   0.052854 0.684317 0.431123 -0.612991
O112  O     O_R   0.123236 0.602063 0.457559 -0.769608
H222  H     H_    0.144628 0.647237 0.468122 0.359738
C223  C     C_2   0.620627 0.931874 0.564681 0.921873
O113  O     O_2   0.623683 0.864551 0.564557 -0.588140
O114  O     O_R   0.673691 0.973392 0.548829 -0.774664
H223  H     H_    0.711712 0.941419 0.537961 0.361869
C224  C     C_2   0.379498 0.068201 0.435334 0.921941
O115  O     O_2   0.376487 0.135526 0.435433 -0.588123
O116  O     O_R   0.326440 0.026755 0.451223 -0.774628
H224  H     H_    0.288465 0.058778 0.462094 0.361909

loop_
_geom_bond_atom_site_label_1
_geom_bond_atom_site_label_2
_ccdc_geom_bond_type
C132  C144  A    
O33   Zn8   S    
O94   H213  S    
C40   O48   A    
C166  H86   S    
O1    Zn5   S    
C175  H123  S    
N18   C146  S    
C186  O71   D    
C155  H42   S    
N4    N7    A    
O72   H138  S    
C52   C75   S    
C53   C69   S    
C42   C58   S    
N64   C208  S    
N35   H73   S    
C157  H51   S    
C181  O61   D    
C91   C179  S    
O22   Zn11  S    
C19   C144  S    
C56   C79   S    
O18   Zn3   S    
C46   C62   S    
O43   Zn3   S    
N46   C174  S    
C220  O107  D    
C221  O110  S    
C179  O57   D    
N24   H29   S    
O1    Zn12  S    
C152  H32   S    
O49   Zn9   S    
C33   O29   A    
C178  O55   D    
C201  H180  S    
C55   N47   S    
C192  O84   S    
C212  O92   S    
C203  H186  S    
C133  C221  S    
C56   C72   S    
O46   Zn14  S    
C44   C92   S    
C62   C101  S    
C171  H108  S    
C169  H99   S    
C117  C133  A    
C217  O102  S    
C211  O89   D    
C82   C98   S    
O38   Zn6   S    
C108  C124  A    
C90   C178  S    
C109  N53   S    
C124  C140  A    
C66   C89   S    
C53   N45   S    
N52   C196  S    
C148  H15   S    
C124  C212  S    
O74   H139  S    
C84   C100  S    
C70   C93   S    
C5    C12   S    
C58   N18   S    
C6    C11   S    
C198  H167  S    
O11   Zn14  S    
C162  H71   S    
C6    O14   A    
C36   C86   S    
N61   H193  S    
O25   Zn16  S    
C39   O35   A    
C60   C76   S    
O5    Zn16  S    
C4    O8    A    
C38   C88   S    
C17   C142  S    
C218  O104  S    
O56   H130  S    
C37   O33   A    
C46   N38   S    
N17   H1    S    
O29   Zn4   S    
C40   C82   S    
C66   C82   S    
O12   Zn13  S    
C8    O20   A    
C98   C186  S    
N38   H85   S    
C54   C70   S    
C208  H208  S    
O51   Zn11  S    
C119  N63   S    
C48   C87   S    
C104  C192  S    
C193  H147  S    
C210  O87   D    
O42   Zn2   S    
C164  H80   S    
C63   N23   S    
C222  O111  D    
C71   N31   S    
C87   C103  S    
C26   O22   A    
C166  H88   S    
N57   C201  S    
C223  O113  D    
O40   Zn8   S    
C204  H192  S    
C15   C115  A    
C50   C73   S    
C171  H106  S    
O96   H214  S    
C131  C143  A    
N21   C149  S    
C172  H110  S    
C162  H72   S    
C173  H115  S    
C61   N21   S    
C48   C96   S    
O2    Zn15  S    
C63   C104  S    
N22   C150  S    
O2    Zn2   S    
C61   C102  S    
C169  H98   S    
O34   Zn7   S    
O27   Zn10  S    
C73   C89   S    
C218  O103  D    
C67   N27   S    
C21   N2    A    
C74   C90   S    
N45   C173  S    
C53   C78   S    
C154  H39   S    
C18   N13   A    
C219  O105  D    
C55   C80   S    
C198  H168  S    
C198  H166  S    
C78   C94   S    
C41   C82   S    
C67   C92   S    
C145  H4    S    
C153  H35   S    
C183  O65   D    
C27   O23   A    
O106  H219  S    
N63   C207  S    
C49   C97   S    
O2    Zn11  S    
C191  O82   S    
C160  H62   S    
C31   O27   A    
O16   Zn1   S    
N51   C195  S    
N47   H121  S    
C186  O72   S    
C55   C71   S    
N43   C171  S    
O3    Zn7   S    
C41   C89   S    
N32   C160  S    
C67   C83   S    
C177  O53   D    
O50   Zn10  S    
C151  H27   S    
O98   H215  S    
C126  C214  S    
O8    Zn9   S    
C44   C83   S    
C45   C93   S    
C216  O99   D    
C165  H84   S    
C3    O7    A    
C116  N60   S    
C206  H198  S    
C22   C137  S    
C148  H14   S    
C202  H182  S    
C69   N29   S    
C27   O43   A    
C19   N16   A    
C155  H43   S    
C25   O41   A    
C16   C120  A    
C32   C74   S    
N21   H17   S    
C136  C144  A    
C151  H28   S    
N31   C159  S    
C9    C105  A    
C173  H114  S    
C113  N57   S    
N19   H9    S    
C121  C137  A    
N9    N14   A    
N33   C161  S    
C204  H190  S    
O35   Zn2   S    
C34   O50   A    
O26   Zn15  S    
O58   H131  S    
C61   C77   S    
O6    Zn15  S    
C116  C132  A    
C170  H104  S    
N29   C157  S    
N48   C176  S    
O4    Zn13  S    
C32   O40   A    
O30   Zn3   S    
N1    N6    A    
C118  C134  A    
C43   C59   S    
C54   C77   S    
O28   Zn9   S    
C147  H12   S    
C135  C143  A    
C197  H164  S    
N25   H33   S    
C135  C223  S    
C59   C100  S    
C156  H47   S    
O20   Zn5   S    
C209  O85   D    
C42   C81   S    
C34   C84   S    
O32   Zn5   S    
C189  O77   D    
N58   C202  S    
C176  H127  S    
C200  H174  S    
C205  H196  S    
C158  H55   S    
C172  H112  S    
C50   C98   S    
C222  O112  S    
C95   C183  S    
C7    O19   A    
O15   Zn2   S    
C129  C217  S    
C23   C140  S    
C34   O30   A    
C203  H188  S    
O39   Zn7   S    
C51   C76   S    
C149  H19   S    
C174  H120  S    
C161  H67   S    
C52   N44   S    
C184  O68   S    
C52   C100  S    
O10   Zn11  S    
N62   C206  S    
O7    Zn10  S    
N49   H145  S    
C50   C66   S    
O92   H212  S    
C46   C94   S    
C94   C182  S    
N18   H5    S    
C160  H64   S    
C106  C122  A    
C192  O83   D    
N63   H201  S    
C51   C67   S    
N23   C151  S    
C108  N52   S    
C42   N34   S    
C110  C126  A    
C206  H199  S    
N38   C166  S    
C76   C92   S    
N36   C164  S    
C167  H92   S    
C10   C106  A    
C160  H63   S    
N37   C165  S    
N54   H165  S    
C86   C102  S    
C12   C112  A    
C69   C85   S    
C58   C74   S    
C223  O114  S    
O52   Zn12  S    
C169  H100  S    
N44   C172  S    
C159  H60   S    
C35   O31   A    
C4    O12   A    
C102  C190  S    
C30   O38   A    
C36   O32   A    
C93   C181  S    
C62   C78   S    
C18   C141  S    
C204  H191  S    
C101  C189  S    
C171  H107  S    
C24   N3    A    
C115  N59   S    
C150  H24   S    
C199  H170  S    
C8    O16   A    
C214  O95   D    
C190  O80   S    
O44   Zn4   S    
C168  H96   S    
N25   C153  S    
C45   C86   S    
C128  C140  A    
N45   H113  S    
O48   Zn16  S    
C11   C107  A    
C35   C85   S    
C112  N56   S    
N59   C203  S    
C15   C119  A    
C201  H179  S    
C66   N26   S    
C130  C142  A    
C70   N30   S    
C149  H20   S    
C106  N50   S    
O68   H136  S    
C159  H58   S    
C163  H76   S    
C60   N20   S    
C184  O67   D    
C146  H8    S    
C193  H146  S    
O114  H223  S    
C182  O64   S    
C220  O108  S    
N57   H177  S    
N50   H149  S    
C62   N22   S    
C6    O18   A    
C197  H162  S    
C105  N49   S    
C224  O116  S    
C7    C10   S    
C120  N64   S    
C23   N8    A    
O2    Zn6   S    
C217  O101  D    
C20   N11   A    
O66   H135  S    
N50   C194  S    
O82   H143  S    
C107  C123  A    
C31   O39   A    
N42   H101  S    
N60   C204  S    
O4    Zn4   S    
N39   C167  S    
C89   C177  S    
N37   H81   S    
N60   H189  S    
C162  H70   S    
O24   Zn13  S    
C168  H94   S    
C202  H184  S    
N41   C169  S    
C47   C63   S    
N53   H161  S    
C48   C64   S    
O9    Zn12  S    
C129  C141  A    
C127  C215  S    
C147  H10   S    
C68   N28   S    
C200  H176  S    
N48   H125  S    
C185  O70   S    
O13   Zn8   S    
C50   N42   S    
C64   C80   S    
O3    Zn3   S    
O4    Zn9   S    
C165  H82   S    
C53   C101  S    
C208  H207  S    
C167  H90   S    
O45   Zn13  S    
C164  H79   S    
C2    O6    A    
O1    Zn16  S    
C189  O78   S    
C22   N5    A    
O70   H137  S    
C166  H87   S    
O62   H133  S    
C83   C99   S    
C194  H150  S    
C103  C191  S    
C175  H124  S    
C19   N12   A    
C178  O56   S    
C20   C143  S    
C195  H155  S    
C37   O45   A    
C21   C138  S    
O37   Zn5   S    
C17   N10   A    
C16   C116  A    
O31   Zn6   S    
N35   C163  S    
C212  O91   D    
C157  H52   S    
N20   C148  S    
C24   C139  S    
C9    C109  A    
C65   C90   S    
C210  O88   S    
C11   C111  A    
N30   H53   S    
C68   C84   S    
C114  N58   S    
N44   H109  S    
C48   N40   S    
C56   C104  S    
N10   N13   A    
N28   C156  S    
C69   C94   S    
C117  N61   S    
N28   H45   S    
C115  C131  A    
C71   C96   S    
C125  C137  A    
C187  O73   D    
C119  C135  A    
N62   H197  S    
C54   N46   S    
C25   C75   S    
N47   C175  S    
O88   H210  S    
C79   C95   S    
C154  H38   S    
C134  C142  A    
N2    N5    A    
C57   N17   S    
C130  C218  S    
C65   C81   S    
C163  H74   S    
C29   C79   S    
N52   H157  S    
C195  H156  S    
C45   N37   S    
C51   N43   S    
C88   C104  S    
C145  H3    S    
C1    C16   S    
C2    C15   S    
C122  C138  A    
C3    C14   S    
C49   C65   S    
C2    O10   A    
C71   C87   S    
O47   Zn15  S    
C65   N25   S    
N26   H37   S    
C207  H204  S    
C44   N36   S    
C100  C188  S    
O60   H132  S    
C206  H200  S    
C12   C108  A    
N43   H105  S    
O3    Zn10  S    
C110  N54   S    
N56   C200  S    
C134  C222  S    
C203  H187  S    
C181  O62   S    
C54   C102  S    
N29   H49   S    
C47   N39   S    
C211  O90   S    
C13   C117  A    
O110  H221  S    
C165  H83   S    
C159  H59   S    
C187  O74   S    
C133  C141  A    
C151  H26   S    
C174  H119  S    
C153  H34   S    
C41   C57   S    
C161  H66   S    
N17   C145  S    
N34   H69   S    
C14   C114  A    
C199  H171  S    
N31   H57   S    
C150  H22   S    
C44   C60   S    
C57   C98   S    
C122  C210  S    
C45   C61   S    
C199  H172  S    
C10   C110  A    
C193  H148  S    
C28   O24   A    
N33   H65   S    
C64   C103  S    
C112  C128  A    
N42   C170  S    
N32   H61   S    
C38   O34   A    
O64   H134  S    
C111  N55   S    
C202  H183  S    
C194  H152  S    
O102  H217  S    
C170  H103  S    
C49   C74   S    
N27   C155  S    
O14   Zn7   S    
C120  C136  A    
C221  O109  D    
O108  H220  S    
C114  C130  A    
C173  H116  S    
N36   H77   S    
C197  H163  S    
C123  C139  A    
N26   C154  S    
C156  H46   S    
N46   H117  S    
N54   C198  S    
O78   H141  S    
C60   C99   S    
C5    O13   A    
C118  N62   S    
C176  H126  S    
C188  O75   D    
O112  H222  S    
C205  H195  S    
C63   C79   S    
C158  H54   S    
C172  H111  S    
C196  H158  S    
C191  O81   D    
C23   N4    A    
C113  C129  A    
O84   H144  S    
C30   O26   A    
C96   C184  S    
C26   O42   A    
C154  H40   S    
C219  O106  S    
C43   N35   S    
C31   C73   S    
C57   C73   S    
C195  H154  S    
C55   C103  S    
C132  C220  S    
C136  C224  S    
C68   C91   S    
C41   N33   S    
N51   H153  S    
C153  H36   S    
C4    C13   S    
C209  O86   S    
C35   O51   A    
C175  H122  S    
C188  O76   S    
C72   C95   S    
C33   O49   A    
O54   H129  S    
C157  H50   S    
C24   N7    A    
C29   O25   A    
C8    C9    S    
C14   C118  A    
C20   N15   A    
C39   O47   A    
C42   C90   S    
O104  H218  S    
C152  H31   S    
C214  O96   S    
O3    Zn14  S    
C28   C78   S    
N55   H169  S    
C123  C211  S    
C52   C68   S    
C30   C80   S    
O4    Zn8   S    
C215  O98   S    
O21   Zn12  S    
C43   C84   S    
C167  H91   S    
O17   Zn4   S    
C121  C209  S    
C58   C97   S    
C127  C139  A    
O23   Zn14  S    
C72   C88   S    
C25   O21   A    
N61   C205  S    
C213  O94   S    
C51   C99   S    
C207  H203  S    
N23   H25   S    
C92   C180  S    
C32   O28   A    
C179  O58   S    
C28   O44   A    
O76   H140  S    
C155  H44   S    
C39   C81   S    
N40   C168  S    
C196  H159  S    
N53   C197  S    
O80   H142  S    
C150  H23   S    
C107  N51   S    
C147  H11   S    
C190  O79   D    
C43   C91   S    
N64   H205  S    
C7    O15   A    
C128  C216  S    
N19   C147  S    
C213  O93   D    
C183  O66   S    
C64   N24   S    
C149  H18   S    
N40   H93   S    
C33   C83   S    
C72   N32   S    
C26   C76   S    
C205  H194  S    
C22   N1    A    
C1    O5    A    
C201  H178  S    
O41   Zn1   S    
N59   H185  S    
C105  C121  A    
C21   N6    A    
C17   N14   A    
N34   C162  S    
C5    O17   A    
C18   N9    A    
C131  C219  S    
C46   C85   S    
C109  C125  A    
N55   C199  S    
C163  H75   S    
C36   O52   A    
C180  O59   D    
C29   O37   A    
C146  H7    S    
O19   Zn6   S    
C111  C127  A    
C156  H48   S    
C80   C96   S    
N22   H21   S    
C70   C86   S    
C59   C75   S    
N58   H181  S    
C176  H128  S    
C85   C101  S    
C77   C93   S    
N27   H41   S    
C224  O115  D    
C40   O36   A    
C158  H56   S    
N24   C152  S    
O1    Zn1   S    
C126  C138  A    
C196  H160  S    
C38   O46   A    
N11   N16   A    
C37   C87   S    
N12   N15   A    
C49   N41   S    
C27   C77   S    
C161  H68   S    
N20   H13   S    
C215  O97   D    
C75   C91   S    
C56   N48   S    
O100  H216  S    
C180  O60   S    
N39   H89   S    
C59   N19   S    
C47   C88   S    
N56   H173  S    
C194  H151  S    
N3    N8    A    
C216  O100  S    
N30   C158  S    
O86   H209  S    
N49   C193  S    
N41   H97   S    
C207  H202  S    
O36   Zn1   S    
C3    O11   A    
C182  O63   D    
C170  H102  S    
C81   C97   S    
C99   C187  S    
C1    O9    A    
C200  H175  S    
C174  H118  S    
C185  O69   D    
C148  H16   S    
O90   H211  S    
C97   C185  S    
C177  O54   S    
C208  H206  S    
C145  H2    S    
C47   C95   S    
C168  H95   S    
C164  H78   S    
C146  H6    S    
C125  C213  S    
C13   C113  A    
O116  H224  S    
C152  H30   S    
