data_mof_unit_19715.cif
_audit_creation_date              2012-12-10T17:03:38-0500
_audit_creation_method            fapswitch 2.2
_symmetry_space_group_name_H-M    P1
_symmetry_Int_Tables_number       1
_space_group_crystal_system       triclinic
_cell_length_a                    10.038763
_cell_length_b                    10.761167
_cell_length_c                    13.055371
_cell_angle_alpha                 89.069161
_cell_angle_beta                  72.396926
_cell_angle_gamma                 88.080295
_cell_volume                      1343.53325042

loop_
_atom_site_label
_atom_site_type_symbol
_atom_type_description
_atom_site_fract_x
_atom_site_fract_y
_atom_site_fract_z
_atom_type_partial_charge
C1    C     C_R   0.498092 0.738108 0.498912 0.747346
C2    C     C_R   0.384952 0.574019 0.810322 -0.216517
C3    C     C_2   0.616519 0.064696 0.482745 -0.138473
C4    C     C_R   0.425155 0.518268 0.701867 0.902319
C5    C     C_2   0.500186 0.133515 0.522179 -0.240391
C6    C     C_2   0.610036 0.931312 0.493110 -0.287473
C7    C     C_2   0.497470 0.871597 0.486597 0.365527
C8    C     C_2   0.104868 0.441087 0.429142 0.561791
C9    C     C_2   0.960570 0.472851 0.416484 0.446234
C10   C     C_R   0.500651 0.263275 0.504255 0.909855
C11   C     C_R   0.575147 0.504739 0.296215 0.934630
C12   C     C_R   0.445455 0.635482 0.970387 -0.074012
C13   C     C_R   0.785962 0.518610 0.006268 0.575252
C14   C     C_R   0.615199 0.530662 0.180871 -0.292405
C15   C     C_R   0.243546 0.593453 0.865767 -0.396541
C16   C     C_R   0.203224 0.656172 0.963878 0.506680
C17   C     C_R   0.303083 0.676768 0.017355 0.462195
C18   C     C_3   0.260552 0.917105 0.516661 -0.321394
C19   C     C_3   0.211283 0.351246 0.263648 -0.234770
C20   C     C_3   0.074003 0.630338 0.635706 -0.243874
C21   C     C_3   0.963777 0.603639 0.279786 -0.216701
C22   C     C_3   0.920695 0.358488 0.915022 -0.386325
C23   C     C_R   0.486178 0.611763 0.858806 0.018818
C24   C     C_3   0.444623 0.768743 0.237847 -0.079512
C25   C     C_3   0.285316 0.878127 0.069694 -0.326106
C26   C     C_3   0.016804 0.772458 0.942414 -0.307724
C27   C     C_R   0.549527 0.608989 0.024715 -0.050232
C28   C     C_R   0.688918 0.576855 0.960994 -0.030237
C29   C     C_R   0.728563 0.600665 0.851351 -0.225198
C30   C     C_R   0.628116 0.624054 0.801009 -0.158371
C31   C     C_R   0.520684 0.597499 0.137305 0.435975
C32   C     C_R   0.746877 0.493152 0.115629 -0.358366
H1    H     H_    0.819906 0.444039 0.149394 0.223389
H2    H     H_    0.231272 0.448177 0.233013 0.195151
H3    H     H_    0.123617 0.311621 0.240872 0.189276
H4    H     H_    0.306583 0.294617 0.223312 0.168967
H5    H     H_    0.169534 0.673810 0.641186 0.201642
H6    H     H_    0.053027 0.544021 0.685498 0.154319
H7    H     H_    0.987535 0.698876 0.669393 0.127071
H8    H     H_    0.070510 0.634793 0.273817 0.198079
H9    H     H_    0.883343 0.667134 0.332980 0.176213
H10   H     H_    0.950903 0.610661 0.198763 0.236714
H11   H     H_    0.836083 0.591813 0.803257 0.160168
H12   H     H_    0.867495 0.486939 0.573120 0.132497
H13   H     H_    0.844285 0.342024 0.870480 0.166347
H14   H     H_    0.900135 0.296946 0.987101 0.173486
H15   H     H_    0.026275 0.332997 0.860992 0.193887
H16   H     H_    0.494443 0.828839 0.167386 0.118505
H17   H     H_    0.518016 0.754553 0.285898 0.116725
H18   H     H_    0.349765 0.819043 0.287813 0.218418
H19   H     H_    0.214948 0.908314 0.022212 0.166260
H20   H     H_    0.396309 0.892127 0.021993 0.140509
H21   H     H_    0.261033 0.939292 0.140963 0.187045
H22   H     H_    0.990091 0.717764 0.880491 0.178198
H23   H     H_    0.164891 0.567161 0.829879 0.220112
H24   H     H_    0.093382 0.844240 0.903006 0.120522
H25   H     H_    0.919581 0.821747 0.990141 0.182411
H26   H     H_    0.663967 0.645943 0.716290 0.179475
H27   H     H_    0.716509 0.105826 0.442671 0.166687
H28   H     H_    0.402361 0.094665 0.569401 0.166204
H29   H     H_    0.699364 0.882739 0.507556 0.150180
H30   H     H_    0.255654 0.898744 0.602041 0.119284
H31   H     H_    0.209707 0.842204 0.486140 0.231786
H32   H     H_    0.198500 0.004046 0.515310 0.192879
N1    N     N_2   0.148270 0.498670 0.498870 0.032983
N2    N     N_2   0.852610 0.498640 0.498840 -0.221804
O1    O     O_R   0.386950 0.680940 0.500020 -0.594463
O2    O     O_3   0.187053 0.341674 0.375530 -0.621463
O3    O     O_3   0.080780 0.609127 0.528494 -0.610401
O4    O     O_3   0.945563 0.479021 0.315030 -0.634651
O5    O     O_3   0.919194 0.484544 0.943172 -0.604876
O6    O     O_3   0.404052 0.654401 0.206517 -0.575182
O7    O     O_3   0.262374 0.753790 0.105392 -0.556400
O8    O     O_3   0.065356 0.694164 0.012368 -0.577699
O9    O     O_R   0.613110 0.680900 0.499980 -0.652247
O10   O     O_R   0.330780 0.500000 0.653640 -0.641845
O11   O     O_R   0.556930 0.499960 0.653610 -0.624982
O12   O     O_R   0.386890 0.319100 0.500020 -0.574120
O13   O     O_R   0.613050 0.319060 0.499980 -0.614880
O14   O     O_R   0.443070 0.500040 0.346390 -0.542977
O15   O     O_R   0.669220 0.500000 0.346360 -0.567522
O16   O     O_3   0.397845 0.932996 0.447515 -0.616437
Zn1   Zn    Zn3+2 0.349000 0.500030 0.500020 1.015965
Zn2   Zn    Zn3+2 0.651000 0.499970 0.499980 0.948595

loop_
_geom_bond_atom_site_label_1
_geom_bond_atom_site_label_2
_ccdc_geom_bond_type
C8    C9    S    
O1    Zn1   S    
C13   C32   A    
H12   N2    S    
C14   C31   A    
C3    C6    S    
C10   O12   A    
C11   O15   A    
C12   C23   A    
C16   O8    S    
C6    H29   S    
C28   C29   A    
C25   H21   S    
C19   H4    S    
O13   Zn2   S    
C11   C14   S    
O9    Zn2   S    
N1    Zn1   S    
C15   C16   A    
C9    N2    D    
C26   O8    S    
O12   Zn1   S    
C16   C17   A    
C12   C17   A    
C13   C28   A    
C22   H15   S    
C8    N1    D    
C29   H11   S    
C17   O7    S    
O14   Zn1   S    
C26   H22   S    
O10   Zn1   S    
C24   H18   S    
C12   C27   A    
C27   C31   A    
C24   H16   S    
C23   C30   A    
C9    O4    S    
C20   H7    S    
C18   H30   S    
C13   O5    S    
O11   Zn2   S    
C1    O9    A    
C2    C4    S    
C25   H19   S    
C29   C30   A    
C20   H6    S    
C22   H13   S    
C19   O2    S    
C2    C15   A    
C21   H9    S    
C31   O6    S    
C22   H14   S    
C8    O2    S    
C18   O16   S    
C20   O3    S    
C22   O5    S    
C27   C28   A    
O15   Zn2   S    
C24   O6    S    
C24   H17   S    
C5    H28   S    
C1    C7    S    
C14   C32   A    
C3    C5    D    
C19   H2    S    
C26   H24   S    
C10   O13   A    
C6    C7    D    
C21   O4    S    
C32   H1    S    
C25   H20   S    
C4    O11   A    
C19   H3    S    
C20   H5    S    
C18   H32   S    
C21   H8    S    
N1    O3    S    
C30   H26   S    
C1    O1    A    
C25   O7    S    
C18   H31   S    
C26   H25   S    
C4    O10   A    
C11   O14   A    
N2    Zn2   S    
C21   H10   S    
C5    C10   S    
C7    O16   S    
C2    C23   A    
C15   H23   S    
C3    H27   S    
