data_mof_unit_28533.cif
_audit_creation_date              2013-03-05T15:55:18-0500
_audit_creation_method            fapswitch 2.2
_symmetry_space_group_name_H-M    P1
_symmetry_Int_Tables_number       1
_space_group_crystal_system       triclinic
_cell_length_a                    14.680871
_cell_length_b                    14.687619
_cell_length_c                    33.286484
_cell_angle_alpha                 96.055834
_cell_angle_beta                  96.15754
_cell_angle_gamma                 61.257068
_cell_volume                      6244.81645822

loop_
_atom_site_label
_atom_site_type_symbol
_atom_site_description
_atom_site_fract_x
_atom_site_fract_y
_atom_site_fract_z
_atom_type_partial_charge
O1    O     O_R   0.679450 0.499830 0.463150 -0.490282
O2    O     O_R   0.480650 0.664000 0.464630 -0.512612
C1    C     C_R   0.390249 0.701766 0.446298 0.874948
O3    O     O_R   0.323930 0.675950 0.455370 -0.510101
O4    O     O_R   0.354700 0.475360 0.451930 -0.560691
C2    C     C_R   0.403755 0.384276 0.434554 0.796620
O5    O     O_R   0.494470 0.320860 0.448390 -0.473998
O6    O     O_R   0.662580 0.357570 0.460050 -0.509801
C3    C     C_R   0.703174 0.408689 0.447757 0.883288
O7    O     O_R   0.680900 0.502040 0.551870 -0.495157
O8    O     O_R   0.481990 0.666040 0.546870 -0.515794
C4    C     C_R   0.392662 0.702721 0.560629 0.864484
O9    O     O_R   0.325370 0.678160 0.544080 -0.497420
O10   O     O_R   0.356040 0.477400 0.534170 -0.508183
C5    C     C_R   0.406605 0.388420 0.549021 0.932484
O11   O     O_R   0.495910 0.323070 0.537100 -0.505508
O12   O     O_R   0.663920 0.359620 0.542290 -0.521847
C6    C     C_R   0.704605 0.411888 0.562287 0.914188
Cr1   Cr    Cr6+3 0.576280 0.580550 0.506370 1.126244
Cr2   Cr    Cr6+3 0.346780 0.572400 0.496520 1.076229
Cr3   Cr    Cr6+3 0.576960 0.347070 0.497150 1.140678
O13   O     O_3   0.500010 0.500010 0.500010 -0.377850
C7    C     C_R   0.362519 0.358307 0.394260 -0.195703
C8    C     C_R   0.267719 0.433297 0.375516 -0.178028
C9    C     C_R   0.250345 0.425482 0.332817 -0.079201
C10   C     C_R   0.323017 0.338779 0.310121 -0.002992
C11   C     C_R   0.404985 0.254053 0.329814 -0.146694
C12   C     C_R   0.423952 0.263621 0.371995 0.346272
C13   C     C_R   0.398346 0.260904 0.166145 0.352793
C14   C     C_R   0.390096 0.244992 0.123812 0.299849
C15   C     C_R   0.209383 0.383122 0.122712 0.296734
C16   C     C_R   0.218804 0.398219 0.164992 0.342648
C17   C     C_R   0.311111 0.333444 0.186710 -0.234173
C18   C     C_1   0.314669 0.338154 0.230233 0.239536
C19   C     C_1   0.317404 0.339359 0.266524 0.123357
C20   C     C_R   0.292489 0.299603 0.101928 -0.358690
N1    N     N_R   0.748560 0.358063 0.222047 -0.221710
N2    N     N_R   0.742545 0.365456 0.261955 -0.242109
C21   C     C_R   0.764387 0.369084 0.410894 -0.277785
C22   C     C_R   0.799677 0.430855 0.394134 0.309316
C23   C     C_R   0.825778 0.411870 0.353439 -0.189774
C24   C     C_R   0.822446 0.326915 0.330436 -0.202504
C25   C     C_R   0.804089 0.256177 0.348790 0.342845
C26   C     C_R   0.776752 0.275773 0.389043 0.300845
N3    N     N_R   0.922650 0.257682 0.270211 -0.167221
N4    N     N_R   0.928738 0.250722 0.230341 -0.220844
C27   C     C_R   0.841955 0.301092 0.205654 0.641482
C28   C     C_R   0.829528 0.315873 0.286573 0.679298
C29   C     C_R   0.822848 0.387855 0.141978 -0.156168
C30   C     C_R   0.848460 0.379325 0.101569 0.357644
C31   C     C_R   0.925786 0.191213 0.101131 -0.259970
C32   C     C_R   0.896937 0.197810 0.140271 -0.075011
C33   C     C_R   0.850949 0.296024 0.161880 -0.054683
C34   C     C_R   0.907211 0.280027 0.082274 -0.101489
H1    H     H_    0.967448 0.114851 0.085893 0.180590
N5    N     N_R   0.361164 0.735963 0.219482 -0.193218
N6    N     N_R   0.362573 0.731629 0.259256 -0.227674
C35   C     C_R   0.369786 0.760146 0.409374 -0.359833
C36   C     C_R   0.277562 0.785940 0.384029 0.319796
C37   C     C_R   0.274374 0.806003 0.343505 0.313182
C38   C     C_R   0.360397 0.805620 0.328555 -0.293872
C39   C     C_R   0.444672 0.797396 0.355047 0.320360
C40   C     C_R   0.448823 0.776720 0.395607 0.315466
N7    N     N_R   0.364440 0.890814 0.269773 -0.173602
N8    N     N_R   0.362734 0.895263 0.229975 -0.198041
C41   C     C_R   0.360575 0.818199 0.204173 0.634663
C42   C     C_R   0.363465 0.809288 0.284976 0.664946
C43   C     C_R   0.261450 0.830501 0.137692 0.303572
C44   C     C_R   0.238657 0.861133 0.097748 0.352709
C45   C     C_R   0.396207 0.879984 0.101934 -0.209740
C46   C     C_R   0.418998 0.847582 0.141725 0.350160
C47   C     C_R   0.348530 0.829177 0.160322 -0.228567
C48   C     C_R   0.300486 0.896024 0.080692 -0.296430
N9    N     N_R   0.402979 0.361920 0.776428 -0.235721
N10   N     N_R   0.408678 0.364977 0.737035 -0.187328
C49   C     C_R   0.371608 0.367281 0.585639 -0.254104
C50   C     C_R   0.308526 0.450364 0.612549 0.337254
C51   C     C_R   0.306582 0.431795 0.652723 0.385104
C52   C     C_R   0.364647 0.330599 0.666182 -0.202731
C53   C     C_R   0.415323 0.244959 0.638247 -0.159083
C54   C     C_R   0.416031 0.263848 0.597612 0.279743
N11   N     N_R   0.323479 0.264378 0.722324 -0.181240
N12   N     N_R   0.318083 0.261061 0.761718 -0.177928
C55   C     C_R   0.357240 0.310183 0.789345 0.542032
C56   C     C_R   0.368344 0.316953 0.709394 0.663323
C57   C     C_R   0.234743 0.369849 0.843093 0.393225
C58   C     C_R   0.211381 0.361626 0.881708 0.342987
C59   C     C_R   0.397552 0.271540 0.902056 -0.101680
C60   C     C_R   0.420838 0.269367 0.861544 -0.111580
C61   C     C_R   0.338291 0.317709 0.832189 -0.213581
C62   C     C_R   0.292911 0.304805 0.910484 -0.289238
H2    H     H_    0.772756 0.223233 0.675474 0.170756
C63   C     C_R   0.759871 0.378571 0.602872 -0.174266
C64   C     C_R   0.789537 0.445401 0.628412 0.352693
C65   C     C_R   0.803053 0.436907 0.670578 0.396540
C66   C     C_R   0.790749 0.360254 0.687289 -0.028974
C67   C     C_R   0.774991 0.286407 0.662145 -0.189750
C68   C     C_R   0.763471 0.291927 0.620084 -0.096690
C69   C     C_R   0.882134 0.225155 0.820616 0.364257
C70   C     C_R   0.918729 0.204625 0.861004 0.300241
C71   C     C_R   0.835254 0.391460 0.879251 0.321836
C72   C     C_R   0.798904 0.412086 0.838384 -0.136985
C73   C     C_R   0.827232 0.327857 0.808980 -0.129682
C74   C     C_1   0.809215 0.344007 0.766265 0.215670
C75   C     C_1   0.799409 0.352779 0.730336 0.176368
C76   C     C_R   0.901521 0.287919 0.890405 -0.258179
C77   C     C_R   0.378557 0.745953 0.602526 -0.266473
C78   C     C_R   0.311960 0.852726 0.612003 -0.207964
C79   C     C_R   0.290639 0.886928 0.653030 0.425441
C80   C     C_R   0.333240 0.814130 0.683091 -0.171589
C81   C     C_R   0.399501 0.708759 0.673316 0.374503
C82   C     C_R   0.422226 0.674707 0.633185 0.380148
C83   C     C_R   0.352211 0.931956 0.824845 -0.125027
C84   C     C_R   0.355438 0.940764 0.867530 -0.146987
C85   C     C_R   0.246380 0.855732 0.866475 -0.111917
C86   C     C_R   0.246611 0.843821 0.823953 0.349919
C87   C     C_R   0.295836 0.885069 0.803368 0.016799
C88   C     C_1   0.300799 0.866119 0.760259 0.212488
C89   C     C_1   0.311871 0.845981 0.724703 0.248098
C90   C     C_R   0.292855 0.912983 0.888228 -0.093761
O14   O     O_R   0.170070 0.978950 0.027680 -0.493372
O15   O     O_R   0.001760 0.175230 0.026640 -0.545749
C91   C     C_R   0.962384 0.264565 0.045449 0.839523
O16   O     O_R   0.984760 0.333570 0.037150 -0.480585
O17   O     O_R   0.183410 0.309240 0.041890 -0.504684
C92   C     C_R   0.273222 0.260912 0.060095 0.883967
O18   O     O_R   0.340240 0.172500 0.045430 -0.527182
O19   O     O_R   0.309670 0.000990 0.032050 -0.563618
C93   C     C_R   0.260038 0.958113 0.043862 0.845511
O20   O     O_R   0.168330 0.982130 0.939200 -0.500667
O21   O     O_R   0.000140 0.178170 0.944610 -0.516257
C94   C     C_R   0.961178 0.267906 0.930700 0.929906
O22   O     O_R   0.983010 0.336750 0.948660 -0.475279
O23   O     O_R   0.181800 0.312190 0.959860 -0.487666
C95   C     C_R   0.271258 0.264816 0.945473 0.791915
O24   O     O_R   0.338500 0.175680 0.956950 -0.558612
O25   O     O_R   0.308050 0.003930 0.950020 -0.528234
C96   C     C_R   0.257496 0.963599 0.929031 0.877664
Cr4   Cr    Cr6+3 0.087320 0.083240 0.984860 1.084038
Cr5   Cr    Cr6+3 0.087720 0.316210 0.996740 1.151885
Cr6   Cr    Cr6+3 0.317350 0.090340 0.995890 1.024430
O26   O     O_3   0.164130 0.163270 0.992500 -0.382378
Cl1   Cl    Cl    0.504402 0.157573 0.099202 -0.464746
Cl2   Cl    Cl    0.759881 0.180441 0.410938 -0.376669
Cl3   Cl    Cl    0.810161 0.493438 0.075932 -0.449534
C97   C     C_2   0.852250 0.484069 0.335148 0.591099
H3    H     H_    0.823881 0.563653 0.347493 0.146782
O27   O     O_2   0.907455 0.455487 0.306600 -0.461333
Cl4   Cl    Cl    0.809760 0.144829 0.320273 -0.387279
C98   C     C_2   0.772266 0.493063 0.163239 0.593022
H4    H     H_    0.713840 0.559152 0.147103 0.128731
O28   O     O_2   0.798127 0.508081 0.198361 -0.453944
C99   C     C_2   0.918859 0.099095 0.157359 0.566254
H5    H     H_    0.972604 0.025078 0.143002 0.109038
O29   O     O_2   0.874895 0.098511 0.186377 -0.444295
Cl5   Cl    Cl    0.163628 0.795883 0.401988 -0.383364
Cl6   Cl    Cl    0.553985 0.773235 0.428222 -0.385308
Cl7   Cl    Cl    0.131200 0.854554 0.070387 -0.450957
Cl8   Cl    Cl    0.517906 0.187135 0.193747 -0.402986
Cl9   Cl    Cl    0.162157 0.830644 0.311058 -0.391718
Cl10  Cl    Cl    0.549461 0.805194 0.336739 -0.416320
Cl11  Cl    Cl    0.174498 0.802516 0.160356 -0.418274
C100  C     C_2   0.473596 0.897421 0.083661 0.667999
H6    H     H_    0.458463 0.975710 0.079358 0.091862
O30   O     O_2   0.556070 0.823683 0.074067 -0.436130
Cl12  Cl    Cl    0.535243 0.833307 0.169087 -0.431366
Cl13  Cl    Cl    0.232122 0.579627 0.597674 -0.441570
Cl14  Cl    Cl    0.474499 0.157114 0.561723 -0.540109
Cl15  Cl    Cl    0.078412 0.420786 0.892032 -0.480595
Cl16  Cl    Cl    0.230787 0.537092 0.686635 -0.355426
C101  C     C_2   0.471414 0.135906 0.651007 0.558131
H7    H     H_    0.477789 0.072078 0.629813 0.121957
O31   O     O_2   0.513846 0.115380 0.684878 -0.495691
C102  C     C_2   0.473720 0.155952 0.306607 0.602585
H8    H     H_    0.554051 0.108497 0.317361 0.150188
O32   O     O_2   0.440727 0.125504 0.275803 -0.463948
Cl17  Cl    Cl    0.132536 0.441924 0.807267 -0.402641
C103  C     C_2   0.478787 0.248222 0.936368 0.584468
H9    H     H_    0.463082 0.240529 0.966534 0.060834
O33   O     O_2   0.561994 0.244915 0.932288 -0.476097
C104  C     C_2   0.529298 0.209262 0.848612 0.560782
H10   H     H_    0.554600 0.236268 0.825141 0.070500
O34   O     O_2   0.590061 0.126166 0.862763 -0.468747
Cl18  Cl    Cl    0.989565 0.072446 0.872635 -0.517534
Cl19  Cl    Cl    0.910382 0.120463 0.783602 -0.466651
C105  C     C_2   0.757500 0.204051 0.595904 0.578173
H11   H     H_    0.722514 0.163222 0.608058 0.065842
O35   O     O_2   0.797466 0.172058 0.563516 -0.464998
Cl20  Cl    Cl    0.812448 0.539435 0.608689 -0.409292
C106  C     C_2   0.733952 0.521840 0.826920 0.586523
H12   H     H_    0.736262 0.585242 0.846070 0.126472
O36   O     O_2   0.675457 0.543335 0.796369 -0.482917
Cl21  Cl    Cl    0.792352 0.495702 0.916901 -0.480086
Cl22  Cl    Cl    0.520100 0.152646 0.396846 -0.438421
Cl23  Cl    Cl    0.832951 0.524143 0.702737 -0.401855
C107  C     C_2   0.423484 0.981019 0.889652 0.507936
H13   H     H_    0.419984 0.051979 0.881091 0.024384
O37   O     O_2   0.487336 0.932250 0.916348 -0.458983
C108  C     C_2   0.410365 0.969917 0.803071 0.435520
H14   H     H_    0.482176 0.966987 0.816687 0.082646
O38   O     O_2   0.377255 0.007631 0.770255 -0.475753
Cl24  Cl    Cl    0.453585 0.618054 0.711515 -0.448152
Cl25  Cl    Cl    0.500867 0.540217 0.621248 -0.628663
C109  C     C_2   0.266523 0.925556 0.578691 0.617604
H15   H     H_    0.302096 0.903704 0.549864 0.003607
O39   O     O_2   0.187789 0.009052 0.582306 -0.441649
Cl26  Cl    Cl    0.187278 0.774396 0.795908 -0.457856
C110  C     C_2   0.200004 0.805283 0.887775 0.582482
H16   H     H_    0.136806 0.792947 0.873193 0.141558
O40   O     O_2   0.234369 0.773790 0.921492 -0.493834
Cl27  Cl    Cl    0.213997 0.020208 0.667939 -0.454321
C111  C     C_2   0.184110 0.511201 0.401507 0.540399
H17   H     H_    0.180656 0.492586 0.431818 0.075756
O41   O     O_2   0.118806 0.595865 0.390013 -0.470942
Cl28  Cl    Cl    0.112640 0.496733 0.191118 -0.366315
Cl29  Cl    Cl    0.091494 0.471196 0.097363 -0.377227
C112  C     C_2   0.157073 0.507258 0.311570 0.579896
H18   H     H_    0.135265 0.588785 0.318137 0.141899
O42   O     O_2   0.103722 0.483720 0.286474 -0.439607
Cl30  Cl    Cl    0.818361 0.528498 0.424302 -0.474611

loop_
_geom_bond_atom_site_label_1
_geom_bond_atom_site_label_2
_geom_bond_distance
_ccdc_geom_bond_type
O6    C3    1.278192 A    
C69   C73   1.400735 A    
C66   C75   1.435969 S    
C106  H12   1.084031 S    
C58   C62   1.417250 A    
C65   C66   1.399603 A    
C23   C24   1.412347 A    
C9    C112  1.485771 S    
C100  H6    1.083660 S    
C3    C21   1.494935 S    
C101  H7    1.084225 S    
O19   C93   1.279511 A    
C67   C68   1.398308 A    
C8    C111  1.494153 S    
C71   C76   1.419786 A    
C91   O16   1.268935 A    
C13   Cl8   1.770319 S    
O4    Cr2   1.918132 S    
C50   C51   1.398590 A    
C78   C79   1.418109 A    
C76   C94   1.495343 S    
C4    O9    1.262383 A    
C101  O31   1.220852 D    
O8    Cr1   1.918772 S    
C10   C11   1.410321 A    
C39   C40   1.403478 A    
C84   C107  1.485991 S    
C29   C98   1.489461 S    
C65   Cl23  1.769446 S    
C100  O30   1.220556 D    
N1    N2    1.330297 A    
Cr5   O26   1.966679 S    
O15   Cr4   1.919224 S    
C83   C84   1.410819 A    
C15   C20   1.426378 A    
O23   Cr5   1.920456 S    
O4    C2    1.281551 A    
Cr4   O26   1.966756 S    
N5    C41   1.355558 A    
C107  H13   1.085414 S    
C39   Cl10  1.771003 S    
C5    O11   1.272247 A    
C58   Cl15  1.770129 S    
C13   C17   1.402061 A    
C51   Cl16  1.774886 S    
N5    N6    1.329638 A    
C11   C102  1.491668 S    
C18   C19   1.202874 T    
C77   C82   1.409703 A    
O16   Cr5   2.037699 S    
C88   C89   1.198273 T    
C72   C73   1.413651 A    
C102  H8    1.084568 S    
C16   Cl28  1.770720 S    
Cr6   O26   1.968157 S    
N10   C56   1.357418 A    
C41   C47   1.467875 S    
C23   C97   1.493177 S    
C81   C82   1.392858 A    
C32   C99   1.488376 S    
C43   C44   1.402930 A    
C46   Cl12  1.774428 S    
C12   Cl22  1.776154 S    
C77   C78   1.414903 A    
C44   C48   1.424145 A    
C45   C46   1.406253 A    
N1    C27   1.355966 A    
O19   Cr6   1.920523 S    
N2    C28   1.356311 A    
C25   Cl4   1.772301 S    
C26   Cl2   1.772206 S    
C27   C33   1.467984 S    
O14   C93   1.273462 A    
O24   Cr6   2.037409 S    
C5    C49   1.487859 S    
C108  H14   1.084760 S    
Cr3   O13   1.966869 S    
C22   Cl30  1.776446 S    
C38   C39   1.402719 A    
C55   C61   1.464826 S    
N6    C42   1.356493 A    
O20   Cr4   2.035361 S    
C81   Cl24  1.773555 S    
C74   C75   1.202246 T    
C71   Cl21  1.774395 S    
H2    C67   1.085422 S    
C17   C18   1.439611 S    
C97   O27   1.220615 D    
C49   C50   1.417575 A    
C104  O34   1.221177 D    
O17   Cr5   1.919342 S    
C50   Cl13  1.771706 S    
C48   C93   1.498687 S    
O1    Cr1   2.037135 S    
O15   C91   1.273814 A    
N9    N10   1.329635 A    
C31   C32   1.392267 A    
C71   C72   1.415192 A    
O10   Cr2   1.919892 S    
C95   O24   1.271261 A    
Cr1   O13   1.966757 S    
O1    C3    1.273169 A    
C8    C9    1.419260 A    
C107  O37   1.221160 D    
C57   C61   1.403272 A    
N9    C55   1.354572 A    
C21   C22   1.422546 A    
C57   C58   1.396993 A    
C110  H16   1.084323 S    
C24   C28   1.461257 S    
C15   Cl29  1.773274 S    
C31   H1    1.084467 S    
C9    C10   1.412061 A    
C104  H10   1.083971 S    
N11   N12   1.329490 A    
C57   Cl17  1.774548 S    
O12   Cr3   1.917772 S    
C14   Cl1   1.771000 S    
C80   C81   1.400374 A    
C37   C38   1.403542 A    
C60   C104  1.488278 S    
C80   C89   1.432190 S    
C25   C26   1.400736 A    
N7    C42   1.354981 A    
C13   C14   1.405691 A    
C38   C42   1.463576 S    
C79   Cl27  1.772223 S    
N12   C55   1.357284 A    
C59   C62   1.420934 A    
O7    Cr1   2.036816 S    
C43   C47   1.405246 A    
C66   C67   1.392377 A    
C45   C48   1.426119 A    
O12   C6    1.279484 A    
C83   C108  1.496961 S    
C78   C109  1.491330 S    
C63   C64   1.425309 A    
C30   C34   1.412402 A    
C7    C12   1.419997 A    
C59   C60   1.419729 A    
C21   C26   1.420915 A    
C105  H11   1.085885 S    
O18   Cr6   2.034614 S    
C30   Cl3   1.773705 S    
C22   C23   1.410116 A    
C112  H18   1.084061 S    
C109  O39   1.220603 D    
C85   C90   1.419239 A    
O17   C92   1.276245 A    
C83   C87   1.409847 A    
C34   C91   1.479038 S    
C99   O29   1.220832 D    
C24   C25   1.401376 A    
C40   Cl6   1.772259 S    
C90   C96   1.494610 S    
C105  O35   1.221053 D    
C1    O3    1.274831 A    
C60   C61   1.411495 A    
C69   Cl19  1.775102 S    
C32   C33   1.415158 A    
C97   H3    1.084344 S    
N3    C28   1.354196 A    
C35   C40   1.423003 A    
O25   Cr6   1.916698 S    
N4    C27   1.357553 A    
C106  O36   1.221037 D    
C45   C100  1.478972 S    
O2    Cr1   1.920827 S    
C98   H4    1.084822 S    
O9    Cr2   2.033776 S    
C15   C16   1.403863 A    
C20   C92   1.498343 S    
C37   Cl9   1.771697 S    
Cr2   O13   1.968271 S    
C53   C54   1.411223 A    
O6    Cr3   1.920535 S    
C49   C54   1.418164 A    
C4    C77   1.462758 S    
C103  O33   1.220713 D    
C36   Cl5   1.771333 S    
O11   Cr3   2.037198 S    
C59   C103  1.497177 S    
C2    O5    1.272478 A    
C43   Cl11  1.773190 S    
C112  O42   1.220622 D    
N11   C56   1.354794 A    
C54   Cl14  1.775429 S    
O25   C96   1.270469 A    
O23   C95   1.274378 A    
C70   C76   1.421770 A    
C53   C101  1.491310 S    
C69   C70   1.400612 A    
C14   C20   1.421725 A    
C31   C34   1.401385 A    
N7    N8    1.330182 A    
O14   Cr4   2.037946 S    
O2    C1    1.277130 A    
C35   C36   1.420390 A    
C64   Cl20  1.771190 S    
C46   C47   1.402928 A    
C68   C105  1.481849 S    
O5    Cr3   2.035670 S    
C87   C88   1.435436 S    
C16   C17   1.399699 A    
C51   C52   1.405896 A    
C85   C86   1.407936 A    
C111  H17   1.085270 S    
O7    C6    1.273741 A    
C92   O18   1.277923 A    
C29   C33   1.422331 A    
C2    C7    1.500301 S    
C72   C106  1.492266 S    
C52   C56   1.464799 S    
C44   Cl7   1.774070 S    
C86   C87   1.404866 A    
C94   O22   1.274990 A    
C98   O28   1.220864 D    
N8    C41   1.357707 A    
C64   C65   1.406538 A    
C70   Cl18  1.769434 S    
C102  O32   1.221068 D    
C86   Cl26  1.774518 S    
O21   Cr4   1.920199 S    
C111  O41   1.219399 D    
C7    C8    1.422601 A    
C52   C53   1.414898 A    
O3    Cr2   2.037687 S    
C1    C35   1.493814 S    
N3    N4    1.329554 A    
C10   C19   1.445391 S    
C36   C37   1.401997 A    
C62   C95   1.485188 S    
C109  H15   1.085258 S    
O22   Cr5   2.035557 S    
C110  O40   1.221342 D    
C29   C30   1.412064 A    
C79   C80   1.408536 A    
C73   C74   1.441514 S    
C108  O38   1.221088 D    
C6    C63   1.498427 S    
O10   C5    1.275908 A    
C82   Cl25  1.769808 S    
C99   H5    1.085870 S    
C85   C110  1.488232 S    
C63   C68   1.425896 A    
C84   C90   1.428639 A    
O21   C94   1.274977 A    
O8    C4    1.271645 A    
C103  H9    1.082986 S    
C11   C12   1.407400 A    
O20   C96   1.278743 A    
