data_mof_unit_62535.cif
_audit_creation_date              2012-12-10T19:28:01-0500
_audit_creation_method            fapswitch 2.2
_symmetry_space_group_name_H-M    P1
_symmetry_Int_Tables_number       1
_space_group_crystal_system       triclinic
_cell_length_a                    30.671046
_cell_length_b                    30.673175
_cell_length_c                    32.842255
_cell_angle_alpha                 89.926949
_cell_angle_beta                  89.909052
_cell_angle_gamma                 90.018315
_cell_volume                      30897.2172066

loop_
_atom_site_label
_atom_site_type_symbol
_atom_type_description
_atom_site_fract_x
_atom_site_fract_y
_atom_site_fract_z
_atom_type_partial_charge
C1    C     C_R   0.118792 0.381420 0.250063 -0.197688
C2    C     C_R   0.881008 0.381857 0.251072 -0.256602
C3    C     C_R   0.084415 0.415576 0.750000 0.805645
C4    C     C_R   0.584595 0.084335 0.249739 0.895433
C5    C     C_R   0.415405 0.915664 0.750261 0.895432
C6    C     C_R   0.084538 0.415493 0.250008 0.966008
C7    C     C_R   0.915462 0.584507 0.749992 0.966008
C8    C     C_R   0.415585 0.084424 0.750000 0.805645
C9    C     C_R   0.584415 0.915576 0.250000 0.805644
C10   C     C_R   0.915661 0.415404 0.750263 0.895605
C11   C     C_R   0.084338 0.584596 0.249737 0.895605
C12   C     C_R   0.584538 0.915493 0.750008 0.966008
C13   C     C_R   0.381624 0.118557 0.749917 -0.307558
C14   C     C_R   0.415462 0.084507 0.249992 0.966008
C15   C     C_R   0.084595 0.584335 0.749739 0.895431
C16   C     C_R   0.915405 0.415664 0.250261 0.895434
C17   C     C_1   0.499926 0.999999 0.399215 -0.131380
C18   C     C_1   0.500074 0.000001 0.600785 -0.131380
C19   C     C_1   0.999999 0.499941 0.399215 -0.131431
C20   C     C_1   0.000001 0.500059 0.600785 -0.131431
C21   C     C_1   0.999926 0.499999 0.899215 -0.131380
C22   C     C_1   0.000074 0.500001 0.100785 -0.131380
C23   C     C_1   0.499999 0.999941 0.899215 -0.131431
C24   C     C_R   0.618376 0.881442 0.250083 -0.307558
C25   C     C_1   0.500001 0.000059 0.100785 -0.131431
C26   C     C_1   0.499937 0.999999 0.436800 0.008890
C27   C     C_1   0.500062 0.000001 0.563200 0.008890
C28   C     C_1   0.999999 0.499950 0.436800 0.008787
C29   C     C_1   0.000001 0.500050 0.563200 0.008787
C30   C     C_1   0.999937 0.499999 0.936800 0.008890
C31   C     C_1   0.000063 0.500001 0.063200 0.008890
C32   C     C_1   0.499999 0.999950 0.936800 0.008787
C33   C     C_1   0.500001 0.000050 0.063200 0.008787
C34   C     C_R   0.107191 0.337539 0.256812 0.339647
C35   C     C_R   0.881853 0.381009 0.751077 -0.256737
C36   C     C_R   0.892809 0.662461 0.743189 0.339647
C37   C     C_R   0.337560 0.893310 0.251898 0.382310
C38   C     C_R   0.662440 0.106689 0.748102 0.382311
C39   C     C_R   0.893474 0.663066 0.245666 0.382135
C40   C     C_R   0.106526 0.336934 0.754333 0.382134
C41   C     C_R   0.663628 0.106385 0.249963 0.337616
C42   C     C_R   0.336372 0.893615 0.750035 0.337615
C43   C     C_R   0.106688 0.662433 0.748123 0.382220
C44   C     C_R   0.893313 0.337567 0.251875 0.382223
C45   C     C_R   0.337029 0.107003 0.754114 0.381771
C46   C     C_R   0.118146 0.618991 0.248922 -0.256737
C47   C     C_R   0.662971 0.892997 0.245885 0.381771
C48   C     C_R   0.893615 0.336377 0.750027 0.337573
C49   C     C_R   0.106385 0.663623 0.249973 0.337572
C50   C     C_R   0.662623 0.893274 0.743349 0.339839
C51   C     C_R   0.337377 0.106726 0.256651 0.339840
C52   C     C_R   0.607191 0.837539 0.756811 0.339646
C53   C     C_R   0.392808 0.162461 0.243188 0.339647
C54   C     C_R   0.837560 0.393310 0.751898 0.382311
C55   C     C_R   0.162440 0.606689 0.248102 0.382310
C56   C     C_R   0.393474 0.163066 0.745667 0.382134
C57   C     C_R   0.618792 0.881420 0.750063 -0.197688
C58   C     C_R   0.606526 0.836934 0.254333 0.382134
C59   C     C_R   0.163628 0.606385 0.749965 0.337615
C60   C     C_R   0.836372 0.393615 0.250037 0.337616
C61   C     C_R   0.606687 0.162433 0.248124 0.382223
C62   C     C_R   0.393312 0.837567 0.751877 0.382221
C63   C     C_R   0.837029 0.607003 0.254115 0.381771
C64   C     C_R   0.162971 0.392997 0.745886 0.381771
C65   C     C_R   0.393615 0.836377 0.250027 0.337573
C66   C     C_R   0.606385 0.163623 0.749972 0.337574
C67   C     C_R   0.162623 0.393274 0.243349 0.339840
C68   C     C_R   0.381208 0.118580 0.249937 -0.197689
C69   C     C_R   0.837377 0.606726 0.756651 0.339840
C70   C     C_R   0.140025 0.305007 0.258214 0.082591
C71   C     C_R   0.859975 0.694993 0.741786 0.082591
C72   C     C_R   0.304533 0.860774 0.252244 0.083979
C73   C     C_R   0.695466 0.139226 0.747756 0.083980
C74   C     C_R   0.861231 0.695630 0.246817 0.128206
C75   C     C_R   0.138769 0.304370 0.753181 0.128205
C76   C     C_R   0.695810 0.138863 0.251958 0.126748
C77   C     C_R   0.304190 0.861136 0.748041 0.126749
C78   C     C_R   0.139225 0.695459 0.747776 0.084051
C79   C     C_R   0.183900 0.316679 0.249963 0.213529
C80   C     C_R   0.860776 0.304541 0.252222 0.084050
C81   C     C_R   0.304683 0.139470 0.752943 0.131120
C82   C     C_R   0.695317 0.860530 0.247056 0.131120
C83   C     C_R   0.861137 0.304195 0.748032 0.126673
C84   C     C_R   0.138863 0.695805 0.251968 0.126674
C85   C     C_R   0.695340 0.860630 0.741880 0.079691
C86   C     C_R   0.304660 0.139370 0.258120 0.079691
C87   C     C_R   0.640024 0.805007 0.758214 0.082591
C88   C     C_R   0.359975 0.194993 0.241786 0.082591
C89   C     C_R   0.804533 0.360774 0.752244 0.083980
C90   C     C_R   0.816100 0.683321 0.750037 0.213529
C91   C     C_R   0.195466 0.639226 0.247756 0.083980
C92   C     C_R   0.361231 0.195630 0.746819 0.128205
C93   C     C_R   0.638769 0.804370 0.253182 0.128205
C94   C     C_R   0.195810 0.638863 0.751960 0.126749
C95   C     C_R   0.804190 0.361137 0.248042 0.126749
C96   C     C_R   0.639224 0.195459 0.247778 0.084051
C97   C     C_R   0.360775 0.804541 0.752224 0.084050
C98   C     C_R   0.804683 0.639470 0.252945 0.131121
C99   C     C_R   0.195317 0.360530 0.747056 0.131120
C100  C     C_R   0.361137 0.804195 0.248032 0.126673
C101  C     C_R   0.316644 0.816211 0.249792 0.174725
C102  C     C_R   0.638863 0.195805 0.751967 0.126673
C103  C     C_R   0.195340 0.360630 0.241880 0.079691
C104  C     C_R   0.804660 0.639370 0.758120 0.079691
C105  C     C_3   0.127976 0.258437 0.269273 -0.832733
C106  C     C_3   0.872024 0.741563 0.730727 -0.832733
C107  C     C_3   0.256933 0.873881 0.255753 -0.834105
C108  C     C_3   0.743067 0.126119 0.744247 -0.834103
C109  C     C_3   0.875678 0.742753 0.243612 -0.679721
C110  C     C_3   0.124322 0.257247 0.756385 -0.679721
C111  C     C_3   0.742999 0.124557 0.254835 -0.679550
C112  C     C_R   0.881208 0.618580 0.749937 -0.197688
C113  C     C_R   0.683356 0.183789 0.750207 0.174724
C114  C     C_3   0.257001 0.875443 0.745161 -0.679548
C115  C     C_3   0.126113 0.743055 0.744280 -0.834263
C116  C     C_3   0.873887 0.256945 0.255714 -0.834267
C117  C     C_3   0.257458 0.125339 0.756095 -0.688060
C118  C     C_3   0.742542 0.874661 0.243903 -0.688060
C119  C     C_3   0.875448 0.257010 0.745137 -0.679288
C120  C     C_3   0.124552 0.742989 0.254863 -0.679287
C121  C     C_3   0.741876 0.872967 0.730935 -0.823849
C122  C     C_3   0.258124 0.127033 0.269065 -0.823849
C123  C     C_3   0.627975 0.758437 0.769273 -0.832734
C124  C     C_R   0.816739 0.683892 0.249900 0.132529
C125  C     C_3   0.372024 0.241563 0.230726 -0.832734
C126  C     C_3   0.756933 0.373881 0.755753 -0.834102
C127  C     C_3   0.243067 0.626119 0.244247 -0.834104
C128  C     C_3   0.375678 0.242753 0.743615 -0.679722
C129  C     C_3   0.624322 0.757247 0.256386 -0.679722
C130  C     C_3   0.242999 0.624557 0.754840 -0.679549
C131  C     C_3   0.757001 0.375443 0.245165 -0.679551
C132  C     C_3   0.626113 0.243055 0.244286 -0.834267
C133  C     C_3   0.373887 0.756945 0.755719 -0.834264
C134  C     C_3   0.757458 0.625339 0.256098 -0.688057
C135  C     C_R   0.183261 0.316108 0.750100 0.132530
C136  C     C_3   0.242542 0.374661 0.743905 -0.688060
C137  C     C_3   0.375448 0.757011 0.245137 -0.679288
C138  C     C_3   0.624552 0.242989 0.754862 -0.679287
C139  C     C_3   0.241876 0.372967 0.230935 -0.823848
C140  C     C_3   0.758124 0.627033 0.769064 -0.823848
C141  C     C_R   0.683791 0.183352 0.250213 0.174693
C142  C     C_R   0.316209 0.816648 0.749787 0.174689
C143  C     C_R   0.183791 0.683352 0.750213 0.174689
C144  C     C_R   0.816209 0.316648 0.249787 0.174692
C145  C     C_R   0.316739 0.183892 0.749900 0.132530
C146  C     C_R   0.683261 0.816108 0.250100 0.132530
C147  C     C_R   0.816644 0.316211 0.749792 0.174725
C148  C     C_R   0.381853 0.881009 0.251078 -0.256736
C149  C     C_R   0.183356 0.683789 0.250208 0.174726
C150  C     C_R   0.683900 0.816679 0.749963 0.213530
C151  C     C_R   0.316100 0.183321 0.250037 0.213529
C152  C     C_R   0.281830 0.217321 0.250176 -0.052454
C153  C     C_R   0.718170 0.782679 0.749824 -0.052454
C154  C     C_R   0.217257 0.718181 0.250206 -0.056249
C155  C     C_R   0.782743 0.281819 0.749794 -0.056252
C156  C     C_R   0.717229 0.781799 0.250066 -0.058813
C157  C     C_R   0.282771 0.218201 0.749934 -0.058812
C158  C     C_R   0.781817 0.282745 0.249792 -0.056206
C159  C     C_R   0.618146 0.118991 0.748922 -0.256737
C160  C     C_R   0.218183 0.717255 0.750208 -0.056207
C161  C     C_R   0.281817 0.782745 0.749792 -0.056207
C162  C     C_R   0.718183 0.217255 0.250208 -0.056206
C163  C     C_R   0.217229 0.281799 0.750066 -0.058813
C164  C     C_R   0.782771 0.718201 0.249934 -0.058813
C165  C     C_R   0.717257 0.218181 0.750206 -0.056253
C166  C     C_R   0.282743 0.781819 0.249794 -0.056248
C167  C     C_R   0.781830 0.717321 0.750176 -0.052454
C168  C     C_R   0.218170 0.282679 0.249824 -0.052453
C169  C     C_R   0.223520 0.256209 0.215281 0.258172
C170  C     C_R   0.881624 0.618557 0.249917 -0.307557
C171  C     C_R   0.776479 0.743791 0.784719 0.258172
C172  C     C_R   0.270122 0.762574 0.286850 0.255425
C173  C     C_R   0.729878 0.237426 0.713150 0.255425
C174  C     C_R   0.764912 0.732265 0.212793 0.259211
C175  C     C_R   0.235087 0.267734 0.787207 0.259210
C176  C     C_R   0.729550 0.237785 0.286907 0.261366
C177  C     C_R   0.270454 0.762211 0.713094 0.261369
C178  C     C_R   0.237430 0.729872 0.713150 0.255406
C179  C     C_R   0.762574 0.270124 0.286851 0.255407
C180  C     C_R   0.267437 0.234721 0.787190 0.259886
C181  C     C_R   0.118376 0.381442 0.750083 -0.307558
C182  C     C_R   0.732562 0.765278 0.212810 0.259887
C183  C     C_R   0.762214 0.270452 0.713097 0.261393
C184  C     C_R   0.237786 0.729548 0.286903 0.261389
C185  C     C_R   0.743489 0.776116 0.784922 0.257159
C186  C     C_R   0.256511 0.223884 0.215078 0.257159
C187  C     C_R   0.723520 0.756209 0.715280 0.258172
C188  C     C_R   0.276480 0.243791 0.284719 0.258172
C189  C     C_R   0.770122 0.262574 0.786850 0.255426
C190  C     C_R   0.229878 0.737426 0.213150 0.255424
C191  C     C_R   0.264913 0.232266 0.712793 0.259210
C192  C     C_R   0.618992 0.118143 0.248928 -0.256603
C193  C     C_R   0.735088 0.767735 0.287206 0.259210
C194  C     C_R   0.229546 0.737789 0.786906 0.261369
C195  C     C_R   0.770450 0.262215 0.213093 0.261367
C196  C     C_R   0.737426 0.229876 0.213149 0.255407
C197  C     C_R   0.262570 0.770128 0.786850 0.255407
C198  C     C_R   0.767438 0.734722 0.287190 0.259886
C199  C     C_R   0.232563 0.265279 0.712810 0.259886
C200  C     C_R   0.262214 0.770452 0.213097 0.261390
C201  C     C_R   0.737786 0.229548 0.786903 0.261393
C202  C     C_R   0.243489 0.276116 0.284922 0.257158
C203  C     C_R   0.381008 0.881857 0.751072 -0.256604
C204  C     C_R   0.756511 0.723884 0.715078 0.257159
C205  C     C_1   0.499979 1.000000 0.481208 0.024466
C206  C     C_1   0.500021 0.000000 0.518792 0.024466
C207  C     C_1   1.000000 0.499983 0.481208 0.024349
C208  C     C_1   0.000000 0.500017 0.518792 0.024349
C209  C     C_1   0.999979 0.499999 0.981208 0.024466
C210  C     C_1   0.000021 0.500000 0.018792 0.024466
C211  C     C_1   0.500000 0.999983 0.981208 0.024349
C212  C     C_1   0.500000 0.000017 0.018792 0.024349
C213  C     C_R   0.500000 0.000023 0.145960 0.784659
C214  C     C_R   0.118992 0.618143 0.748928 -0.256605
C215  C     C_R   0.499999 0.999977 0.854040 0.784658
C216  C     C_R   0.000029 0.500001 0.145959 0.784706
C217  C     C_R   0.999971 0.499999 0.854041 0.784705
C218  C     C_R   0.000000 0.500023 0.645960 0.784659
C219  C     C_R   0.999999 0.499976 0.354040 0.784658
C220  C     C_R   0.500029 0.000001 0.645959 0.784706
C221  C     C_R   0.499971 0.999999 0.354041 0.784706
C222  C     C_R   0.415661 0.915404 0.250262 0.895605
C223  C     C_R   0.584338 0.084596 0.749737 0.895605
C224  C     C_R   0.915585 0.584424 0.250000 0.805643
H1    H     H_    0.191856 0.234162 0.168469 0.351711
H2    H     H_    0.773771 0.268391 0.345035 0.354229
H3    H     H_    0.747934 0.891615 0.214428 0.250801
H4    H     H_    0.894481 0.248164 0.772667 0.253075
H5    H     H_    0.848142 0.233555 0.742489 0.198154
H6    H     H_    0.896401 0.252689 0.717832 0.255572
H7    H     H_    0.151858 0.766444 0.257511 0.198153
H8    H     H_    0.105519 0.751836 0.227332 0.253075
H9    H     H_    0.103599 0.747311 0.282167 0.255571
H10   H     H_    0.763607 0.844712 0.725640 0.237008
H11   H     H_    0.742098 0.892195 0.702259 0.247050
H12   H     H_    0.756403 0.892547 0.755880 0.240300
H13   H     H_    0.261532 0.219274 0.844304 0.352798
H14   H     H_    0.257902 0.107805 0.297741 0.247050
H15   H     H_    0.236393 0.155288 0.274361 0.237008
H16   H     H_    0.243597 0.107453 0.244121 0.240301
H17   H     H_    0.656376 0.736922 0.774633 0.237026
H18   H     H_    0.608746 0.758182 0.797954 0.248164
H19   H     H_    0.608492 0.743709 0.744367 0.239550
H20   H     H_    0.391254 0.241817 0.202045 0.248163
H21   H     H_    0.343624 0.263077 0.225366 0.237026
H22   H     H_    0.391508 0.256291 0.255632 0.239551
H23   H     H_    0.746884 0.391933 0.727991 0.238486
H24   H     H_    0.738466 0.780724 0.155696 0.352799
H25   H     H_    0.734199 0.346091 0.759273 0.239165
H26   H     H_    0.752301 0.394811 0.782984 0.245494
H27   H     H_    0.265801 0.653909 0.240728 0.239165
H28   H     H_    0.253116 0.608067 0.272009 0.238488
H29   H     H_    0.247699 0.605189 0.217016 0.245493
H30   H     H_    0.348572 0.266531 0.745339 0.200246
H31   H     H_    0.398503 0.250324 0.768851 0.255955
H32   H     H_    0.392716 0.247976 0.714151 0.250806
H33   H     H_    0.601497 0.749676 0.231150 0.255955
H34   H     H_    0.651428 0.733469 0.254663 0.200246
H35   H     H_    0.748516 0.293614 0.659562 0.352519
H36   H     H_    0.607284 0.752024 0.285850 0.250805
H37   H     H_    0.251849 0.605524 0.727302 0.253028
H38   H     H_    0.266453 0.651862 0.757489 0.198181
H39   H     H_    0.247321 0.603607 0.782138 0.255519
H40   H     H_    0.733546 0.348138 0.242517 0.198181
H41   H     H_    0.748152 0.394475 0.272704 0.253026
H42   H     H_    0.752677 0.396394 0.217868 0.255522
H43   H     H_    0.608061 0.253103 0.272057 0.238409
H44   H     H_    0.653903 0.265790 0.240763 0.239165
H45   H     H_    0.605180 0.247685 0.217063 0.245496
H46   H     H_    0.251484 0.706387 0.340438 0.352520
H47   H     H_    0.346096 0.734211 0.759245 0.239164
H48   H     H_    0.391938 0.746894 0.727948 0.238409
H49   H     H_    0.394821 0.752317 0.782942 0.245498
H50   H     H_    0.733862 0.652592 0.254306 0.199928
H51   H     H_    0.749784 0.602532 0.230873 0.256393
H52   H     H_    0.752067 0.608385 0.285574 0.250801
H53   H     H_    0.250216 0.397467 0.769131 0.256393
H54   H     H_    0.266137 0.347408 0.745697 0.199929
H55   H     H_    0.247934 0.391616 0.714430 0.250801
H56   H     H_    0.394481 0.748164 0.272667 0.253075
H57   H     H_    0.742182 0.784137 0.843586 0.353902
H58   H     H_    0.348142 0.733556 0.242489 0.198154
H59   H     H_    0.396401 0.752689 0.217833 0.255571
H60   H     H_    0.651858 0.266444 0.757510 0.198153
H61   H     H_    0.605519 0.251836 0.727331 0.253075
H62   H     H_    0.603599 0.247311 0.782166 0.255571
H63   H     H_    0.263607 0.344711 0.225639 0.237008
H64   H     H_    0.242097 0.392195 0.202258 0.247050
H65   H     H_    0.256403 0.392547 0.255879 0.240301
H66   H     H_    0.757902 0.607805 0.797741 0.247050
H67   H     H_    0.736393 0.655288 0.774360 0.237008
H68   H     H_    0.257816 0.215862 0.156415 0.353903
H69   H     H_    0.743597 0.607453 0.744120 0.240300
H70   H     H_    0.691857 0.734163 0.668468 0.351711
H71   H     H_    0.308144 0.265838 0.331531 0.351711
H72   H     H_    0.768385 0.273766 0.845039 0.354243
H73   H     H_    0.808143 0.765837 0.831532 0.351711
H74   H     H_    0.231615 0.726234 0.154962 0.354244
H75   H     H_    0.255181 0.213145 0.657181 0.354061
H76   H     H_    0.744822 0.786858 0.342818 0.354061
H77   H     H_    0.206379 0.751490 0.840449 0.352493
H78   H     H_    0.793611 0.248519 0.159547 0.352494
H79   H     H_    0.726229 0.231609 0.154965 0.354229
H80   H     H_    0.273761 0.768400 0.845035 0.354228
H81   H     H_    0.761534 0.719276 0.344304 0.352798
H82   H     H_    0.238468 0.280726 0.655696 0.352798
H83   H     H_    0.248516 0.793613 0.159562 0.352520
H84   H     H_    0.268385 0.773766 0.345038 0.354244
H85   H     H_    0.751484 0.206386 0.840438 0.352518
H86   H     H_    0.242184 0.284138 0.343585 0.353903
H87   H     H_    0.757818 0.715863 0.656414 0.353902
H88   H     H_    0.057963 0.296469 0.258717 0.352015
H89   H     H_    0.942037 0.703531 0.741284 0.352016
H90   H     H_    0.296939 0.942851 0.247312 0.349330
H91   H     H_    0.703061 0.057149 0.752690 0.349330
H92   H     H_    0.953084 0.652338 0.227165 0.334049
H93   H     H_    0.046915 0.347661 0.772834 0.334049
H94   H     H_    0.655529 0.045976 0.233393 0.334763
H95   H     H_    0.731615 0.226234 0.654961 0.354244
H96   H     H_    0.344470 0.954024 0.766605 0.334765
H97   H     H_    0.057143 0.703048 0.752740 0.349313
H98   H     H_    0.942858 0.296952 0.247257 0.349313
H99   H     H_    0.347364 0.047279 0.772492 0.334377
H100  H     H_    0.652636 0.952720 0.227508 0.334377
H101  H     H_    0.954025 0.344477 0.766589 0.334986
H102  H     H_    0.045975 0.655523 0.233410 0.334986
H103  H     H_    0.703435 0.942733 0.741471 0.352008
H104  H     H_    0.296566 0.057267 0.258529 0.352008
H105  H     H_    0.557963 0.796469 0.758716 0.352016
H106  H     H_    0.755178 0.713142 0.157182 0.354061
H107  H     H_    0.442037 0.203531 0.241283 0.352015
H108  H     H_    0.796938 0.442850 0.747312 0.349330
H109  H     H_    0.203061 0.557149 0.252687 0.349330
H110  H     H_    0.453085 0.152339 0.727166 0.334050
H111  H     H_    0.546915 0.847661 0.272834 0.334049
H112  H     H_    0.155530 0.545976 0.733395 0.334765
H113  H     H_    0.844471 0.454024 0.266608 0.334763
H114  H     H_    0.557142 0.203048 0.252741 0.349314
H115  H     H_    0.442857 0.796952 0.747258 0.349312
H116  H     H_    0.847365 0.547280 0.272493 0.334376
H117  H     H_    0.244819 0.286855 0.842819 0.354061
H118  H     H_    0.152636 0.452721 0.727508 0.334376
H119  H     H_    0.454025 0.844477 0.266589 0.334986
H120  H     H_    0.545975 0.155522 0.733410 0.334985
H121  H     H_    0.203434 0.442733 0.241471 0.352008
H122  H     H_    0.796565 0.557267 0.758529 0.352008
H123  H     H_    0.156376 0.236923 0.274634 0.237026
H124  H     H_    0.108746 0.258183 0.297955 0.248163
H125  H     H_    0.108492 0.243709 0.244368 0.239551
H126  H     H_    0.891254 0.741818 0.702046 0.248163
H127  H     H_    0.843624 0.763077 0.725367 0.237026
H128  H     H_    0.706389 0.251481 0.340453 0.352494
H129  H     H_    0.891508 0.756291 0.755633 0.239550
H130  H     H_    0.246884 0.891933 0.227991 0.238487
H131  H     H_    0.234199 0.846091 0.259273 0.239166
H132  H     H_    0.252301 0.894811 0.282984 0.245494
H133  H     H_    0.765801 0.153909 0.740727 0.239165
H134  H     H_    0.753116 0.108068 0.772010 0.238487
H135  H     H_    0.747699 0.105188 0.717017 0.245494
H136  H     H_    0.848572 0.766531 0.245336 0.200246
H137  H     H_    0.898504 0.750324 0.268847 0.255955
H138  H     H_    0.892715 0.747975 0.214147 0.250806
H139  H     H_    0.293621 0.748510 0.659551 0.352492
H140  H     H_    0.101497 0.249676 0.731149 0.255955
H141  H     H_    0.151428 0.233469 0.754661 0.200246
H142  H     H_    0.107284 0.252023 0.785849 0.250806
H143  H     H_    0.751848 0.105525 0.227297 0.253026
H144  H     H_    0.766454 0.151862 0.257483 0.198181
H145  H     H_    0.747323 0.103606 0.282132 0.255522
H146  H     H_    0.233547 0.848138 0.742511 0.198181
H147  H     H_    0.248151 0.894475 0.772698 0.253028
H148  H     H_    0.252679 0.896393 0.717863 0.255519
H149  H     H_    0.108062 0.753106 0.772051 0.238409
H150  H     H_    0.226239 0.731599 0.654964 0.354229
H151  H     H_    0.153904 0.765789 0.740755 0.239164
H152  H     H_    0.105180 0.747683 0.717057 0.245498
H153  H     H_    0.846097 0.234210 0.259237 0.239165
H154  H     H_    0.891939 0.246896 0.227942 0.238408
H155  H     H_    0.894821 0.252315 0.282936 0.245496
H156  H     H_    0.233862 0.152592 0.754303 0.199929
H157  H     H_    0.249784 0.102532 0.730869 0.256393
H158  H     H_    0.252066 0.108384 0.785570 0.250801
H159  H     H_    0.750216 0.897467 0.269129 0.256393
H160  H     H_    0.766137 0.847408 0.245695 0.199929
O1    O     O_3   0.500000 0.000000 0.250000 -0.499746
O2    O     O_R   0.500000 0.036350 0.833960 -0.617681
O3    O     O_3   0.328066 0.062838 0.261768 -0.714764
O4    O     O_3   0.563364 0.827992 0.762016 -0.715267
O5    O     O_3   0.436636 0.172008 0.237983 -0.715267
O6    O     O_3   0.828227 0.437541 0.752133 -0.718179
O7    O     O_3   0.171773 0.562459 0.247867 -0.718179
O8    O     O_3   0.436239 0.176190 0.739922 -0.720620
O9    O     O_3   0.563761 0.823810 0.260079 -0.720620
O10   O     O_3   0.177186 0.563394 0.748651 -0.712977
O11   O     O_3   0.822814 0.436606 0.251353 -0.712979
O12   O     O_3   0.562453 0.171763 0.247906 -0.718417
O13   O     O_R   0.963650 0.500000 0.166040 -0.617684
O14   O     O_3   0.437546 0.828237 0.752096 -0.718414
O15   O     O_3   0.823604 0.564331 0.259844 -0.721036
O16   O     O_3   0.176397 0.435669 0.740158 -0.721036
O17   O     O_3   0.436610 0.822823 0.251328 -0.712485
O18   O     O_3   0.563390 0.177177 0.748671 -0.712486
O19   O     O_3   0.171934 0.437162 0.238232 -0.714764
O20   O     O_3   0.828066 0.562838 0.761767 -0.714763
O21   O     O_R   0.036350 0.500000 0.833960 -0.617684
O22   O     O_R   0.000000 0.536350 0.666040 -0.627655
O23   O     O_R   0.000000 0.463650 0.333960 -0.627655
O24   O     O_R   0.536350 0.000000 0.666040 -0.627648
O25   O     O_R   0.463650 0.000000 0.333960 -0.627648
O26   O     O_R   0.000000 0.463650 0.666040 -0.617681
O27   O     O_R   0.000000 0.536350 0.333960 -0.617681
O28   O     O_R   0.463650 0.000000 0.666040 -0.617684
O29   O     O_3   0.500000 0.000000 0.750000 -0.499746
O30   O     O_R   0.536350 0.000000 0.333960 -0.617684
O31   O     O_R   0.448840 0.912530 0.228020 -0.636039
O32   O     O_R   0.551160 0.087470 0.771980 -0.636039
O33   O     O_R   0.912530 0.551160 0.228020 -0.619947
O34   O     O_R   0.087470 0.448840 0.771980 -0.619946
O35   O     O_R   0.551160 0.087470 0.228020 -0.577816
O36   O     O_R   0.448840 0.912530 0.771980 -0.577814
O37   O     O_R   0.087470 0.448840 0.228020 -0.590495
O38   O     O_R   0.912530 0.551160 0.771980 -0.590495
O39   O     O_R   0.448840 0.087470 0.771980 -0.619467
O40   O     O_3   0.000000 0.500000 0.250000 -0.499746
O41   O     O_R   0.551160 0.912530 0.228020 -0.619467
O42   O     O_R   0.912530 0.448840 0.771980 -0.577705
O43   O     O_R   0.087470 0.551160 0.228020 -0.577705
O44   O     O_R   0.551160 0.912530 0.771980 -0.590518
O45   O     O_R   0.448840 0.087470 0.228020 -0.590518
O46   O     O_R   0.087470 0.551160 0.771980 -0.636141
O47   O     O_R   0.912530 0.448840 0.228020 -0.636142
O48   O     O_R   0.948840 0.412530 0.728020 -0.636039
O49   O     O_R   0.051160 0.587470 0.271980 -0.636039
O50   O     O_R   0.412530 0.051160 0.728020 -0.619946
O51   O     O_3   0.000000 0.500000 0.750000 -0.499746
O52   O     O_R   0.587470 0.948840 0.271980 -0.619947
O53   O     O_R   0.051160 0.587470 0.728020 -0.577813
O54   O     O_R   0.948840 0.412530 0.271980 -0.577816
O55   O     O_R   0.587470 0.948840 0.728020 -0.590495
O56   O     O_R   0.412530 0.051160 0.271980 -0.590495
O57   O     O_R   0.948840 0.587470 0.271980 -0.619467
O58   O     O_R   0.051160 0.412530 0.728020 -0.619467
O59   O     O_R   0.412530 0.948840 0.271980 -0.577705
O60   O     O_R   0.587470 0.051160 0.728020 -0.577705
O61   O     O_R   0.051160 0.412530 0.271980 -0.590518
O62   O     O_R   0.500000 0.036350 0.166040 -0.627655
O63   O     O_R   0.948840 0.587470 0.728020 -0.590518
O64   O     O_R   0.587470 0.051160 0.271980 -0.636142
O65   O     O_R   0.412530 0.948840 0.728020 -0.636142
O66   O     O_3   0.195436 0.262241 0.182915 -0.742908
O67   O     O_3   0.804563 0.737758 0.817086 -0.742908
O68   O     O_3   0.289164 0.777672 0.322228 -0.744153
O69   O     O_3   0.710836 0.222328 0.677772 -0.744152
O70   O     O_3   0.779002 0.712287 0.177467 -0.743813
O71   O     O_3   0.220996 0.287711 0.822533 -0.743813
O72   O     O_3   0.707059 0.226197 0.321758 -0.741991
O73   O     O_R   0.500000 0.963650 0.833960 -0.627655
O74   O     O_3   0.292948 0.773795 0.678243 -0.741992
O75   O     O_3   0.222335 0.710825 0.677772 -0.744199
O76   O     O_3   0.777673 0.289168 0.322228 -0.744199
O77   O     O_3   0.283965 0.217122 0.822696 -0.743578
O78   O     O_3   0.716033 0.782876 0.177304 -0.743578
O79   O     O_3   0.773801 0.292945 0.678250 -0.741937
O80   O     O_3   0.226199 0.707055 0.321750 -0.741937
O81   O     O_3   0.734222 0.800926 0.818935 -0.743453
O82   O     O_3   0.265777 0.199073 0.181065 -0.743453
O83   O     O_3   0.695437 0.762242 0.682914 -0.742908
O84   O     O_R   0.036350 0.500000 0.166040 -0.627648
O85   O     O_3   0.304564 0.237759 0.317085 -0.742908
O86   O     O_3   0.789164 0.277672 0.822228 -0.744152
O87   O     O_3   0.210836 0.722328 0.177772 -0.744153
O88   O     O_3   0.279004 0.212289 0.677466 -0.743813
O89   O     O_3   0.720998 0.787713 0.322533 -0.743813
O90   O     O_3   0.207052 0.726205 0.821757 -0.741992
O91   O     O_3   0.792941 0.273802 0.178242 -0.741992
O92   O     O_3   0.722327 0.210832 0.177771 -0.744199
O93   O     O_3   0.277665 0.789175 0.822228 -0.744199
O94   O     O_3   0.783967 0.717124 0.322696 -0.743577
O95   O     O_R   0.963650 0.500000 0.833960 -0.627648
O96   O     O_3   0.216034 0.282878 0.677304 -0.743578
O97   O     O_3   0.273801 0.792945 0.178250 -0.741939
O98   O     O_3   0.726199 0.207055 0.821750 -0.741936
O99   O     O_3   0.234223 0.300927 0.318935 -0.743453
O100  O     O_3   0.765778 0.699074 0.681065 -0.743453
O101  O     O_3   0.063364 0.327992 0.262016 -0.715267
O102  O     O_3   0.936636 0.672008 0.737984 -0.715267
O103  O     O_3   0.328227 0.937541 0.252133 -0.718179
O104  O     O_3   0.671773 0.062459 0.747868 -0.718179
O105  O     O_3   0.936239 0.676190 0.239919 -0.720621
O106  O     O_R   0.500000 0.963650 0.166040 -0.617681
O107  O     O_3   0.063761 0.323809 0.760078 -0.720620
O108  O     O_3   0.677186 0.063394 0.248647 -0.712978
O109  O     O_3   0.322814 0.936606 0.751350 -0.712978
O110  O     O_3   0.062454 0.671763 0.747903 -0.718415
O111  O     O_3   0.937547 0.328237 0.252093 -0.718417
O112  O     O_3   0.323603 0.064331 0.759841 -0.721037
O113  O     O_3   0.676397 0.935669 0.240157 -0.721036
O114  O     O_3   0.936610 0.322823 0.751328 -0.712485
O115  O     O_3   0.063390 0.677177 0.248672 -0.712485
O116  O     O_3   0.671934 0.937162 0.738233 -0.714762
Zn1   Zn    Zn3+2 0.448050 0.000000 0.281500 1.046986
Zn2   Zn    Zn3+2 0.051950 0.500000 0.218500 1.046986
Zn3   Zn    Zn3+2 0.500000 0.051950 0.781500 1.001808
Zn4   Zn    Zn3+2 0.500000 0.948050 0.218500 1.001808
Zn5   Zn    Zn3+2 0.051950 0.500000 0.781500 1.001447
Zn6   Zn    Zn3+2 0.948050 0.500000 0.218500 1.001447
Zn7   Zn    Zn3+2 0.500000 0.948050 0.781500 1.046785
Zn8   Zn    Zn3+2 0.500000 0.051950 0.218500 1.046785
Zn9   Zn    Zn3+2 0.551950 0.000000 0.718500 1.046986
Zn10  Zn    Zn3+2 0.000000 0.551950 0.281500 1.001808
Zn11  Zn    Zn3+2 0.000000 0.448050 0.718500 1.001808
Zn12  Zn    Zn3+2 0.551950 0.000000 0.281500 1.001448
Zn13  Zn    Zn3+2 0.448050 0.000000 0.718500 1.001447
Zn14  Zn    Zn3+2 0.000000 0.448050 0.281500 1.046784
Zn15  Zn    Zn3+2 0.000000 0.551950 0.718500 1.046785
Zn16  Zn    Zn3+2 0.948050 0.500000 0.781500 1.046985

loop_
_geom_bond_atom_site_label_1
_geom_bond_atom_site_label_2
_ccdc_geom_bond_type
O40   Zn2   S    
C110  H142  S    
C137  H56   S    
C8    O39   A    
H98   O111  S    
C78   C115  S    
C129  H36   S    
C4    O35   A    
H118  O16   S    
C23   C215  S    
C175  O71   S    
C29   C208  S    
C91   C127  S    
C38   C159  A    
C63   C98   A    
C115  H151  S    
C90   C167  S    
O27   Zn10  S    
C133  H47   S    
C194  C197  A    
H80   O93   S    
C213  O106  A    
C81   C117  S    
C128  H31   S    
H121  O19   S    
C39   C74   A    
C83   C119  S    
C37   O103  S    
C53   C68   A    
O40   Zn14  S    
H122  O20   S    
C155  C189  A    
O106  Zn4   S    
C213  O62   A    
C176  C179  A    
O29   Zn13  S    
C80   C116  S    
C46   C55   A    
C1    C34   A    
C114  H148  S    
C85   C121  S    
H70   O83   S    
C10   O42   A    
C147  C155  S    
C130  H39   S    
C36   C71   A    
O26   Zn11  S    
C109  H137  S    
O1    Zn8   S    
C95   C144  A    
O13   Zn6   S    
C125  H22   S    
C6    O61   A    
O21   Zn5   S    
O54   Zn14  S    
H94   O108  S    
C171  C185  A    
O43   Zn2   S    
C1    C6    S    
C136  H55   S    
C91   C149  A    
C69   O20   S    
H108  O6    S    
C73   C108  S    
C167  C171  A    
C153  C187  A    
C187  C204  A    
C104  C140  S    
C105  H123  S    
O38   Zn16  S    
H87   O100  S    
C157  C191  A    
H85   O98   S    
C145  C157  S    
C4    O64   A    
C46   C49   A    
C167  C204  A    
O29   Zn3   S    
C160  C178  A    
C116  H154  S    
O46   Zn5   S    
C170  C224  S    
C152  C186  A    
C168  C169  A    
C198  O94   S    
C110  H140  S    
C137  H58   S    
C50   O116  S    
C82   C118  S    
C161  C177  A    
C139  H65   S    
C40   C181  A    
C21   C30   T    
C92   C128  S    
H78   O91   S    
C70   C79   A    
C50   C57   A    
C135  C163  S    
C45   C81   A    
H76   O89   S    
C115  H149  S    
C70   C105  S    
H103  O116  S    
H115  O14   S    
H107  O5    S    
C131  H41   S    
C106  H127  S    
C27   C206  S    
C25   C213  S    
C106  H129  S    
H57   O81   S    
C41   C76   A    
C13   C45   A    
C7    O63   A    
C118  H160  S    
C176  O72   S    
O51   Zn5   S    
C215  O2    A    
C188  C202  A    
C114  H146  S    
C42   O109  S    
C168  C202  A    
C99   C136  S    
C2    C60   A    
C10   O48   A    
C101  C166  S    
C97   C142  A    
C174  O70   S    
C130  H37   S    
C17   C221  S    
C100  C137  S    
C119  H5    S    
C195  C196  A    
C60   C95   A    
C121  H10   S    
C72   C101  A    
C71   C106  S    
H120  O18   S    
C11   C46   S    
C38   O104  S    
O39   Zn3   S    
C140  H67   S    
C220  O24   A    
C166  C172  A    
C43   O110  S    
H46   O80   S    
H81   O94   S    
C218  O26   A    
H150  O75   S    
C97   C133  S    
C158  C195  A    
C18   C220  S    
C174  C182  A    
C142  C161  S    
C123  H19   S    
O52   Zn12  S    
C61   C96   A    
C67   C103  A    
C143  C160  S    
O1    Zn1   S    
C98   C124  A    
C94   C130  S    
C9    O52   A    
O61   Zn14  S    
C126  H25   S    
C105  H125  S    
C49   C84   A    
O60   Zn9   S    
C129  H33   S    
C108  H133  S    
C186  O82   S    
O33   Zn6   S    
O22   Zn15  S    
C155  C183  A    
C223  O32   A    
C3    O58   A    
C222  O59   A    
C5    O65   A    
O65   Zn13  S    
H114  O12   S    
H90   O103  S    
C15   O46   A    
H117  O71   S    
C64   C99   A    
C122  H16   S    
C2    C44   A    
O64   Zn12  S    
H83   O97   S    
C128  H30   S    
C188  O85   S    
C10   C35   S    
O63   Zn15  S    
C184  O80   S    
C13   C56   A    
C107  H132  S    
C45   O112  S    
C163  C199  A    
C141  C162  S    
C220  O28   A    
C21   C217  S    
C134  H51   S    
C79   C103  A    
C201  O98   S    
H91   O104  S    
C15   O53   A    
C66   C159  A    
C119  H4    S    
C200  O97   S    
C111  H143  S    
C133  H49   S    
C189  O86   S    
C60   O11   S    
C8    O50   A    
O36   Zn7   S    
H139  O74   S    
O84   Zn2   S    
C52   C57   A    
O57   Zn10  S    
C32   C211  S    
C156  C182  A    
C37   C148  A    
C63   C170  A    
H116  O15   S    
C224  O57   A    
C87   C150  A    
H95   O69   S    
C136  H54   S    
C11   O43   A    
C88   C125  S    
O29   Zn9   S    
C120  H9    S    
C62   C97   A    
C9    O41   A    
O1    Zn12  S    
C121  H12   S    
O40   Zn10  S    
C109  H138  S    
O62   Zn8   S    
C209  C210  T    
C93   C146  A    
C194  O90   S    
C164  C174  A    
C19   C28   T    
C173  C183  A    
C12   C57   S    
C171  O67   S    
C41   O108  S    
C88   C151  A    
C16   O54   A    
C123  H17   S    
C2    C16   S    
C216  O84   A    
C89   C147  A    
C75   C110  S    
H111  O9    S    
C126  H23   S    
C127  H29   S    
C108  H135  S    
C5    C203  S    
O51   Zn16  S    
C175  C180  A    
O53   Zn15  S    
C204  O100  S    
C117  H158  S    
C48   C83   A    
H73   O67   S    
C132  H43   S    
C87   C123  S    
H89   O102  S    
C122  H14   S    
C71   C90   A    
C76   C111  S    
H93   O107  S    
H2    O76   S    
C100  C101  A    
C196  O92   S    
H88   O101  S    
H86   O99   S    
H105  O4    S    
C140  H66   S    
C52   O4    S    
C5    O36   A    
C53   O5    S    
C42   C77   A    
C138  H60   S    
C47   O113  S    
C51   O3    S    
O42   Zn16  S    
H109  O7    S    
C124  C164  S    
C43   C214  A    
H110  O8    S    
C25   C33   T    
C74   C124  A    
C8    C13   S    
C191  O88   S    
C4    C192  S    
C125  H21   S    
H84   O68   S    
C152  C188  A    
C30   C209  S    
C190  C200  A    
C111  H145  S    
C169  C186  A    
C56   O8    S    
C43   C78   A    
C138  H61   S    
H82   O96   S    
C16   O47   A    
C58   C93   A    
C223  O60   A    
C113  C165  S    
O95   Zn16  S    
C69   C112  A    
C75   C135  A    
H101  O114  S    
C172  O68   S    
C65   O17   S    
C193  C198  A    
H99   O112  S    
C73   C113  A    
C125  H20   S    
C127  H28   S    
C165  C201  A    
C85   C150  A    
C55   C91   A    
C50   C85   A    
C96   C141  A    
H106  O70   S    
C150  C153  S    
C80   C144  A    
C36   C112  A    
C14   O56   A    
C151  C152  S    
C219  O27   A    
C202  O99   S    
C59   C94   A    
C34   C70   A    
O51   Zn11  S    
C76   C141  A    
C154  C190  A    
C110  H141  S    
C163  C175  A    
C35   C54   A    
C95   C131  S    
C120  H8    S    
C55   O7    S    
C35   C48   A    
C51   C86   A    
C82   C146  A    
C164  C198  A    
C89   C126  S    
O45   Zn8   S    
H71   O85   S    
C207  C208  T    
C216  O13   A    
C44   C80   A    
C179  O76   S    
C115  H152  S    
C132  H45   S    
C177  O74   S    
C133  H48   S    
C199  O96   S    
C157  C180  A    
C217  O95   A    
C158  C179  A    
O50   Zn13  S    
C183  O79   S    
C211  C212  T    
C84   C120  S    
C221  O25   A    
C114  H147  S    
C99   C135  A    
C12   O44   A    
C65   C148  A    
C219  O23   A    
C3    C181  S    
C222  O31   A    
C144  C158  S    
C197  O93   S    
H97   O110  S    
C26   C205  S    
C94   C143  A    
C77   C114  S    
C54   O6    S    
C58   O9    S    
O28   Zn13  S    
H128  O72   S    
C98   C134  S    
C63   O15   S    
C3    O34   A    
C20   C218  S    
H92   O105  S    
O55   Zn9   S    
C65   C100  A    
C187  O83   S    
O2    Zn3   S    
C11   O49   A    
C118  H3    S    
O34   Zn5   S    
O40   Zn6   S    
H79   O92   S    
C40   C75   A    
C161  C197  A    
C126  H26   S    
C105  H124  S    
H35   O79   S    
C23   C32   T    
C6    O37   A    
O58   Zn11  S    
O59   Zn1   S    
C102  C113  A    
C108  H134  S    
C86   C151  A    
O48   Zn11  S    
C31   C210  S    
H112  O10   S    
C136  H53   S    
O41   Zn4   S    
C86   C122  S    
O30   Zn12  S    
O31   Zn4   S    
C116  H153  S    
C190  O87   S    
C173  O69   S    
C137  H59   S    
C24   C58   A    
C177  C178  A    
C37   C72   A    
C162  C196  A    
C39   O105  S    
C28   C207  S    
C14   C68   S    
C59   O10   S    
C78   C143  A    
C182  O78   S    
C107  H131  S    
C44   O111  S    
C22   C216  S    
C134  H52   S    
O56   Zn1   S    
C66   C102  A    
C149  C154  S    
C74   C109  S    
C217  O21   A    
C59   C214  A    
C131  H42   S    
C205  C206  T    
C7    C112  S    
O49   Zn10  S    
C106  H126  S    
C36   O102  S    
C17   C26   T    
O35   Zn8   S    
C7    O38   A    
C191  C199  A    
C39   C170  A    
O24   Zn9   S    
C185  O81   S    
C34   O101  S    
C162  C176  A    
C118  H159  S    
C165  C173  A    
C180  O77   S    
C140  H69   S    
C102  C138  S    
C47   C82   A    
C148  C222  S    
C77   C142  A    
H74   O87   S    
C119  H6    S    
C1    C67   A    
C111  H144  S    
O73   Zn7   S    
C154  C184  A    
H1    O66   S    
C61   C192  A    
C61   O12   S    
C79   C168  S    
C96   C132  S    
C93   C129  S    
H13   O77   S    
H77   O90   S    
C42   C203  A    
C15   C214  S    
H75   O88   S    
O29   Zn7   S    
C120  H7    S    
C20   C29   T    
C109  H136  S    
C66   O18   S    
C22   C31   T    
C33   C212  S    
C139  H63   S    
C54   C89   A    
C129  H34   S    
O51   Zn15  S    
C189  C201  A    
C117  H157  S    
C67   O19   S    
O25   Zn1   S    
C107  H130  S    
C116  H155  S    
C103  C139  S    
H102  O115  S    
C132  H44   S    
C121  H11   S    
C172  C184  A    
C122  H15   S    
C72   C107  S    
H100  O113  S    
C90   C104  A    
C195  O91   S    
C130  H38   S    
C193  O89   S    
H96   O109  S    
C169  O66   S    
C83   C147  A    
C64   C181  A    
C117  H156  S    
C14   O45   A    
C81   C145  A    
C221  O30   A    
C134  H50   S    
C12   O55   A    
C19   C219  S    
O32   Zn3   S    
H72   O86   S    
H104  O3    S    
C160  C194  A    
C131  H40   S    
C69   C104  A    
H113  O11   S    
H119  O17   S    
C41   C192  A    
C92   C145  A    
C24   C47   A    
C215  O73   A    
C52   C87   A    
C18   C27   T    
C9    C24   S    
C128  H32   S    
C64   O16   S    
C138  H62   S    
O44   Zn7   S    
C139  H64   S    
C218  O22   A    
C156  C193  A    
C178  O75   S    
C84   C149  A    
C153  C185  A    
C62   O14   S    
C40   O107  S    
C159  C223  S    
C49   O115  S    
C53   C88   A    
C127  H27   S    
C51   C68   A    
H24   O78   S    
O47   Zn6   S    
C166  C200  A    
C62   C203  A    
O37   Zn2   S    
C56   C92   A    
C146  C156  S    
C224  O33   A    
C48   O114  S    
H68   O82   S    
C38   C73   A    
C123  H18   S    
O23   Zn14  S    
O1    Zn4   S    
