data_mof_unit_29794.cif
_audit_creation_date              2012-10-26T20:00:58-0400
_audit_creation_method            fapswitch 2.2
_symmetry_space_group_name_H-M    P1
_symmetry_Int_Tables_number       1
_space_group_crystal_system       triclinic
_cell_length_a                    11.666055
_cell_length_b                    13.003614
_cell_length_c                    13.441651
_cell_angle_alpha                 92.010766
_cell_angle_beta                  76.493713
_cell_angle_gamma                 99.811687
_cell_volume                      1953.69268999

loop_
_atom_site_label
_atom_site_type_symbol
_atom_type_description
_atom_site_fract_x
_atom_site_fract_y
_atom_site_fract_z
_atom_type_partial_charge
C1    C     C_R   0.520843 0.700863 0.501531 0.544554
C2    C     C_R   0.397309 0.496132 0.808570 -0.000336
C3    C     C_R   0.467116 0.185725 0.497704 0.000232
C4    C     C_R   0.436576 0.499529 0.696134 0.537509
C5    C     C_R   0.532841 0.814251 0.502508 -0.000528
C6    C     C_R   0.652123 0.984596 0.510760 -0.139951
C7    C     C_R   0.641278 0.876508 0.510092 -0.140646
C8    C     C_R   0.435146 0.860780 0.495770 -0.129843
C9    C     C_R   0.445295 0.968793 0.496392 0.048031
C10   C     C_R   0.554648 0.031177 0.503910 0.047940
C11   C     C_R   0.564807 0.139196 0.504481 -0.130366
C12   C     C_R   0.447134 0.504558 0.976367 0.040838
C13   C     C_R   0.358654 0.123451 0.490210 -0.137066
C14   C     C_R   0.347808 0.015365 0.489570 -0.138605
C15   C     C_R   0.947592 0.601352 0.590776 -0.171423
C16   C     C_R   0.479136 0.299131 0.498551 0.551850
C17   C     C_R   0.828490 0.591462 0.582183 0.050670
C18   C     C_R   0.856148 0.455343 0.461579 0.045686
C19   C     C_R   0.976980 0.462991 0.467114 0.008591
C20   C     C_R   0.023006 0.536816 0.532948 0.008041
C21   C     C_R   0.143656 0.544242 0.538804 0.046520
C22   C     C_R   0.172180 0.409539 0.416619 0.043444
C23   C     C_R   0.476552 0.534936 0.871963 0.031816
C24   C     C_R   0.052781 0.399122 0.408554 -0.176877
C25   C     C_R   0.563824 0.505921 0.304143 0.549837
C26   C     C_R   0.735641 0.617889 0.048067 0.274100
C27   C     C_R   0.601051 0.523714 0.193601 -0.049546
C28   C     C_R   0.282670 0.442747 0.852757 -0.127526
C29   C     C_R   0.248721 0.422611 0.957083 -0.135847
C30   C     C_R   0.330036 0.450950 0.018203 -0.113795
C31   C     C_3   0.850163 0.778442 0.040189 -0.136266
C32   C     C_R   0.535588 0.529866 0.034716 -0.010783
C33   C     C_R   0.647469 0.592360 0.990764 0.059207
C34   C     C_R   0.668183 0.631191 0.891465 -0.127076
C35   C     C_R   0.583370 0.604515 0.833892 -0.138882
C36   C     C_R   0.516319 0.494354 0.135480 -0.148660
C37   C     C_R   0.712170 0.582059 0.148988 -0.116013
Cu1   Cu    Cu3+1 0.386470 0.492430 0.492410 0.932334
Cu2   Cu    Cu3+1 0.613530 0.507570 0.507590 0.932098
H1    H     H_    0.778767 0.603897 0.193566 0.136615
H2    H     H_    0.020155 0.341641 0.357011 0.082745
H3    H     H_    0.771752 0.642627 0.625759 0.111612
H4    H     H_    0.750150 0.683009 0.857675 0.147311
H5    H     H_    0.819704 0.399003 0.411079 0.114421
H6    H     H_    0.434942 0.444381 0.171936 0.123004
H7    H     H_    0.220017 0.413735 0.806091 0.135816
H8    H     H_    0.297111 0.431571 0.098153 0.099883
H9    H     H_    0.159762 0.381682 0.990440 0.119695
H10   H     H_    0.601310 0.641513 0.759970 0.126397
H11   H     H_    0.648889 0.186791 0.510235 0.120567
H12   H     H_    0.282221 0.158141 0.484846 0.127754
H13   H     H_    0.776490 0.814238 0.023376 0.111080
H14   H     H_    0.935853 0.825630 0.999911 0.143750
H15   H     H_    0.847276 0.782408 0.123517 0.116642
H16   H     H_    0.736418 0.031612 0.516600 0.102502
H17   H     H_    0.263505 0.968343 0.483760 0.102626
H18   H     H_    0.717695 0.841805 0.515481 0.125915
H19   H     H_    0.351073 0.813191 0.489985 0.120650
H20   H     H_    0.179968 0.600336 0.589580 0.116861
H21   H     H_    0.230017 0.359969 0.371327 0.118929
H22   H     H_    0.980464 0.659366 0.641755 0.091790
N1    N     N_R   0.215880 0.481050 0.481000 -0.228997
N2    N     N_R   0.784100 0.518950 0.519000 -0.228243
O1    O     O_R   0.419710 0.645650 0.494620 -0.508800
O2    O     O_R   0.611450 0.658430 0.507430 -0.516258
O3    O     O_R   0.357340 0.490460 0.641450 -0.504154
O4    O     O_R   0.549080 0.503250 0.654260 -0.498829
O5    O     O_R   0.388550 0.341570 0.492570 -0.509210
O6    O     O_R   0.580290 0.354350 0.505380 -0.506629
O7    O     O_R   0.450920 0.496750 0.345740 -0.501240
O8    O     O_R   0.642660 0.509540 0.358550 -0.504064
O9    O     O_3   0.846324 0.675004 0.004222 -0.573403

loop_
_geom_bond_atom_site_label_1
_geom_bond_atom_site_label_2
_ccdc_geom_bond_type
C6    C10   A    
C4    O4    A    
C2    C4    S    
C9    C14   A    
Cu1   O7    S    
C26   C37   A    
C35   H10   S    
C6    C7    A    
C25   O8    A    
C19   C24   A    
C18   H5    S    
C27   C36   A    
C22   N1    A    
Cu2   N2    S    
C9    C10   A    
C31   H13   S    
C26   C33   A    
C14   H17   S    
C19   C20   A    
C3    C13   A    
C6    H16   S    
C12   C30   A    
C32   C33   A    
C2    C23   A    
C33   C34   A    
Cu2   O6    S    
C36   H6    S    
C11   H11   S    
C13   C14   A    
C17   N2    A    
C4    O3    A    
C24   H2    S    
Cu2   O2    S    
C12   C23   A    
C28   H7    S    
C21   N1    A    
C29   C30   A    
C27   C37   A    
C16   O5    A    
C32   C36   A    
C3    C16   S    
C28   C29   A    
Cu1   O5    S    
C21   H20   S    
C37   H1    S    
Cu1   O1    S    
C31   H15   S    
C22   H21   S    
C15   C20   A    
C23   C35   A    
C22   C24   A    
C18   N2    A    
C31   H14   S    
C5    C8    A    
C25   C27   S    
C10   C11   A    
C16   O6    A    
C29   H9    S    
C1    O1    A    
C30   H8    S    
C1    C5    S    
C3    C11   A    
C20   C21   A    
C31   O9    S    
C5    C7    A    
C34   C35   A    
C26   O9    S    
C15   C17   A    
C15   H22   S    
Cu2   O8    S    
C17   H3    S    
C18   C19   A    
C2    C28   A    
C25   O7    A    
C8    H19   S    
C13   H12   S    
Cu2   O4    S    
C1    O2    A    
C7    H18   S    
C12   C32   A    
C34   H4    S    
Cu1   O3    S    
C8    C9    A    
Cu1   N1    S    
Cu1   Cu2   S    
