data_mof_unit_6805.cif
_audit_creation_date              2012-12-10T18:47:47-0500
_audit_creation_method            fapswitch 2.2
_symmetry_space_group_name_H-M    P1
_symmetry_Int_Tables_number       1
_space_group_crystal_system       triclinic
_cell_length_a                    9.880401
_cell_length_b                    10.630651
_cell_length_c                    15.548347
_cell_angle_alpha                 90.534219
_cell_angle_beta                  66.950847
_cell_angle_gamma                 89.246854
_cell_volume                      1502.43318102

loop_
_atom_site_label
_atom_site_type_symbol
_atom_type_description
_atom_site_fract_x
_atom_site_fract_y
_atom_site_fract_z
_atom_type_partial_charge
Br1   Br    Br    0.301214 0.130828 0.002508 -0.098843
Br2   Br    Br    0.649023 0.149768 0.297384 -0.246318
Br3   Br    Br    0.372427 0.161591 0.701857 -0.349843
Br4   Br    Br    0.627636 0.838414 0.298141 -0.349838
Br5   Br    Br    0.926631 0.291965 0.368832 -0.306684
Br6   Br    Br    0.073361 0.708029 0.631171 -0.306673
Br7   Br    Br    0.698691 0.869216 0.997514 -0.098820
Br8   Br    Br    0.404394 0.342390 0.235923 -0.351300
Br9   Br    Br    0.595676 0.657485 0.764085 -0.351349
Br10  Br    Br    0.935334 0.592249 0.216765 -0.295128
Br11  Br    Br    0.064626 0.407809 0.783241 -0.295093
Br12  Br    Br    0.024634 0.294131 0.989433 -0.221536
Br13  Br    Br    0.975285 0.705939 0.010582 -0.221506
Br14  Br    Br    0.351109 0.850226 0.702613 -0.246370
C1    C     C_R   0.498715 0.739614 0.500685 0.997939
C2    C     C_R   0.556620 0.932607 0.414421 0.215342
C3    C     C_R   0.503201 0.127992 0.499639 -0.283969
C4    C     C_R   0.496803 0.872009 0.500369 -0.283960
C5    C     C_R   0.962156 0.412106 0.449119 0.344479
C6    C     C_R   0.037843 0.587893 0.550881 0.344487
C7    C     C_R   0.103972 0.410984 0.451039 -0.101730
C8    C     C_R   0.896028 0.589016 0.548960 -0.101688
C9    C     C_R   0.406710 0.504631 0.676814 0.974910
C10   C     C_R   0.593290 0.495365 0.323186 0.974904
C11   C     C_R   0.344893 0.503014 0.780127 -0.247093
C12   C     C_R   0.501283 0.260387 0.499320 0.997936
C13   C     C_R   0.655100 0.496987 0.219874 -0.247086
C14   C     C_R   0.203301 0.378600 0.914597 0.327908
C15   C     C_R   0.796632 0.621447 0.085418 0.327914
C16   C     C_R   0.216443 0.434689 0.830327 0.234970
C17   C     C_R   0.783523 0.565342 0.169677 0.234970
C18   C     C_R   0.428117 0.551467 0.828761 0.320628
C19   C     C_R   0.571875 0.448522 0.171244 0.320593
C20   C     C_R   0.404106 0.503975 0.918142 -0.000019
C21   C     C_R   0.595826 0.496056 0.081879 -0.000040
C22   C     C_R   0.315846 0.396219 0.947484 -0.214713
C23   C     C_R   0.468809 0.331675 0.029085 0.690100
C24   C     C_R   0.684071 0.603826 0.052542 -0.214715
C25   C     C_R   0.484992 0.543628 0.970855 -0.148869
C26   C     C_R   0.514923 0.456408 0.029174 -0.148887
C27   C     C_R   0.531116 0.668358 0.970932 0.690135
C28   C     C_R   0.358138 0.304081 0.997440 0.238223
C29   C     C_R   0.641774 0.695959 0.002586 0.238235
C30   C     C_R   0.438674 0.937451 0.585959 0.239579
C31   C     C_R   0.561362 0.062549 0.414045 0.239593
C32   C     C_R   0.443406 0.067394 0.585585 0.215364
F1    F     F_    0.537096 0.235929 0.054697 -0.542525
F2    F     F_    0.462888 0.764088 0.945269 -0.542555
H1    H     H_    0.182515 0.338150 0.413794 0.212493
H2    H     H_    0.817483 0.661847 0.586206 0.212499
N1    N     N_R   0.142780 0.500030 0.500020 -0.133313
N2    N     N_R   0.857220 0.499970 0.499980 -0.133312
O1    O     O_R   0.385370 0.683250 0.500010 -0.577280
O2    O     O_R   0.614630 0.316750 0.499990 -0.577273
O3    O     O_R   0.614700 0.683220 0.500000 -0.602441
O4    O     O_R   0.385300 0.316780 0.500000 -0.602444
O5    O     O_R   0.319830 0.500020 0.632250 -0.556018
O6    O     O_R   0.680170 0.499980 0.367750 -0.556002
O7    O     O_R   0.549160 0.499990 0.632240 -0.593817
O8    O     O_R   0.450840 0.500010 0.367760 -0.593848
Zn1   Zn    Zn3+2 0.346870 0.500020 0.500000 1.074838
Zn2   Zn    Zn3+2 0.653130 0.499980 0.500000 1.074857

loop_
_geom_bond_atom_site_label_1
_geom_bond_atom_site_label_2
_ccdc_geom_bond_type
C2    C31   A    
O6    Zn2   S    
C1    C4    S    
O3    Zn2   S    
O5    Zn1   S    
Br5   C5    S    
Br7   C29   S    
C23   F1    S    
Br6   C6    S    
Br1   C28   S    
Br3   C32   S    
C22   C28   A    
N1    Zn1   S    
C10   C13   S    
C10   O8    A    
C8    H2    S    
C5    N2    A    
C21   C24   A    
C11   C18   A    
C7    H1    S    
C21   C26   A    
C24   C29   A    
C25   C27   A    
C2    C4    A    
N2    Zn2   S    
C13   C19   A    
C9    O7    A    
C27   C29   A    
Br12  C14   S    
C3    C12   S    
C12   O2    A    
C8    N2    A    
Br4   C2    S    
C5    C7    A    
C27   F2    S    
C6    C8    A    
C23   C28   A    
C6    N1    A    
C20   C22   A    
Br8   C19   S    
C9    C11   S    
Br2   C31   S    
C3    C31   A    
C7    N1    A    
C13   C17   A    
C23   C26   A    
C10   O6    A    
C1    O1    A    
C4    C30   A    
C25   C26   A    
C15   C24   A    
C3    C32   A    
C14   C22   A    
Br14  C30   S    
C1    O3    A    
Br13  C15   S    
C11   C16   A    
C9    O5    A    
O4    Zn1   S    
O8    Zn1   S    
O7    Zn2   S    
O2    Zn2   S    
Br9   C18   S    
C19   C21   A    
C18   C20   A    
C15   C17   A    
O1    Zn1   S    
Br10  C17   S    
C20   C25   A    
Br11  C16   S    
C30   C32   A    
C14   C16   A    
C12   O4    A    
