data_mof_unit_8621.cif
_audit_creation_date              2012-12-11T16:07:14-0500
_audit_creation_method            fapswitch 2.2
_symmetry_space_group_name_H-M    P1
_symmetry_Int_Tables_number       1
_space_group_crystal_system       triclinic
_cell_length_a                    17.107722
_cell_length_b                    17.108686
_cell_length_c                    17.232893
_cell_angle_alpha                 90.107614
_cell_angle_beta                  89.999789
_cell_angle_gamma                 90.001945
_cell_volume                      5043.89764833

loop_
_atom_site_label
_atom_site_type_symbol
_atom_type_description
_atom_site_fract_x
_atom_site_fract_y
_atom_site_fract_z
_atom_type_partial_charge
C1    C     C_R   0.394584 0.698128 0.607467 -0.141071
C2    C     C_R   0.577536 0.670654 0.645715 -0.129866
C3    C     C_3   0.776896 0.192917 0.634993 -0.150419
C4    C     C_3   0.721367 0.750183 0.279917 -0.137251
C5    C     C_3   0.278734 0.249735 0.720129 -0.137296
C6    C     C_3   0.806853 0.222150 0.365711 -0.150402
C7    C     C_3   0.193155 0.777862 0.634286 -0.150400
C8    C     C_3   0.693448 0.721769 0.865792 -0.150149
C9    C     C_3   0.306871 0.277848 0.134284 -0.150363
C10   C     C_3   0.779219 0.250683 0.779649 -0.137546
C11   C     C_3   0.220740 0.749288 0.220367 -0.137553
C12   C     C_3   0.277399 0.306675 0.865117 -0.150146
C13   C     C_R   0.698111 0.393576 0.393196 -0.151649
C14   C     C_3   0.722502 0.693408 0.134864 -0.150044
C15   C     C_3   0.249783 0.778904 0.779292 -0.137009
C16   C     C_3   0.750210 0.221087 0.220711 -0.137006
C17   C     C_R   0.301888 0.606425 0.606803 -0.151643
C18   C     C_R   0.577740 0.669855 0.353833 -0.142346
C19   C     C_R   0.422253 0.330140 0.646165 -0.142370
C20   C     C_R   0.301984 0.605261 0.392284 -0.140891
C21   C     C_R   0.698015 0.394738 0.607716 -0.140929
C22   C     C_R   0.922447 0.170687 0.145693 -0.129758
C23   C     C_R   0.077555 0.829312 0.854307 -0.129738
C24   C     C_R   0.198113 0.106429 0.106800 -0.151629
C25   C     C_R   0.605416 0.301872 0.392533 -0.141051
C26   C     C_R   0.801896 0.893590 0.893162 -0.151539
C27   C     C_R   0.077787 0.830105 0.146145 -0.142521
C28   C     C_R   0.922215 0.169895 0.853855 -0.142523
C29   C     C_R   0.802010 0.894748 0.107794 -0.141095
C30   C     C_R   0.197995 0.105253 0.892219 -0.141071
C31   C     C_R   0.894586 0.801885 0.892494 -0.141170
C32   C     C_R   0.105420 0.198129 0.107463 -0.141043
C33   C     C_R   0.169739 0.922323 0.853688 -0.142135
C34   C     C_R   0.830261 0.077678 0.146312 -0.142133
C35   C     C_R   0.106270 0.197972 0.892879 -0.151540
C36   C     C_R   0.669716 0.577651 0.646325 -0.142046
C37   C     C_R   0.893736 0.802030 0.107131 -0.151522
C38   C     C_R   0.829168 0.077634 0.854470 -0.129894
C39   C     C_R   0.170832 0.922368 0.145529 -0.129909
C40   C     C_3   0.323343 0.321881 0.250470 0.189340
C41   C     C_3   0.676655 0.678087 0.749524 0.189305
C42   C     C_3   0.264786 0.733780 0.335089 0.189134
C43   C     C_3   0.735211 0.266220 0.664916 0.189137
C44   C     C_3   0.678452 0.677003 0.250948 0.189440
C45   C     C_3   0.321539 0.322996 0.749055 0.189469
C46   C     C_3   0.734092 0.264519 0.335656 0.189208
C47   C     C_R   0.330269 0.422329 0.353683 -0.142181
C48   C     C_3   0.265908 0.735482 0.664344 0.189209
C49   C     C_3   0.765909 0.764545 0.835583 0.189213
C50   C     C_3   0.234099 0.235489 0.164334 0.189198
C51   C     C_3   0.821483 0.177022 0.750950 0.189511
C52   C     C_3   0.178520 0.822980 0.249051 0.189510
C53   C     C_3   0.235172 0.233771 0.834972 0.189141
C54   C     C_3   0.764838 0.766231 0.165052 0.189135
C55   C     C_3   0.176667 0.821873 0.750477 0.189363
C56   C     C_3   0.823335 0.178129 0.249522 0.189361
C57   C     C_R   0.318431 0.682463 0.625616 0.038065
C58   C     C_R   0.606294 0.302014 0.607064 -0.151684
C59   C     C_R   0.681570 0.317538 0.374383 0.038063
C60   C     C_R   0.635315 0.636289 0.689544 0.028669
C61   C     C_R   0.364649 0.363660 0.310488 0.028717
C62   C     C_R   0.682260 0.318663 0.626094 0.037313
C63   C     C_R   0.317737 0.681337 0.373909 0.037303
C64   C     C_R   0.363414 0.364396 0.689253 0.028039
C65   C     C_R   0.636572 0.635594 0.310738 0.028028
C66   C     C_R   0.864642 0.136349 0.189507 0.028697
C67   C     C_R   0.135359 0.863652 0.810492 0.028692
C68   C     C_R   0.181574 0.182468 0.125609 0.038049
C69   C     C_R   0.393705 0.697986 0.392939 -0.151699
C70   C     C_R   0.818440 0.817562 0.874315 0.038078
C71   C     C_R   0.136675 0.864332 0.189197 0.028122
C72   C     C_R   0.863329 0.135668 0.810801 0.028123
C73   C     C_R   0.817789 0.818688 0.126229 0.037338
C74   C     C_R   0.182220 0.181316 0.873793 0.037341
C75   C     C_3   0.720663 0.647744 0.820623 -0.160682
C76   C     C_3   0.279777 0.352154 0.179073 -0.160509
C77   C     C_3   0.705740 0.223096 0.736829 -0.154240
C78   C     C_3   0.294248 0.776862 0.263147 -0.154206
C79   C     C_3   0.248509 0.351179 0.792263 -0.165307
C80   C     C_R   0.329215 0.422394 0.645561 -0.130043
C81   C     C_3   0.751410 0.648788 0.207642 -0.165303
C82   C     C_3   0.293912 0.808498 0.707622 -0.168083
C83   C     C_3   0.706092 0.191495 0.292388 -0.168076
C84   C     C_3   0.778004 0.294098 0.264230 -0.154573
C85   C     C_3   0.221986 0.705901 0.735762 -0.154579
C86   C     C_3   0.648179 0.720499 0.179529 -0.160862
C87   C     C_3   0.351795 0.279616 0.820551 -0.160836
C88   C     C_3   0.191275 0.705985 0.292578 -0.168140
C89   C     C_3   0.808694 0.294029 0.707467 -0.168135
C90   C     C_3   0.351572 0.248957 0.207052 -0.165915
C91   C     C_R   0.670777 0.577601 0.354434 -0.130070
C92   C     C_3   0.648303 0.750734 0.793318 -0.165920
C93   C     C_3   0.277996 0.205914 0.235769 -0.154578
C94   C     C_3   0.721575 0.794197 0.764444 -0.154828
C95   C     C_3   0.148363 0.780226 0.320962 -0.160624
C96   C     C_3   0.851649 0.219819 0.679068 -0.160632
C97   C     C_3   0.691780 0.794221 0.208200 -0.168009
C98   C     C_3   0.308301 0.205812 0.791924 -0.168036
C99   C     C_3   0.851569 0.251046 0.292952 -0.165916
C100  C     C_3   0.148428 0.748964 0.707037 -0.165912
C101  C     C_3   0.220258 0.852152 0.679097 -0.160540
C102  C     C_R   0.422450 0.329318 0.354303 -0.129749
C103  C     C_3   0.779754 0.147852 0.320910 -0.160543
C104  C     C_3   0.205603 0.277471 0.763441 -0.154587
C105  C     C_3   0.794427 0.722417 0.236507 -0.154661
C106  C     C_3   0.748099 0.148997 0.708227 -0.165299
C107  C     C_3   0.251933 0.850991 0.291735 -0.165304
C108  C     C_3   0.794020 0.691791 0.791943 -0.167984
C109  C     C_3   0.206104 0.308520 0.207591 -0.168066
C110  C     C_3   0.250207 0.278932 0.279276 -0.137009
C111  C     C_3   0.749479 0.721452 0.720556 -0.136834
C112  C     C_3   0.223145 0.807114 0.364998 -0.150439
H1    H     H_    0.422570 0.754782 0.606419 0.083848
H2    H     H_    0.543368 0.721623 0.660394 0.093230
H3    H     H_    0.755064 0.421020 0.393877 0.090178
H4    H     H_    0.244936 0.578981 0.606122 0.090172
H5    H     H_    0.543365 0.720439 0.338370 0.098908
H6    H     H_    0.456629 0.279557 0.661628 0.098911
H7    H     H_    0.245356 0.577208 0.393187 0.084170
H8    H     H_    0.754644 0.422788 0.606812 0.084180
H9    H     H_    0.956626 0.221654 0.160360 0.093143
H10   H     H_    0.043381 0.778343 0.839641 0.093123
H11   H     H_    0.255066 0.078989 0.106116 0.090171
H12   H     H_    0.577432 0.245218 0.393583 0.083838
H13   H     H_    0.744943 0.921030 0.893848 0.090117
H14   H     H_    0.043413 0.779521 0.161612 0.098917
H15   H     H_    0.956590 0.220479 0.838389 0.098919
H16   H     H_    0.745372 0.922780 0.106905 0.084276
H17   H     H_    0.254631 0.077219 0.893111 0.084255
H18   H     H_    0.922557 0.745225 0.893536 0.083907
H19   H     H_    0.077437 0.254783 0.106413 0.083846
H20   H     H_    0.220422 0.956508 0.838159 0.099225
H21   H     H_    0.779577 0.043495 0.161840 0.099219
H22   H     H_    0.078782 0.254903 0.893421 0.090618
H23   H     H_    0.720398 0.543466 0.661851 0.099234
H24   H     H_    0.921223 0.745099 0.106589 0.090608
H25   H     H_    0.778317 0.043240 0.839863 0.092730
H26   H     H_    0.221679 0.956769 0.160136 0.092737
H27   H     H_    0.227512 0.279790 0.339679 0.109932
H28   H     H_    0.771906 0.720904 0.660051 0.109962
H29   H     H_    0.225779 0.828806 0.425694 0.105297
H30   H     H_    0.774295 0.171248 0.574287 0.105294
H31   H     H_    0.720472 0.772909 0.340347 0.109719
H32   H     H_    0.279706 0.226937 0.659728 0.109717
H33   H     H_    0.828039 0.224257 0.426568 0.105461
H34   H     H_    0.279592 0.456519 0.338151 0.099261
H35   H     H_    0.171976 0.775764 0.573426 0.105467
H36   H     H_    0.672506 0.723575 0.926740 0.105266
H37   H     H_    0.328068 0.275731 0.073432 0.105348
H38   H     H_    0.780589 0.273833 0.839911 0.109675
H39   H     H_    0.219337 0.726113 0.160115 0.109672
H40   H     H_    0.275198 0.328006 0.925956 0.105222
H41   H     H_    0.724626 0.672143 0.074001 0.105115
H42   H     H_    0.272465 0.779745 0.839700 0.109938
H43   H     H_    0.727522 0.220238 0.160305 0.109940
H44   H     H_    0.718562 0.586692 0.842190 0.108088
H45   H     H_    0.578802 0.245083 0.606526 0.090689
H46   H     H_    0.282236 0.413117 0.157297 0.108110
H47   H     H_    0.645210 0.225596 0.759997 0.106350
H48   H     H_    0.354768 0.774324 0.239958 0.106351
H49   H     H_    0.225277 0.411754 0.791767 0.101965
H50   H     H_    0.774568 0.588184 0.208056 0.101983
H51   H     H_    0.354292 0.832244 0.707809 0.101121
H52   H     H_    0.645715 0.167742 0.292209 0.101117
H53   H     H_    0.776133 0.354768 0.241491 0.106051
H54   H     H_    0.223848 0.645228 0.758495 0.106051
H55   H     H_    0.587218 0.718005 0.157621 0.107129
H56   H     H_    0.421195 0.754918 0.393477 0.090697
H57   H     H_    0.412731 0.282202 0.842514 0.107138
H58   H     H_    0.167056 0.645799 0.292987 0.101707
H59   H     H_    0.832886 0.354227 0.707093 0.101705
H60   H     H_    0.412191 0.225832 0.207490 0.102998
H61   H     H_    0.587578 0.773583 0.793204 0.103084
H62   H     H_    0.276112 0.145247 0.258515 0.106079
H63   H     H_    0.723101 0.854954 0.741910 0.106004
H64   H     H_    0.087555 0.783313 0.343210 0.107200
H65   H     H_    0.912467 0.216769 0.656842 0.107193
H66   H     H_    0.668006 0.854586 0.208373 0.101773
H67   H     H_    0.278364 0.456781 0.660185 0.092856
H68   H     H_    0.332147 0.145475 0.791840 0.101762
H69   H     H_    0.912192 0.274165 0.292524 0.103000
H70   H     H_    0.087802 0.725852 0.707458 0.102985
H71   H     H_    0.217820 0.913120 0.657333 0.108094
H72   H     H_    0.782201 0.086887 0.342681 0.108093
H73   H     H_    0.144953 0.275435 0.740539 0.106299
H74   H     H_    0.855101 0.724361 0.259354 0.106288
H75   H     H_    0.724508 0.088565 0.709150 0.101868
H76   H     H_    0.275551 0.911411 0.290780 0.101865
H77   H     H_    0.854497 0.668300 0.791426 0.101151
H78   H     H_    0.721630 0.543218 0.339808 0.092880
H79   H     H_    0.145730 0.332279 0.207759 0.101120
H80   H     H_    0.456626 0.278353 0.339635 0.093140
N1    N     N_R   0.424590 0.632770 0.578330 -0.033202
N2    N     N_R   0.575410 0.632770 0.578330 -0.042166
N3    N     N_R   0.632770 0.424590 0.421670 -0.033024
N4    N     N_R   0.367230 0.575410 0.578330 -0.033025
N5    N     N_R   0.575410 0.632770 0.421670 -0.041655
N6    N     N_R   0.424590 0.367230 0.578330 -0.041649
N7    N     N_R   0.367230 0.575410 0.421670 -0.032884
N8    N     N_R   0.632770 0.424590 0.578330 -0.032882
N9    N     N_R   0.924590 0.132770 0.078330 -0.042156
N10   N     N_R   0.075410 0.867230 0.921670 -0.042154
N11   N     N_R   0.132770 0.075410 0.078330 -0.033041
N12   N     N_R   0.575410 0.367230 0.421670 -0.033210
N13   N     N_R   0.867230 0.924590 0.921670 -0.033037
N14   N     N_R   0.075410 0.867230 0.078330 -0.041629
N15   N     N_R   0.924590 0.132770 0.921670 -0.041630
N16   N     N_R   0.867230 0.924590 0.078330 -0.032877
N17   N     N_R   0.132770 0.075410 0.921670 -0.032875
N18   N     N_R   0.924590 0.867230 0.921670 -0.033214
N19   N     N_R   0.075410 0.132770 0.078330 -0.033225
N20   N     N_R   0.132770 0.924590 0.921670 -0.041955
N21   N     N_R   0.867230 0.075410 0.078330 -0.041954
N22   N     N_R   0.075410 0.132770 0.921670 -0.032698
N23   N     N_R   0.632770 0.575410 0.578330 -0.041977
N24   N     N_R   0.924590 0.867230 0.078330 -0.032699
N25   N     N_R   0.867230 0.075410 0.921670 -0.041840
N26   N     N_R   0.132770 0.924590 0.078330 -0.041837
N27   N     N_R   0.367230 0.424590 0.421670 -0.041961
N28   N     N_R   0.575410 0.367230 0.578330 -0.032698
N29   N     N_R   0.424590 0.632770 0.421670 -0.032698
N30   N     N_R   0.367230 0.424590 0.578330 -0.041851
N31   N     N_R   0.632770 0.575410 0.421670 -0.041855
N32   N     N_R   0.424590 0.367230 0.421670 -0.042157
Ni1   Ni    Ni4+2 0.500000 0.631570 0.500000 0.206846
Ni2   Ni    Ni4+2 0.500000 0.368430 0.500000 0.206858
Ni3   Ni    Ni4+2 0.631570 0.500000 0.500000 0.206859
Ni4   Ni    Ni4+2 0.368430 0.500000 0.500000 0.206864
Ni5   Ni    Ni4+2 0.000000 0.131570 0.000000 0.206858
Ni6   Ni    Ni4+2 0.000000 0.868430 0.000000 0.206866
Ni7   Ni    Ni4+2 0.131570 0.000000 0.000000 0.206879
Ni8   Ni    Ni4+2 0.868430 0.000000 0.000000 0.206886

loop_
_geom_bond_atom_site_label_1
_geom_bond_atom_site_label_2
_ccdc_geom_bond_type
C58   C62   A    
C83   H52   S    
N4    Ni4   S    
C24   N11   A    
C46   C59   S    
N14   Ni6   S    
C11   C88   S    
C107  C112  S    
C12   H40   S    
C39   N26   A    
C53   C74   S    
C25   N12   A    
N25   Ni8   S    
C34   C66   A    
C30   N17   A    
C24   H11   S    
C102  N32   A    
C48   C57   S    
C35   C74   A    
C8    H36   S    
C32   C68   A    
N14   N26   A    
C18   C65   A    
N9    N21   A    
C104  H73   S    
C76   H46   S    
C43   C89   S    
C29   N16   A    
C83   C103  S    
C22   H9    S    
C85   H54   S    
N2    Ni1   S    
C110  H27   S    
N6    N30   A    
C45   C64   S    
C106  H75   S    
C21   H8    S    
C7    C101  S    
C95   C112  S    
C36   N23   A    
C43   C77   S    
C30   C74   A    
C33   N20   A    
N31   Ni3   S    
C8    C49   S    
C29   C73   A    
C82   H51   S    
C11   C52   S    
C53   C104  S    
C87   H57   S    
C12   C79   S    
N29   Ni1   S    
C93   H62   S    
C16   C84   S    
C35   H22   S    
C52   C95   S    
N17   Ni7   S    
C23   C67   A    
C86   C97   S    
C42   C112  S    
C22   C66   A    
C15   H42   S    
C80   N30   A    
C84   H53   S    
C50   C68   S    
N27   N32   A    
C58   N28   A    
C75   H44   S    
C52   C107  S    
C31   C70   A    
C63   C69   A    
C10   C89   S    
C76   C109  S    
C55   C100  S    
N24   Ni6   S    
C56   C66   S    
C54   C97   S    
C3    C96   S    
N7    N29   A    
C9    C76   S    
C49   C94   S    
C23   H10   S    
C100  H70   S    
N7    Ni4   S    
C32   N19   A    
C37   N24   A    
C69   N29   A    
C12   C53   S    
C54   C105  S    
C28   H15   S    
C94   H63   S    
N10   Ni6   S    
C87   C98   S    
C56   C103  S    
N9    Ni5   S    
C5    C104  S    
C75   C108  S    
N16   N24   A    
C105  H74   S    
C4    C97   S    
C64   C80   A    
C38   N25   A    
N11   N19   A    
C44   C65   S    
C28   C72   A    
C3    H30   S    
C1    H1    S    
C79   H49   S    
C44   C86   S    
C10   C51   S    
C4    H31   S    
C25   H12   S    
C10   C77   S    
C111  H28   S    
C15   C82   S    
C7    H35   S    
C3    C106  S    
C9    H37   S    
C91   H78   S    
C38   C72   A    
N15   N25   A    
C88   H58   S    
C7    C100  S    
C9    C50   S    
C23   N10   A    
C103  H72   S    
C80   H67   S    
C2    C60   A    
C14   C86   S    
C44   C81   S    
N2    N23   A    
N20   Ni7   S    
N15   Ni5   S    
C5    H32   S    
C40   C110  S    
N3    N12   A    
C4    C44   S    
C34   H21   S    
C36   C60   A    
C47   H34   S    
C5    C45   S    
C107  H76   S    
C34   N21   A    
C50   C109  S    
C40   C61   S    
C40   C76   S    
N32   Ni2   S    
C78   C107  S    
C2    N2    A    
C26   H13   S    
C15   C55   S    
C112  H29   S    
C81   H50   S    
N27   Ni4   S    
C1    N1    A    
C95   H64   S    
C16   C56   S    
C20   N7    A    
C11   C78   S    
C1    C57   A    
C41   C75   S    
C54   C73   S    
C96   H65   S    
C102  H80   S    
N30   Ni4   S    
C19   C64   A    
N1    N4    A    
C3    C43   S    
C93   C110  S    
C16   H43   S    
C92   C94   S    
N18   Ni6   S    
C37   H24   S    
N28   Ni2   S    
C45   C79   S    
C6    C103  S    
C18   H5    S    
C89   H59   S    
C21   C62   A    
C13   H3    S    
N21   Ni8   S    
C77   H47   S    
C8    C92   S    
C33   H20   S    
C11   H39   S    
C14   C54   S    
N16   Ni8   S    
C42   C78   S    
C49   C70   S    
C14   H41   S    
C41   C111  S    
C26   C70   A    
C46   C84   S    
C108  H77   S    
C26   N13   A    
C42   C88   S    
C51   C72   S    
C21   N8    A    
C91   N31   A    
C6    H33   S    
C36   H23   S    
C27   C71   A    
C33   C67   A    
C90   C93   S    
C78   H48   S    
C65   C91   A    
C81   C105  S    
C37   C73   A    
C77   C106  S    
C19   N6    A    
C6    C46   S    
C22   N9    A    
C45   C87   S    
C82   C101  S    
C84   C99   S    
C30   H17   S    
C86   H55   S    
C41   C60   S    
N10   N20   A    
N5    N31   A    
C58   H45   S    
C101  H71   S    
C9    C90   S    
C47   C61   A    
C55   C67   S    
C50   C93   S    
C88   C95   S    
C13   C59   A    
N3    Ni3   S    
C53   C98   S    
C31   H18   S    
C94   C111  S    
N13   Ni8   S    
C4    C105  S    
C51   C96   S    
C18   N5    A    
N17   N22   A    
C14   C81   S    
C108  C111  S    
C15   C85   S    
C39   H26   S    
C27   N14   A    
C40   C90   S    
C6    C99   S    
C20   C63   A    
C61   C102  A    
C69   H56   S    
N1    Ni1   S    
C12   C87   S    
C85   C100  S    
C92   H61   S    
C109  C110  S    
C7    C48   S    
N12   Ni2   S    
N11   Ni7   S    
C2    H2    S    
C97   H66   S    
C31   N18   A    
C47   N27   A    
N13   N18   A    
C109  H79   S    
C51   C106  S    
N8    N28   A    
C19   H6    S    
C55   C101  S    
C27   H14   S    
C38   H25   S    
C48   C82   S    
N23   Ni3   S    
C8    C75   S    
C79   C104  S    
C35   N22   A    
C49   C108  S    
N26   Ni7   S    
C99   H69   S    
C24   C68   A    
N19   Ni5   S    
C46   C83   S    
N6    Ni2   S    
C41   C92   S    
C5    C98   S    
C17   H4    S    
C13   N3    A    
C29   H16   S    
C90   H60   S    
C52   C71   S    
C28   N15   A    
C39   C71   A    
C48   C85   S    
C17   N4    A    
C16   C83   S    
C25   C59   A    
C56   C99   S    
C89   C96   S    
N22   Ni5   S    
C98   H68   S    
C42   C63   S    
N8    Ni3   S    
C20   H7    S    
C10   H38   S    
C32   H19   S    
C43   C62   S    
C17   C57   A    
N5    Ni1   S    
