data_mof_unit_21480.cif
_audit_creation_date              2012-12-11T15:34:23-0500
_audit_creation_method            fapswitch 2.2
_symmetry_space_group_name_H-M    P1
_symmetry_Int_Tables_number       1
_space_group_crystal_system       triclinic
_cell_length_a                    15.064187
_cell_length_b                    15.071403
_cell_length_c                    34.906733
_cell_angle_alpha                 90.53396
_cell_angle_beta                  89.999541
_cell_angle_gamma                 60.027038
_cell_volume                      6864.87008202

loop_
_atom_site_label
_atom_site_type_symbol
_atom_type_description
_atom_site_fract_x
_atom_site_fract_y
_atom_site_fract_z
_atom_type_partial_charge
C1    C     C_R   0.302468 0.608272 0.555735 0.542993
C2    C     C_R   0.657326 0.664734 0.668123 0.034940
C3    C     C_R   0.244360 0.667257 0.269355 -0.121583
C4    C     C_R   0.178458 0.647733 0.291565 0.026080
C5    C     C_R   0.109516 0.624348 0.273586 -0.123007
C6    C     C_R   0.103569 0.624699 0.233764 -0.117689
C7    C     C_R   0.167443 0.647219 0.211435 0.028641
C8    C     C_R   0.198903 0.564453 0.354565 -0.133740
C9    C     C_R   0.228146 0.555417 0.392811 -0.135702
C10   C     C_R   0.215052 0.722333 0.390461 -0.133802
C11   C     C_R   0.188022 0.730260 0.352040 -0.128392
C12   C     C_R   0.184852 0.649079 0.333456 0.032074
C13   C     C_R   0.565430 0.728899 0.648990 -0.128623
C14   C     C_R   0.241802 0.631965 0.410414 0.025510
C15   C     C_R   0.735932 0.025593 0.943331 0.545995
C16   C     C_R   0.745874 0.722927 0.945055 0.549031
C17   C     C_R   0.038329 0.733944 0.948350 0.542319
C18   C     C_R   0.722969 0.039116 0.052836 0.566256
C19   C     C_R   0.733246 0.734594 0.054671 0.543471
C20   C     C_R   0.027732 0.744565 0.057834 0.541358
C21   C     C_R   0.552965 0.709109 0.610909 -0.133994
C22   C     C_R   0.672094 0.678014 0.787539 0.349536
C23   C     C_R   0.663954 0.673166 0.709956 0.332555
C24   C     C_R   0.761673 0.603150 0.848661 -0.169849
C25   C     C_R   0.779147 0.612335 0.887257 -0.148637
C26   C     C_R   0.626573 0.779807 0.889643 -0.113325
C27   C     C_R   0.609505 0.772210 0.850654 0.264351
C28   C     C_R   0.679039 0.683863 0.829589 0.036551
C29   C     C_R   0.610846 0.588688 0.555098 0.545889
C30   C     C_R   0.714065 0.702418 0.907679 -0.021705
C31   C     C_R   0.722824 0.073756 0.905599 0.023866
C32   C     C_R   0.633374 0.101915 0.884462 -0.134154
C33   C     C_R   0.629780 0.123852 0.845660 -0.128245
C34   C     C_R   0.714900 0.119115 0.827476 0.030190
C35   C     C_R   0.801120 0.099603 0.849028 -0.121833
C36   C     C_R   0.805261 0.076718 0.887906 -0.124407
C37   C     C_R   0.728330 0.203158 0.768347 -0.114685
C38   C     C_R   0.720869 0.214246 0.728627 -0.116816
C39   C     C_R   0.702308 0.147945 0.705750 0.055585
C40   C     C_R   0.590361 0.300392 0.553588 0.548013
C41   C     C_R   0.696112 0.067568 0.723039 -0.072229
C42   C     C_R   0.701629 0.057723 0.762736 -0.119550
C43   C     C_R   0.715900 0.126570 0.785606 0.023370
C44   C     C_R   0.592894 0.176438 0.647715 0.272757
C45   C     C_R   0.565948 0.215011 0.610392 -0.116706
C46   C     C_R   0.721591 0.223888 0.605045 -0.145411
C47   C     C_R   0.747797 0.188063 0.642299 -0.176099
C48   C     C_R   0.682161 0.168041 0.664400 0.039575
C49   C     C_R   0.628449 0.241643 0.589299 -0.020401
C50   C     C_R   0.091956 0.697158 0.911279 0.020868
C51   C     C_R   0.299184 0.610758 0.446388 0.541249
C52   C     C_R   0.122305 0.757980 0.891130 -0.123414
C53   C     C_R   0.145903 0.740386 0.852256 -0.117643
C54   C     C_R   0.140697 0.661096 0.832983 0.029909
C55   C     C_R   0.120201 0.594086 0.853759 -0.118421
C56   C     C_R   0.095775 0.612081 0.892693 -0.125962
C57   C     C_R   0.210654 0.561252 0.772108 -0.107405
C58   C     C_R   0.218795 0.557342 0.732223 -0.105099
C59   C     C_R   0.162769 0.646671 0.710550 0.031820
C60   C     C_R   0.096247 0.739193 0.729441 -0.110543
C61   C     C_R   0.088942 0.743216 0.769249 -0.108039
C62   C     C_R   0.607916 0.589309 0.445001 0.584159
C63   C     C_R   0.147349 0.654691 0.790885 0.031683
C64   C     C_R   0.190566 0.723932 0.652073 -0.117125
C65   C     C_R   0.223022 0.715492 0.614177 -0.126200
C66   C     C_R   0.229953 0.551831 0.608273 -0.124744
C67   C     C_R   0.197092 0.560497 0.646187 -0.116982
C68   C     C_R   0.180647 0.644906 0.668836 0.032318
C69   C     C_R   0.246838 0.627531 0.592377 0.020658
C70   C     C_R   0.689799 0.719698 0.090226 0.021217
C71   C     C_R   0.604604 0.803368 0.107716 -0.129630
C72   C     C_R   0.575388 0.795508 0.144839 -0.125634
C73   C     C_R   0.587671 0.303289 0.443607 0.551455
C74   C     C_R   0.630128 0.703654 0.164911 0.030082
C75   C     C_R   0.710288 0.617785 0.146418 -0.118132
C76   C     C_R   0.740115 0.625801 0.109391 -0.124705
C77   C     C_R   0.611713 0.614989 0.221808 -0.121147
C78   C     C_R   0.609850 0.605013 0.261384 -0.116559
C79   C     C_R   0.609318 0.679601 0.286040 0.031891
C80   C     C_R   0.604622 0.767254 0.270456 -0.112919
C81   C     C_R   0.606003 0.777463 0.230820 -0.115412
C82   C     C_R   0.612190 0.700138 0.206236 0.026329
C83   C     C_R   0.557067 0.741117 0.353679 -0.133381
C84   C     C_R   0.632093 0.624590 0.591425 0.025020
C85   C     C_R   0.557172 0.720532 0.393067 0.221796
C86   C     C_R   0.694173 0.544827 0.380569 0.211117
C87   C     C_R   0.688997 0.566065 0.341623 -0.121407
C88   C     C_R   0.618603 0.662656 0.327768 -0.061377
C89   C     C_R   0.623713 0.620310 0.406471 0.031972
C90   C     C_R   0.699948 0.100927 0.088392 0.035399
C91   C     C_R   0.767085 0.134342 0.101985 0.260102
C92   C     C_R   0.755503 0.172389 0.139686 -0.110917
C93   C     C_R   0.679496 0.175844 0.163595 -0.014504
C94   C     C_R   0.608550 0.150324 0.149163 -0.138962
C95   C     C_R   0.727041 0.566195 0.609491 -0.132618
C96   C     C_R   0.618430 0.113436 0.111810 -0.176942
C97   C     C_R   0.603669 0.281345 0.222341 -0.123953
C98   C     C_R   0.599478 0.290262 0.262153 -0.084209
C99   C     C_R   0.671458 0.209526 0.284696 0.104249
C100  C     C_R   0.751587 0.122563 0.266962 -0.077934
C101  C     C_R   0.757086 0.114642 0.227117 -0.121664
C102  C     C_R   0.681755 0.192893 0.204779 0.023928
C103  C     C_R   0.735533 0.210726 0.350706 0.232106
C104  C     C_R   0.714066 0.234260 0.389797 -0.113481
C105  C     C_R   0.548609 0.246472 0.381943 -0.137449
C106  C     C_R   0.739623 0.586221 0.647521 -0.123954
C107  C     C_R   0.565996 0.229537 0.342374 0.222995
C108  C     C_R   0.658615 0.214737 0.326646 0.043498
C109  C     C_R   0.619596 0.255122 0.405378 -0.065503
C110  C     C_R   0.084252 0.707495 0.093920 0.022645
C111  C     C_R   0.094356 0.618761 0.110908 -0.126023
C112  C     C_R   0.128228 0.594985 0.148503 -0.123348
C113  C     C_R   0.152164 0.659699 0.169709 0.032258
C114  C     C_R   0.150535 0.743378 0.151629 -0.122108
C115  C     C_R   0.117464 0.766678 0.113924 -0.134171
C116  C     C_R   0.239171 0.666667 0.229579 -0.122069
Cr1   Cr    Cr6+3 0.421670 0.426920 0.499620 1.005730
Cr2   Cr    Cr6+3 0.427030 0.651190 0.500980 1.014552
Cr3   Cr    Cr6+3 0.651280 0.421870 0.499380 1.018853
Cr4   Cr    Cr6+3 0.910810 0.908010 0.001130 1.016866
Cr5   Cr    Cr6+3 0.682800 0.909890 0.998370 1.009986
Cr6   Cr    Cr6+3 0.908370 0.682300 0.002180 1.011643
H1    H     H_    0.875218 0.055415 0.903440 0.126725
H2    H     H_    0.817560 0.179964 0.654508 0.112399
H3    H     H_    0.725722 0.276960 0.715890 0.116822
H4    H     H_    0.739846 0.256509 0.785689 0.116811
H5    H     H_    0.561909 0.140943 0.829447 0.108501
H6    H     H_    0.685076 0.013689 0.705897 0.125679
H7    H     H_    0.492891 0.230420 0.598934 0.126161
H8    H     H_    0.479131 0.756064 0.597607 0.126718
H9    H     H_    0.771660 0.243168 0.589414 0.136231
H10   H     H_    0.072890 0.563753 0.907459 0.126559
H11   H     H_    0.188073 0.499455 0.658200 0.108884
H12   H     H_    0.256109 0.492153 0.788348 0.109498
H13   H     H_    0.050839 0.808755 0.713454 0.103019
H14   H     H_    0.037646 0.815660 0.783215 0.108155
H15   H     H_    0.179345 0.789530 0.668880 0.106062
H16   H     H_    0.846906 0.551098 0.900470 0.141118
H17   H     H_    0.235282 0.775123 0.602765 0.125125
H18   H     H_    0.116201 0.532205 0.839366 0.109066
H19   H     H_    0.247011 0.483416 0.592083 0.125208
H20   H     H_    0.563999 0.876738 0.093628 0.125603
H21   H     H_    0.805741 0.560002 0.096578 0.129023
H22   H     H_    0.739525 0.505527 0.322015 0.141336
H23   H     H_    0.611016 0.537817 0.272778 0.112027
H24   H     H_    0.512621 0.862316 0.158450 0.101945
H25   H     H_    0.811970 0.536386 0.661311 0.132040
H26   H     H_    0.607634 0.843249 0.219438 0.108923
H27   H     H_    0.506542 0.817157 0.342957 0.108141
H28   H     H_    0.754108 0.546246 0.161455 0.107139
H29   H     H_    0.566076 0.088355 0.102191 0.133964
H30   H     H_    0.538334 0.358846 0.275454 0.105721
H31   H     H_    0.545047 0.342047 0.205303 0.108367
H32   H     H_    0.501177 0.791117 0.663938 0.124958
H33   H     H_    0.807037 0.196826 0.150803 0.105721
H34   H     H_    0.807281 0.059368 0.283862 0.110429
H35   H     H_    0.817184 0.045452 0.213699 0.105615
H36   H     H_    0.769187 0.241562 0.407478 0.155094
H37   H     H_    0.549316 0.153020 0.167576 0.124129
H38   H     H_    0.477038 0.258742 0.393935 0.136839
H39   H     H_    0.070870 0.570645 0.095949 0.127025
H40   H     H_    0.112492 0.834256 0.101272 0.114654
H41   H     H_    0.174597 0.797456 0.336305 0.098375
H42   H     H_    0.815549 0.534103 0.833347 0.139339
H43   H     H_    0.300046 0.682775 0.282845 0.107996
H44   H     H_    0.290316 0.682607 0.213024 0.105307
H45   H     H_    0.131312 0.528587 0.161550 0.101180
H46   H     H_    0.058573 0.608570 0.290363 0.103699
H47   H     H_    0.194708 0.502034 0.340827 0.092525
H48   H     H_    0.168409 0.794760 0.167314 0.100313
H49   H     H_    0.221811 0.783891 0.403689 0.115384
H50   H     H_    0.568296 0.101141 0.897279 0.126046
N1    N     N_R   0.756304 0.613390 0.766650 -0.251076
N2    N     N_R   0.752213 0.610682 0.728643 -0.240622
N3    N     N_R   0.579666 0.737639 0.730824 -0.251008
N4    N     N_R   0.583770 0.740162 0.768838 -0.170110
O1    O     O_R   0.502070 0.323090 0.541280 -0.520283
O2    O     O_R   0.520720 0.641670 0.461580 -0.465176
O3    O     O_R   0.674120 0.502090 0.457500 -0.481147
O4    O     O_R   0.640110 0.338380 0.459630 -0.491185
O5    O     O_3   0.499990 0.499990 0.499990 -0.242213
O6    O     O_R   0.017640 0.822070 0.960410 -0.524795
O7    O     O_R   0.822000 0.989470 0.960340 -0.501025
O8    O     O_R   0.666920 0.007430 0.955290 -0.520805
O9    O     O_R   0.694410 0.812480 0.959650 -0.504249
O10   O     O_R   0.831550 0.656950 0.958960 -0.516006
O11   O     O_R   0.998590 0.685540 0.963930 -0.502009
O12   O     O_R   0.338340 0.520690 0.539540 -0.501682
O13   O     O_R   0.008220 0.831200 0.045060 -0.533367
O14   O     O_R   0.813270 0.997930 0.038810 -0.458753
O15   O     O_R   0.657500 0.016560 0.039940 -0.531631
O16   O     O_R   0.685680 0.820940 0.038120 -0.504077
O17   O     O_R   0.822130 0.666070 0.043610 -0.518093
O18   O     O_R   0.989860 0.694000 0.042400 -0.502035
O19   O     O_3   0.833990 0.833400 0.000560 -0.240851
O20   O     O_R   0.324760 0.674070 0.543580 -0.525689
O21   O     O_R   0.522400 0.640310 0.540110 -0.503343
O22   O     O_R   0.675940 0.500630 0.542210 -0.525622
O23   O     O_R   0.641790 0.337020 0.538150 -0.502166
O24   O     O_R   0.500260 0.324550 0.456580 -0.520340
O25   O     O_R   0.336660 0.522040 0.461020 -0.504272
O26   O     O_R   0.322940 0.675540 0.458880 -0.530725
H51   H     H_    0.789795 0.501275 0.595010 0.127292
H52   H     H_    0.694018 0.996852 0.775703 0.098315
O27   O     O_3   0.525383 0.161615 0.670079 -0.560768
C117  C     C_3   0.508884 0.085301 0.653335 -0.024234
H53   H     H_    0.581675 0.018473 0.642628 0.121184
H54   H     H_    0.453519 0.117762 0.629352 0.128337
C118  C     C_3   0.463599 0.046441 0.683338 -0.368656
H55   H     H_    0.390391 0.110718 0.694556 0.160062
H56   H     H_    0.448611 0.987679 0.670358 0.097159
H57   H     H_    0.517977 0.011465 0.707431 0.152319
H58   H     H_    0.867272 0.096203 0.835312 0.106101
H59   H     H_    0.120968 0.823589 0.904671 0.129834
H60   H     H_    0.271888 0.485236 0.718487 0.118853
H61   H     H_    0.163633 0.791660 0.836795 0.115566
H62   H     H_    0.615259 0.555081 0.203364 0.106795
H63   H     H_    0.604665 0.825476 0.288860 0.112820
O28   O     O_3   0.497408 0.797479 0.419364 -0.545379
C119  C     C_3   0.394321 0.854241 0.407311 0.003998
H64   H     H_    0.367864 0.804330 0.393716 0.125389
H65   H     H_    0.384888 0.914447 0.386886 0.121618
C120  C     C_3   0.326199 0.907304 0.441914 -0.356190
H66   H     H_    0.347755 0.961064 0.455222 0.146705
H67   H     H_    0.244808 0.951014 0.432884 0.073720
H68   H     H_    0.334802 0.849799 0.463431 0.184741
O29   O     O_3   0.760103 0.445702 0.392117 -0.525360
C121  C     C_3   0.857844 0.434633 0.397907 0.013146
H69   H     H_    0.854565 0.489587 0.420240 0.129577
H70   H     H_    0.889059 0.446868 0.370775 0.117509
C122  C     C_3   0.930882 0.326598 0.411485 -0.367746
H71   H     H_    0.938878 0.270287 0.389105 0.165458
H72   H     H_    0.007440 0.317712 0.417135 0.081487
H73   H     H_    0.901203 0.311244 0.438254 0.154465
O30   O     O_3   0.839660 0.134413 0.077554 -0.547779
C123  C     C_3   0.939240 0.069836 0.091857 0.000830
H74   H     H_    0.949558 0.994382 0.100707 0.139349
H75   H     H_    0.955297 0.106591 0.116583 0.109662
C124  C     C_3   0.017178 0.051057 0.060561 -0.345044
H76   H     H_    0.010910 0.124760 0.051996 0.145551
H77   H     H_    0.095850 0.999438 0.071241 0.079937
H78   H     H_    0.003289 0.014991 0.035114 0.183327
O31   O     O_3   0.496267 0.221540 0.318648 -0.555706
C125  C     C_3   0.399078 0.311387 0.320867 -0.016086
H79   H     H_    0.404743 0.382235 0.323696 0.126861
H80   H     H_    0.354982 0.306884 0.345566 0.126914
C126  C     C_3   0.340189 0.319861 0.284359 -0.370620
H81   H     H_    0.330792 0.251668 0.280997 0.156869
H82   H     H_    0.263268 0.389562 0.285556 0.096853
H83   H     H_    0.382254 0.324885 0.259113 0.157342
O32   O     O_3   0.825998 0.196896 0.334928 -0.549345
C127  C     C_3   0.909145 0.105461 0.349044 -0.018088
H84   H     H_    0.894712 0.039904 0.346479 0.119264
H85   H     H_    0.924334 0.115000 0.379542 0.116136
C128  C     C_3   0.004784 0.079032 0.325813 -0.374636
H86   H     H_    0.022455 0.142141 0.328121 0.153133
H87   H     H_    0.070853 0.007639 0.336816 0.084045
H88   H     H_    0.992666 0.067193 0.295228 0.154953
H89   H     H_    0.046350 0.611132 0.220534 0.105735
H90   H     H_    0.246731 0.485531 0.407690 0.118177
H91   H     H_    0.574394 0.849437 0.905052 0.136007
O33   O     O_3   0.525312 0.852028 0.833300 -0.539674
C129  C     C_3   0.549632 0.928056 0.823304 -0.003063
H92   H     H_    0.623093 0.894905 0.806903 0.128728
H93   H     H_    0.555314 0.967667 0.849450 0.122839
C130  C     C_3   0.465160 0.006721 0.798040 -0.363779
H94   H     H_    0.391581 0.045505 0.814154 0.155367
H95   H     H_    0.484926 0.064967 0.788712 0.090675
H96   H     H_    0.455990 0.968509 0.772213 0.180913

loop_
_geom_bond_atom_site_label_1
_geom_bond_atom_site_label_2
_ccdc_geom_bond_type
C129  C130  S    
C87   C88   A    
C128  H87   S    
C45   H7    S    
C101  C102  A    
Cr3   O22   S    
C41   C42   A    
C39   C48   S    
C42   H52   S    
C124  H76   S    
C111  H39   S    
Cr6   O19   S    
C55   C56   A    
C107  O31   S    
C22   N1    A    
Cr5   O16   S    
C119  H65   S    
C81   C82   A    
C57   C58   A    
C120  H68   S    
O32   C127  S    
C39   C41   A    
C23   N2    A    
C98   H30   S    
N1    N2    A    
C8    H47   S    
C99   C108  S    
C105  C107  A    
C46   C49   A    
C26   C27   A    
C94   H37   S    
Cr3   O23   S    
C64   C68   A    
C92   C93   A    
C40   O1    A    
C67   H11   S    
Cr6   O18   S    
C37   H4    S    
Cr4   O14   S    
C3    C116  A    
C31   C36   A    
C80   H63   S    
C5    C6    A    
Cr1   O5    S    
Cr6   O10   S    
C66   C69   A    
C23   N3    A    
C54   C63   S    
C75   H28   S    
C95   H51   S    
O31   C125  S    
C73   O24   A    
C91   O30   S    
C128  H86   S    
C33   H5    S    
C118  H57   S    
C123  H74   S    
C61   C63   A    
C34   C35   A    
Cr3   O5    S    
C5    H46   S    
C2    C13   A    
O29   C121  S    
C110  C111  A    
C79   C88   S    
C105  C109  A    
C78   H23   S    
C46   C47   A    
C73   O4    A    
C17   O6    A    
C14   C51   S    
C123  H75   S    
C8    C9    A    
C117  H53   S    
C15   O7    A    
C50   C52   A    
C107  C108  A    
C70   C71   A    
C97   H31   S    
C87   H22   S    
C92   H33   S    
Cr2   O20   S    
C125  H79   S    
C97   C102  A    
C91   C92   A    
C51   O26   A    
C77   C78   A    
C19   O16   A    
C58   H60   S    
C100  H34   S    
C83   C88   A    
C32   H50   S    
C128  H88   S    
C101  H35   S    
C59   C60   A    
C90   C91   A    
C22   C28   S    
C130  H94   S    
C104  C109  A    
C122  H73   S    
C86   O29   S    
C41   H6    S    
C116  H44   S    
C97   C98   A    
C24   H42   S    
Cr3   O3    S    
C17   O11   A    
C74   C82   S    
Cr1   O25   S    
C20   O18   A    
C119  H64   S    
Cr1   O1    S    
C57   C63   A    
C6    C7    A    
C64   H15   S    
C126  H82   S    
C21   H8    S    
C118  H55   S    
C18   O15   A    
Cr4   O19   S    
C74   C75   A    
C34   C43   S    
C67   C68   A    
C18   C90   S    
C47   C48   A    
C129  H92   S    
C1    O20   A    
C24   C25   A    
C120  H66   S    
C72   C74   A    
C10   C14   A    
O28   C119  S    
C26   H91   S    
C9    C14   A    
C85   C89   A    
C86   C87   A    
C4    C5    A    
C10   H49   S    
C53   C54   A    
C96   H29   S    
Cr5   O9    S    
C15   C31   S    
C2    C106  A    
C1    C69   S    
C55   H18   S    
C27   O33   S    
C60   C61   A    
C35   C36   A    
C65   H17   S    
C7    C116  A    
C37   C43   A    
C17   C50   S    
C94   C96   A    
C75   C76   A    
C20   O13   A    
C62   O2    A    
C37   C38   A    
C19   O17   A    
C95   C106  A    
C66   H19   S    
C59   C68   S    
C72   H24   S    
C22   N4    A    
C99   C100  A    
C21   C84   A    
C45   C49   A    
C8    C12   A    
C81   H26   S    
C15   O8    A    
C2    C23   S    
C11   H41   S    
C33   C34   A    
Cr5   O19   S    
C13   C21   A    
C122  H72   S    
C93   C94   A    
C90   C96   A    
C35   H58   S    
C60   H13   S    
C56   H10   S    
Cr1   O24   S    
C130  H95   S    
C29   C84   S    
C127  C128  S    
C20   C110  S    
Cr2   O2    S    
C122  H71   S    
C52   H59   S    
C29   O22   A    
C53   H61   S    
C29   O21   A    
Cr5   O8    S    
C70   C76   A    
C121  H70   S    
C130  H96   S    
C4    C12   S    
C42   C43   A    
Cr6   O17   S    
C71   H20   S    
C3    C4    A    
C62   O3    A    
C38   H3    S    
C47   H2    S    
C52   C53   A    
C3    H43   S    
C127  H85   S    
C113  C114  A    
C1    O12   A    
C25   C30   A    
C129  H93   S    
O27   C117  S    
C54   C55   A    
C18   O14   A    
O30   C123  S    
C111  C112  A    
C83   C85   A    
C11   C12   A    
C78   C79   A    
C117  H54   S    
C31   C32   A    
C44   C45   A    
C24   C28   A    
C104  H36   S    
C80   C81   A    
C19   C70   S    
C86   C89   A    
C93   C102  S    
Cr5   O15   S    
C114  H48   S    
C126  H81   S    
C120  H67   S    
C114  C115  A    
O33   C129  S    
C40   O23   A    
C123  C124  S    
C16   O9    A    
C103  O32   S    
C64   C65   A    
C7    C113  S    
C115  H40   S    
C25   H16   S    
C58   C59   A    
C71   C72   A    
N3    N4    A    
C16   O10   A    
Cr4   O13   S    
C32   C33   A    
C112  H45   S    
C117  C118  S    
C77   H62   S    
Cr6   O11   S    
C38   C39   A    
Cr4   O6    S    
C77   C82   A    
C46   H9    S    
C65   C69   A    
C36   H1    S    
C62   C89   S    
C118  H56   S    
C125  H80   S    
C66   C67   A    
C124  H78   S    
C112  C113  A    
C73   C109  S    
C121  C122  S    
C85   O28   S    
C57   H12   S    
Cr4   O7    S    
C50   C56   A    
C13   H32   S    
C10   C11   A    
C106  H25   S    
C121  H69   S    
C79   C80   A    
C105  H38   S    
C76   H21   S    
C44   C48   A    
C44   O27   S    
Cr2   O26   S    
C83   H27   S    
C61   H14   S    
C98   C99   A    
Cr3   O4    S    
C9    H90   S    
C51   O25   A    
C103  C104  A    
Cr1   O12   S    
C124  H77   S    
C6    H89   S    
C103  C108  A    
C100  C101  A    
Cr2   O5    S    
C125  C126  S    
Cr2   O21   S    
C16   C30   S    
C110  C115  A    
C84   C95   A    
C119  C120  S    
C40   C49   S    
C126  H83   S    
C127  H84   S    
C27   C28   A    
C26   C30   A    
