data_mof_unit_9231.cif
_audit_creation_date              2012-12-10T18:22:35-0500
_audit_creation_method            fapswitch 2.2
_symmetry_space_group_name_H-M    P1
_symmetry_Int_Tables_number       1
_space_group_crystal_system       triclinic
_cell_length_a                    23.472322
_cell_length_b                    10.653456
_cell_length_c                    9.436271
_cell_angle_alpha                 89.351617
_cell_angle_beta                  90.109038
_cell_angle_gamma                 89.955546
_cell_volume                      2359.49055084

loop_
_atom_site_label
_atom_site_type_symbol
_atom_type_description
_atom_site_fract_x
_atom_site_fract_y
_atom_site_fract_z
_atom_type_partial_charge
C1    C     C_R   0.500572 0.259784 0.500985 0.908369
C2    C     C_R   0.499428 0.740216 0.499015 0.908368
C3    C     C_R   0.239355 0.600823 0.426812 0.441103
C4    C     C_R   0.760645 0.399176 0.573188 0.441103
C5    C     C_R   0.298962 0.601945 0.429706 0.351978
C6    C     C_R   0.701038 0.398055 0.570294 0.351978
C7    C     C_R   0.328898 0.503561 0.500034 -0.369457
C8    C     C_R   0.671102 0.496439 0.499966 -0.369457
C9    C     C_R   0.298727 0.406429 0.569158 0.289421
C10   C     C_R   0.701273 0.593571 0.430842 0.289421
C11   C     C_R   0.239079 0.406606 0.567464 0.376918
C12   C     C_R   0.760921 0.593394 0.432536 0.376918
C13   C     C_R   0.209337 0.503076 0.496702 -0.008058
C14   C     C_R   0.790663 0.496924 0.503298 -0.008058
C15   C     C_3   0.506456 0.036626 0.634493 0.378774
C16   C     C_3   0.493544 0.963374 0.365507 0.378775
C17   C     C_3   0.548244 0.955740 0.550886 0.362214
C18   C     C_3   0.451756 0.044260 0.449114 0.362214
C19   C     C_3   0.498780 0.876548 0.496622 -0.239338
C20   C     C_3   0.501220 0.123452 0.503378 -0.239338
C21   C     C_3   0.455861 0.956962 0.580339 -0.318337
C22   C     C_3   0.544139 0.043038 0.419661 -0.318337
C23   C     C_R   0.391293 0.500518 0.499976 0.887471
C24   C     C_R   0.608707 0.499482 0.500024 0.887471
C25   C     C_3   0.519804 0.604945 0.049620 -0.085219
C26   C     C_3   0.480196 0.395055 0.950380 -0.085219
C27   C     C_3   0.469013 0.589172 0.949390 0.513258
C28   C     C_3   0.530987 0.410828 0.050610 0.513258
C29   C     C_3   0.551146 0.514775 0.949413 -0.133998
C30   C     C_3   0.448854 0.485225 0.050586 -0.133998
C31   C     C_R   0.880397 0.552684 0.612105 0.606812
C32   C     C_R   0.119603 0.447316 0.387895 0.606813
C33   C     C_R   0.880028 0.444016 0.391799 0.615962
C34   C     C_R   0.119972 0.555984 0.608201 0.615962
C35   C     C_R   0.939760 0.443906 0.388363 -0.035483
C36   C     C_R   0.060240 0.556094 0.611637 -0.035483
C37   C     C_R   0.969941 0.499603 0.500484 -0.006737
C38   C     C_R   0.030058 0.500397 0.499516 -0.006737
C39   C     C_R   0.940150 0.554491 0.613577 -0.036458
C40   C     C_R   0.059850 0.445509 0.386423 -0.036458
C41   C     C_R   0.969884 0.389640 0.276034 -0.128014
C42   C     C_R   0.030116 0.610360 0.723966 -0.128014
C43   C     C_R   0.029322 0.390431 0.275075 -0.127772
C44   C     C_R   0.970678 0.609569 0.724925 -0.127772
Cu1   Cu    Cu3+1 0.500010 0.499990 0.643150 1.066029
Cu2   Cu    Cu3+1 0.499990 0.500010 0.356850 1.066029
H1    H     H_    0.947659 0.346398 0.188553 0.201829
H2    H     H_    0.052341 0.653602 0.811447 0.201829
H3    H     H_    0.537206 0.692290 0.095471 0.230545
H4    H     H_    0.462793 0.307710 0.904529 0.230545
H5    H     H_    0.594275 0.526412 0.903093 0.202816
H6    H     H_    0.405725 0.473588 0.096907 0.202816
H7    H     H_    0.051228 0.347789 0.186884 0.203867
H8    H     H_    0.948771 0.652211 0.813116 0.203867
H9    H     H_    0.419307 0.921407 0.643467 0.247157
H10   H     H_    0.580693 0.078593 0.356533 0.247157
N1    N     N_R   0.851797 0.497919 0.502429 -0.449659
N2    N     N_R   0.148203 0.502081 0.497571 -0.449659
N3    N     N_3   0.500040 0.499970 0.858290 -0.235873
N4    N     N_3   0.499960 0.500030 0.141710 -0.235873
O1    O     O_R   0.500030 0.316850 0.620870 -0.567820
O2    O     O_R   0.499970 0.683150 0.379130 -0.567820
O3    O     O_R   0.500000 0.316860 0.379090 -0.528462
O4    O     O_R   0.500000 0.683140 0.620910 -0.528461
O5    O     O_R   0.417890 0.499960 0.620920 -0.528292
O6    O     O_R   0.582110 0.500040 0.379080 -0.528291
O7    O     O_R   0.417870 0.499970 0.379140 -0.581703
O8    O     O_R   0.582130 0.500030 0.620860 -0.581703
O9    O     O_2   0.851019 0.604969 0.719142 -0.471070
O10   O     O_2   0.148981 0.395030 0.280858 -0.471070
O11   O     O_2   0.850294 0.390780 0.285753 -0.473159
O12   O     O_2   0.149706 0.609220 0.714247 -0.473159
Cl1   Cl    Cl    0.424907 0.711144 0.879760 -0.471652
Cl2   Cl    Cl    0.575092 0.288856 0.120240 -0.471652
O13   O     O_3   0.212159 0.698616 0.356604 -0.603231
H11   H     H_    0.170374 0.688645 0.363444 0.334317
O14   O     O_3   0.787841 0.301384 0.643396 -0.603231
H12   H     H_    0.829626 0.311355 0.636556 0.334317
O15   O     O_3   0.325955 0.702380 0.364202 -0.613008
H13   H     H_    0.365941 0.707822 0.396675 0.315377
O16   O     O_3   0.674045 0.297620 0.635798 -0.613007
H14   H     H_    0.634059 0.292178 0.603325 0.315377
Cl3   Cl    Cl    0.335478 0.281241 0.654048 -0.433958
Cl4   Cl    Cl    0.664522 0.718759 0.345952 -0.433958
Cl5   Cl    Cl    0.200805 0.284956 0.653021 -0.411900
Cl6   Cl    Cl    0.799195 0.715043 0.346979 -0.411900
O17   O     O_3   0.598817 0.905042 0.605281 -0.619563
H15   H     H_    0.623338 0.978227 0.626336 0.374942
O18   O     O_3   0.401183 0.094958 0.394719 -0.619563
H16   H     H_    0.376662 0.021773 0.373664 0.374942
Cl7   Cl    Cl    0.517627 0.079788 0.814143 -0.430938
Cl8   Cl    Cl    0.482373 0.920211 0.185857 -0.430938

loop_
_geom_bond_atom_site_label_1
_geom_bond_atom_site_label_2
_ccdc_geom_bond_type
O17   H15   S    
C8    C24   S    
C18   C21   S    
C36   C42   A    
C32   N2    A    
C28   Cl2   S    
O16   H14   S    
O14   H12   S    
Cu2   O2    S    
C6    C8    A    
C28   C29   S    
C35   C37   A    
Cu2   O6    S    
C26   H4    S    
C7    C9    A    
C23   O7    A    
C4    O14   S    
C17   C19   S    
C43   H7    S    
C40   C43   A    
C29   N3    S    
C30   N4    S    
C16   C22   S    
C25   N4    S    
C5    O15   S    
C3    O13   S    
C26   N3    S    
C34   C36   A    
C3    C13   A    
C24   O6    A    
Cu1   O1    S    
C6    O16   S    
C27   C30   S    
C41   C43   A    
C42   C44   A    
C1    O3    A    
C2    O4    A    
C28   N4    S    
C25   C29   S    
C15   C20   S    
C4    C6    A    
C5    C7    A    
C24   O8    A    
C32   O10   S    
C13   N2    S    
Cu1   Cu2   S    
O13   H11   S    
C37   C38   A    
C31   O9    S    
Cu1   O8    S    
C41   H1    S    
C42   H2    S    
C9    C11   A    
C10   C12   A    
C9    Cl3   S    
C16   C18   S    
C12   C14   A    
C26   C30   S    
Cu1   O5    S    
C34   O12   S    
C21   H9    S    
C29   H5    S    
C15   C17   S    
C14   N1    S    
C30   H6    S    
Cu1   N3    S    
C1    C20   S    
C33   N1    A    
Cu2   N4    S    
C2    C19   S    
C17   O17   S    
C18   O18   S    
C20   C22   S    
C3    C5    A    
C1    O1    A    
C22   H10   S    
C16   Cl8   S    
C39   C44   A    
C25   C27   S    
Cu1   O4    S    
C26   C28   S    
C17   C22   S    
C12   Cl6   S    
Cu2   O3    S    
C23   O5    A    
C36   C38   A    
Cu2   O7    S    
C37   C39   A    
C27   N3    S    
C38   C40   A    
C11   C13   A    
C31   N1    A    
C11   Cl5   S    
C16   C19   S    
C7    C23   S    
C10   Cl4   S    
C33   C35   A    
C31   C39   A    
C18   C20   S    
C32   C40   A    
C4    C14   A    
C35   C41   A    
C25   H3    S    
C33   O11   S    
C15   Cl7   S    
O15   H13   S    
C44   H8    S    
C15   C21   S    
C8    C10   A    
C34   N2    A    
O18   H16   S    
C27   Cl1   S    
C2    O2    A    
C19   C21   S    
