data_mof_unit_64818.cif
_audit_creation_date              2012-12-10T18:51:00-0500
_audit_creation_method            fapswitch 2.2
_symmetry_space_group_name_H-M    P1
_symmetry_Int_Tables_number       1
_space_group_crystal_system       triclinic
_cell_length_a                    37.447232
_cell_length_b                    30.259591
_cell_length_c                    21.789476
_cell_angle_alpha                 90.011269
_cell_angle_beta                  126.077877
_cell_angle_gamma                 89.994134
_cell_volume                      19955.2745773

loop_
_atom_site_label
_atom_site_type_symbol
_atom_type_description
_atom_site_fract_x
_atom_site_fract_y
_atom_site_fract_z
_atom_type_partial_charge
C1    C     C_R   0.413683 0.500029 0.914145 0.866257
C2    C     C_R   0.703403 0.461060 0.192700 -0.177522
C3    C     C_R   0.500004 0.134208 0.500022 -0.086788
C4    C     C_R   0.000097 0.726057 0.500292 0.054854
C5    C     C_R   0.500004 0.226067 0.500037 0.055098
C6    C     C_R   0.459627 0.703258 0.455735 0.096022
C7    C     C_R   0.540377 0.703261 0.544190 0.096043
C8    C     C_R   0.959628 0.203258 0.455704 0.096016
C9    C     C_R   0.040375 0.203261 0.544210 0.095997
C10   C     C_R   0.459925 0.657429 0.456106 -0.184087
C11   C     C_R   0.540077 0.657432 0.543844 -0.184161
C12   C     C_R   0.959926 0.157429 0.456076 -0.184224
C13   C     C_R   0.796594 0.961058 0.807242 -0.177757
C14   C     C_R   0.040076 0.157432 0.543864 -0.184123
C15   C     C_R   0.500001 0.634388 0.499984 -0.131163
C16   C     C_R   0.000001 0.134388 0.499980 -0.130843
C17   C     C_R   0.000882 0.296657 0.445101 -0.191862
C18   C     C_R   0.999119 0.296659 0.554828 -0.191855
C19   C     C_R   0.500873 0.796656 0.445095 -0.191917
C20   C     C_R   0.499129 0.796660 0.554842 -0.191893
C21   C     C_R   0.500002 0.726224 0.499958 0.004862
C22   C     C_R   0.000001 0.226224 0.499952 0.004878
C23   C     C_R   1.000000 0.365573 0.499981 -0.031100
C24   C     C_R   0.203404 0.961060 0.192724 -0.177460
C25   C     C_R   0.500000 0.865573 0.499983 -0.031046
C26   C     C_R   0.000861 0.342450 0.445018 -0.193770
C27   C     C_R   0.999139 0.342452 0.554933 -0.193791
C28   C     C_R   0.500852 0.842449 0.445011 -0.193873
C29   C     C_R   0.499149 0.842453 0.554945 -0.193852
C30   C     C_2   0.535112 0.522037 0.753701 0.105498
C31   C     C_2   0.464898 0.522071 0.246323 0.105518
C32   C     C_2   0.035154 0.021968 0.753750 0.105774
C33   C     C_2   0.964913 0.022121 0.246339 0.105245
C34   C     C_2   0.499497 0.511929 0.683372 -0.434299
C35   C     C_R   0.342386 0.460585 0.851554 -0.196520
C36   C     C_2   0.500507 0.511942 0.316640 -0.434324
C37   C     C_2   0.999514 0.011960 0.683383 -0.433896
C38   C     C_2   0.000512 0.011956 0.316646 -0.433026
C39   C     C_2   0.525099 0.533038 0.807396 0.105732
C40   C     C_2   0.474917 0.533066 0.192636 0.105737
C41   C     C_2   0.025166 0.032995 0.807470 0.105694
C42   C     C_2   0.974943 0.033098 0.192660 0.105232
C43   C     C_3   0.582809 0.517595 0.780201 -0.353758
C44   C     C_3   0.617397 0.521281 0.866757 -0.375061
C45   C     C_3   0.664089 0.514958 0.889094 -0.890254
C46   C     C_R   0.657613 0.460586 0.148431 -0.196560
C47   C     C_3   0.417200 0.517649 0.219819 -0.353787
C48   C     C_3   0.382611 0.521355 0.133267 -0.375083
C49   C     C_3   0.335917 0.515043 0.110923 -0.890037
C50   C     C_3   0.082844 0.017345 0.780278 -0.353781
C51   C     C_3   0.117431 0.020866 0.866859 -0.375108
C52   C     C_3   0.164108 0.014354 0.889217 -0.890092
C53   C     C_3   0.917210 0.017772 0.219840 -0.353643
C54   C     C_3   0.882622 0.021523 0.133294 -0.374459
C55   C     C_3   0.835922 0.015274 0.110951 -0.891587
C56   C     C_3   0.035702 0.726178 0.428865 -0.424596
C57   C     C_R   0.842384 0.960583 0.851514 -0.196676
C58   C     C_3   0.003469 0.724347 0.342010 -0.335180
C59   C     C_3   0.021818 0.749016 0.305094 -0.884597
C60   C     C_3   0.964437 0.726081 0.571640 -0.427608
C61   C     C_3   0.996614 0.724077 0.658490 -0.333296
C62   C     C_3   0.978263 0.748675 0.695476 -0.886792
C63   C     C_3   0.536984 0.226113 0.430886 -0.425751
C64   C     C_3   0.505531 0.224114 0.343952 -0.334813
C65   C     C_3   0.524610 0.248728 0.308203 -0.885267
C66   C     C_3   0.463030 0.226125 0.569196 -0.425717
C67   C     C_3   0.494488 0.224138 0.656129 -0.334866
C68   C     C_R   0.157614 0.960585 0.148453 -0.196435
C69   C     C_3   0.475411 0.248756 0.691891 -0.885194
C70   C     C_3   0.526349 0.580766 0.831065 -0.354495
C71   C     C_3   0.535329 0.614921 0.789317 -0.371875
C72   C     C_3   0.534499 0.661895 0.813935 -0.896328
C73   C     C_3   0.473680 0.580791 0.168996 -0.354535
C74   C     C_3   0.464727 0.614955 0.210787 -0.371890
C75   C     C_3   0.465560 0.661926 0.186186 -0.896175
C76   C     C_3   0.026598 0.080709 0.831357 -0.354546
C77   C     C_3   0.035734 0.114848 0.789799 -0.371917
C78   C     C_3   0.035087 0.161818 0.814633 -0.895927
C79   C     C_R   0.365693 0.500291 0.867874 -0.032104
C80   C     C_3   0.973764 0.080825 0.169077 -0.354545
C81   C     C_3   0.964857 0.115003 0.210911 -0.372267
C82   C     C_3   0.965749 0.161971 0.186365 -0.895797
C83   C     C_R   0.634307 0.500292 0.132127 -0.032011
C84   C     C_R   0.865692 0.000292 0.867867 -0.032059
C85   C     C_R   0.586317 0.500029 0.085855 0.866209
C86   C     C_R   0.134308 0.000293 0.132128 -0.032109
C87   C     C_R   0.342836 0.540467 0.840156 -0.197612
C88   C     C_R   0.657165 0.540469 0.159860 -0.197740
C89   C     C_R   0.842836 0.040469 0.840176 -0.197701
C90   C     C_R   0.157164 0.040471 0.159842 -0.197606
C91   C     C_R   0.297115 0.540870 0.795694 -0.182671
C92   C     C_R   0.702886 0.540872 0.204323 -0.182864
C93   C     C_R   0.797115 0.040873 0.795710 -0.182754
C94   C     C_R   0.202886 0.040875 0.204307 -0.182650
C95   C     C_R   0.273927 0.501171 0.778852 0.126597
C96   C     C_R   0.913682 0.000029 0.914143 0.866148
C97   C     C_R   0.726073 0.501173 0.221149 0.126712
C98   C     C_R   0.773926 0.001173 0.778838 0.126651
C99   C     C_R   0.226073 0.001175 0.221154 0.126589
C100  C     C_R   0.203647 0.524113 0.660514 -0.210822
C101  C     C_R   0.796354 0.524117 0.339498 -0.211047
C102  C     C_R   0.703643 0.024140 0.660524 -0.211057
C103  C     C_R   0.296356 0.024139 0.339485 -0.210800
C104  C     C_R   0.157588 0.524633 0.612564 0.110154
C105  C     C_R   0.842413 0.524637 0.387448 0.110141
C106  C     C_R   0.657584 0.024660 0.612579 0.110173
C107  C     C_R   0.086317 0.000029 0.085855 0.866267
C108  C     C_R   0.342415 0.024658 0.387433 0.110186
C109  C     C_R   0.134180 0.501813 0.635031 -0.045747
C110  C     C_R   0.865820 0.501814 0.364970 -0.045739
C111  C     C_R   0.634178 0.001817 0.635029 -0.045644
C112  C     C_R   0.365821 0.001817 0.364970 -0.045705
C113  C     C_R   0.502010 0.499985 0.883052 0.946944
C114  C     C_R   0.497991 0.499993 0.116950 0.946911
C115  C     C_R   0.002007 0.999985 0.883049 0.946858
C116  C     C_R   0.997989 0.999995 0.116949 0.946625
C117  C     C_R   0.156783 0.479764 0.704909 -0.232847
C118  C     C_2   0.511510 0.498545 0.827736 -0.436377
C119  C     C_R   0.843216 0.479763 0.295081 -0.232912
C120  C     C_R   0.656783 0.979746 0.704888 -0.233009
C121  C     C_R   0.343217 0.979749 0.295096 -0.232835
C122  C     C_R   0.202517 0.479469 0.751991 -0.180985
C123  C     C_R   0.797482 0.479469 0.247999 -0.181083
C124  C     C_R   0.702517 0.979452 0.751965 -0.181088
C125  C     C_R   0.297482 0.979456 0.248016 -0.180989
C126  C     C_R   0.225954 0.501576 0.729804 0.083969
C127  C     C_R   0.774046 0.501579 0.270196 0.083997
C128  C     C_R   0.725952 0.001580 0.729794 0.084036
C129  C     C_2   0.488495 0.498566 0.172271 -0.436395
C130  C     C_R   0.274047 0.001582 0.270199 0.083981
C131  C     C_R   0.500000 0.413747 0.500002 0.889810
C132  C     C_R   1.000000 0.913739 0.500104 0.905542
C133  C     C_R   0.500199 0.501916 0.619223 0.934700
C134  C     C_R   0.499801 0.501920 0.380779 0.934706
C135  C     C_R   0.000201 0.001919 0.619225 0.933118
C136  C     C_R   0.999802 0.001933 0.380781 0.944077
C137  C     C_R   0.500000 0.586336 0.499997 0.883156
C138  C     C_R   0.000000 0.086336 0.499997 0.882649
C139  C     C_R   1.000000 0.413608 0.499994 0.867098
C140  C     C_2   0.011474 0.998536 0.827694 -0.436640
C141  C     C_R   0.500000 0.913608 0.499994 0.867059
C142  C     C_R   0.086277 0.500669 0.586504 0.877135
C143  C     C_R   0.913723 0.500669 0.413496 0.877071
C144  C     C_R   0.586276 0.000670 0.586504 0.877049
C145  C     C_R   0.413724 0.000669 0.413496 0.877106
C146  C     C_R   0.999999 0.586322 0.500007 0.881515
C147  C     C_R   0.500001 0.086321 0.500006 0.881354
C148  C     C_R   0.467783 0.296521 0.434285 -0.216670
C149  C     C_R   0.532212 0.296538 0.565773 -0.216708
C150  C     C_R   0.967401 0.796519 0.435164 -0.233969
C151  C     C_2   0.988484 0.998579 0.172261 -0.435586
C152  C     C_R   0.032783 0.796508 0.565777 -0.214933
C153  C     C_R   0.000001 0.274007 0.499960 0.110272
C154  C     C_R   0.500001 0.774007 0.499964 0.110332
C155  C     C_R   0.467754 0.342540 0.433149 0.077430
C156  C     C_R   0.532242 0.342559 0.566889 0.077440
C157  C     C_R   0.967305 0.842438 0.434365 0.066468
C158  C     C_R   0.032792 0.842552 0.566959 0.070747
C159  C     C_R   0.499999 0.365670 0.500013 -0.075239
C160  C     C_R   0.000006 0.865661 0.500509 -0.061470
C161  C     C_R   0.499998 0.273971 0.500033 0.041346
C162  C     C_R   0.296596 0.461059 0.807285 -0.177489
C163  C     C_R   0.000117 0.773941 0.500391 0.048931
C164  C     C_R   0.016526 0.703056 0.465200 0.104906
C165  C     C_R   0.983607 0.703012 0.535237 0.104563
C166  C     C_R   0.517091 0.203031 0.466042 0.105245
C167  C     C_R   0.482921 0.203036 0.534029 0.105239
C168  C     C_R   0.015875 0.657073 0.465024 -0.242619
C169  C     C_R   0.984174 0.657033 0.535174 -0.242213
C170  C     C_R   0.516460 0.157045 0.465938 -0.242278
C171  C     C_R   0.483551 0.157050 0.534118 -0.242287
C172  C     C_R   0.000009 0.634210 0.500052 -0.087276
H1    H     H_    0.139011 0.462241 0.722580 0.157965
H2    H     H_    0.998431 0.278837 0.597249 0.134227
H3    H     H_    0.088119 0.843895 0.677673 0.174119
H4    H     H_    0.027113 0.784408 0.321861 0.263094
H5    H     H_    0.053624 0.734121 0.322465 0.261410
H6    H     H_    0.997945 0.746880 0.242352 0.248129
H7    H     H_    0.997289 0.689393 0.322599 0.221324
H8    H     H_    0.971451 0.739534 0.322924 0.219271
H9    H     H_    0.044083 0.761156 0.447322 0.218285
H10   H     H_    0.067284 0.709840 0.447904 0.193752
H11   H     H_    0.973047 0.784099 0.678931 0.261686
H12   H     H_    0.946414 0.733814 0.677941 0.261314
H13   H     H_    0.501554 0.778832 0.402659 0.134148
H14   H     H_    0.002095 0.746418 0.758210 0.248531
H15   H     H_    0.002708 0.689086 0.677677 0.221369
H16   H     H_    0.028678 0.739223 0.677746 0.219071
H17   H     H_    0.956144 0.761097 0.553406 0.215841
H18   H     H_    0.932805 0.709793 0.552429 0.193758
H19   H     H_    0.529666 0.284152 0.324750 0.262253
H20   H     H_    0.556653 0.233880 0.326739 0.261378
H21   H     H_    0.501295 0.246473 0.245386 0.248329
H22   H     H_    0.499617 0.189125 0.324757 0.221437
H23   H     H_    0.473295 0.239250 0.323713 0.219226
H24   H     H_    0.498448 0.778838 0.597271 0.134181
H25   H     H_    0.545140 0.261128 0.449221 0.217436
H26   H     H_    0.568782 0.209832 0.451059 0.193986
H27   H     H_    0.470349 0.284177 0.675349 0.262252
H28   H     H_    0.443371 0.233904 0.673361 0.261410
H29   H     H_    0.498730 0.246510 0.754707 0.248308
H30   H     H_    0.500407 0.189151 0.675319 0.221439
H31   H     H_    0.526721 0.239276 0.676364 0.219211
H32   H     H_    0.454871 0.261137 0.550868 0.217434
H33   H     H_    0.431234 0.209842 0.549027 0.194015
H34   H     H_    0.414989 0.746125 0.445755 0.192938
H35   H     H_    0.443076 0.278124 0.383926 0.132921
H36   H     H_    0.418121 0.745846 0.371255 0.190147
H37   H     H_    0.585013 0.746112 0.554149 0.192823
H38   H     H_    0.581884 0.745870 0.628653 0.190086
H39   H     H_    0.914978 0.246125 0.445682 0.192910
H40   H     H_    0.918136 0.245845 0.371210 0.190133
H41   H     H_    0.085023 0.246112 0.554209 0.192919
H42   H     H_    0.081870 0.245869 0.628686 0.190164
H43   H     H_    0.501608 0.669391 0.800735 0.261236
H44   H     H_    0.560304 0.665957 0.875867 0.261061
H45   H     H_    0.541099 0.685760 0.783004 0.253671
H46   H     H_    0.556920 0.278156 0.616139 0.132914
H47   H     H_    0.568156 0.609084 0.801388 0.226509
H48   H     H_    0.509681 0.612065 0.727032 0.231639
H49   H     H_    0.493600 0.588991 0.817986 0.220299
H50   H     H_    0.552112 0.583878 0.893252 0.204642
H51   H     H_    0.498445 0.669410 0.199355 0.261125
H52   H     H_    0.439741 0.665991 0.124263 0.261174
H53   H     H_    0.458984 0.685797 0.217155 0.253686
H54   H     H_    0.431906 0.609129 0.198743 0.226565
H55   H     H_    0.490387 0.612097 0.273066 0.231598
H56   H     H_    0.506427 0.589002 0.182061 0.220242
H57   H     H_    0.942184 0.778430 0.384820 0.136407
H58   H     H_    0.447910 0.583908 0.106814 0.204680
H59   H     H_    0.002217 0.169444 0.801430 0.261156
H60   H     H_    0.060892 0.165766 0.876589 0.261173
H61   H     H_    0.041799 0.185671 0.783839 0.253679
H62   H     H_    0.068546 0.108886 0.801878 0.226562
H63   H     H_    0.010090 0.112111 0.727495 0.231626
H64   H     H_    0.993874 0.089056 0.818283 0.220288
H65   H     H_    0.052358 0.083706 0.893565 0.204661
H66   H     H_    0.998646 0.169416 0.199555 0.261196
H67   H     H_    0.939941 0.166066 0.124444 0.261135
H68   H     H_    0.057867 0.778118 0.615789 0.132340
H69   H     H_    0.959196 0.185854 0.217351 0.253643
H70   H     H_    0.932029 0.109221 0.198862 0.226553
H71   H     H_    0.990514 0.112115 0.273186 0.231436
H72   H     H_    0.006521 0.088994 0.182146 0.220327
H73   H     H_    0.947996 0.083973 0.106899 0.204735
H74   H     H_    0.028625 0.639080 0.438696 0.158789
H75   H     H_    0.971387 0.639012 0.561406 0.158781
H76   H     H_    0.529702 0.139022 0.440450 0.158223
H77   H     H_    0.860987 0.462238 0.277401 0.157959
H78   H     H_    0.470310 0.139031 0.559600 0.158231
H79   H     H_    0.001551 0.359654 0.402148 0.156979
H80   H     H_    0.998449 0.359657 0.597812 0.156987
H81   H     H_    0.501534 0.859653 0.402132 0.156917
H82   H     H_    0.498466 0.859659 0.597831 0.156943
H83   H     H_    0.466748 0.514146 0.670800 0.159303
H84   H     H_    0.533258 0.514148 0.329217 0.159272
H85   H     H_    0.966766 0.014275 0.670797 0.158982
H86   H     H_    0.033265 0.014127 0.329221 0.158693
H87   H     H_    0.428740 0.639943 0.421880 0.172860
H88   H     H_    0.639013 0.962207 0.722546 0.157854
H89   H     H_    0.571262 0.639947 0.578080 0.172822
H90   H     H_    0.928742 0.139942 0.421830 0.172770
H91   H     H_    0.071260 0.139947 0.578121 0.172869
H92   H     H_    0.510588 0.465761 0.806104 0.156107
H93   H     H_    0.489409 0.465785 0.193885 0.156125
H94   H     H_    0.010452 0.965758 0.805947 0.155879
H95   H     H_    0.989365 0.965798 0.193845 0.157463
H96   H     H_    0.278837 0.430158 0.794037 0.132727
H97   H     H_    0.721161 0.430159 0.205935 0.132707
H98   H     H_    0.778834 0.930156 0.793969 0.132606
H99   H     H_    0.360987 0.962210 0.277428 0.157936
H100  H     H_    0.221163 0.930159 0.205976 0.132739
H101  H     H_    0.359445 0.429250 0.872748 0.156234
H102  H     H_    0.640553 0.429250 0.127224 0.156216
H103  H     H_    0.859442 0.929246 0.872685 0.156188
H104  H     H_    0.140556 0.929248 0.127263 0.156253
H105  H     H_    0.360187 0.571532 0.852362 0.155555
H106  H     H_    0.639814 0.571534 0.147667 0.155421
H107  H     H_    0.860189 0.071537 0.852407 0.155551
H108  H     H_    0.139813 0.071538 0.147632 0.155559
H109  H     H_    0.279799 0.572097 0.774473 0.130368
H110  H     H_    0.219640 0.462269 0.805871 0.137181
H111  H     H_    0.720202 0.572100 0.225557 0.130094
H112  H     H_    0.779801 0.072103 0.774513 0.130349
H113  H     H_    0.220200 0.072104 0.225524 0.130361
H114  H     H_    0.222189 0.541073 0.643839 0.128311
H115  H     H_    0.777813 0.541080 0.356181 0.128212
H116  H     H_    0.722183 0.041117 0.643861 0.128192
H117  H     H_    0.277816 0.041115 0.356157 0.128317
H118  H     H_    0.667531 0.481742 0.871392 0.261248
H119  H     H_    0.671682 0.540674 0.861963 0.261457
H120  H     H_    0.688275 0.517811 0.951693 0.255383
H121  H     H_    0.780358 0.462267 0.194109 0.137165
H122  H     H_    0.615583 0.554200 0.887202 0.227092
H123  H     H_    0.611021 0.495559 0.895652 0.230849
H124  H     H_    0.587007 0.484402 0.763357 0.218701
H125  H     H_    0.589473 0.543366 0.751790 0.206344
H126  H     H_    0.332464 0.481826 0.128589 0.261223
H127  H     H_    0.328333 0.540757 0.138084 0.261493
H128  H     H_    0.311732 0.517908 0.048327 0.255411
H129  H     H_    0.384437 0.554277 0.112862 0.227138
H130  H     H_    0.388977 0.495636 0.104339 0.230854
H131  H     H_    0.412986 0.484455 0.236621 0.218716
H132  H     H_    0.719642 0.962235 0.805831 0.137064
H133  H     H_    0.410548 0.543418 0.248263 0.206352
H134  H     H_    0.167419 0.981133 0.871356 0.261159
H135  H     H_    0.171828 0.040051 0.862241 0.261503
H136  H     H_    0.188292 0.017086 0.951835 0.255404
H137  H     H_    0.115748 0.053785 0.887459 0.227160
H138  H     H_    0.110934 0.995159 0.895610 0.230823
H139  H     H_    0.086919 0.984145 0.763281 0.218404
H140  H     H_    0.089626 0.043104 0.752013 0.206466
H141  H     H_    0.832428 0.982063 0.128584 0.260800
H142  H     H_    0.828373 0.041002 0.138141 0.261415
H143  H     H_    0.280357 0.962241 0.194138 0.137156
H144  H     H_    0.811738 0.018164 0.048358 0.255585
H145  H     H_    0.884489 0.054441 0.112926 0.227085
H146  H     H_    0.888951 0.995793 0.104330 0.231050
H147  H     H_    0.912948 0.984588 0.236599 0.221032
H148  H     H_    0.910601 0.043553 0.248325 0.205437
H149  H     H_    0.119201 0.575798 0.547827 0.169450
H150  H     H_    0.156887 0.561887 0.532989 0.171773
H151  H     H_    0.880803 0.575801 0.452212 0.169216
H152  H     H_    0.843116 0.561894 0.467042 0.171589
H153  H     H_    0.619189 0.075834 0.547889 0.169271
H154  H     H_    0.001571 0.278833 0.402673 0.134195
H155  H     H_    0.656877 0.061956 0.533038 0.171630
H156  H     H_    0.380811 0.075830 0.452160 0.169245
H157  H     H_    0.343122 0.061950 0.466999 0.171771
H158  H     H_    0.452839 0.380703 0.345091 0.171726
H159  H     H_    0.413250 0.343869 0.321682 0.173409
H160  H     H_    0.547156 0.380762 0.654927 0.171728
H161  H     H_    0.586743 0.343918 0.678356 0.173387
H162  H     H_    0.937589 0.855028 0.323120 0.175908
H163  H     H_    0.903494 0.855918 0.350061 0.184333
H164  H     H_    0.048771 0.880709 0.655675 0.170756
N1    N     N_3   0.134600 0.548843 0.542317 -0.435639
N2    N     N_3   0.581950 0.725822 0.589644 -0.467680
N3    N     N_3   0.918056 0.225817 0.410212 -0.467646
N4    N     N_3   0.081948 0.225823 0.589689 -0.467532
N5    N     N_3   0.865402 0.548848 0.457708 -0.435697
N6    N     N_3   0.634592 0.048892 0.542354 -0.435796
N7    N     N_3   0.365407 0.048888 0.457674 -0.435676
N8    N     N_3   0.435822 0.365873 0.364199 -0.431930
N9    N     N_3   0.564174 0.365911 0.635828 -0.431941
N10   N     N_3   0.934710 0.865369 0.365828 -0.443426
N11   N     N_3   0.065252 0.865893 0.635530 -0.432288
N12   N     N_3   0.418054 0.725817 0.410270 -0.467531
O1    O     O_R   0.434530 0.536960 0.934530 -0.632115
O2    O     O_R   0.934540 0.500010 0.383460 -0.630411
O3    O     O_R   0.565460 0.000010 0.616540 -0.630381
O4    O     O_R   0.434540 0.000010 0.383460 -0.630355
O5    O     O_R   0.000010 0.565480 0.448930 -0.626440
O6    O     O_R   0.999990 0.565480 0.551070 -0.626455
O7    O     O_R   0.500010 0.065480 0.448930 -0.626237
O8    O     O_R   0.499990 0.065480 0.551070 -0.626249
O9    O     O_R   0.434530 0.463040 0.934530 -0.626457
O10   O     O_R   0.565470 0.463040 0.065470 -0.626461
O11   O     O_R   0.934530 0.963040 0.934530 -0.626511
O12   O     O_R   0.565470 0.536960 0.065470 -0.632170
O13   O     O_R   0.065470 0.963040 0.065470 -0.626397
O14   O     O_R   0.500010 0.536960 0.909550 -0.631018
O15   O     O_R   0.499990 0.536960 0.090450 -0.631020
O16   O     O_R   0.000010 0.036960 0.909550 -0.630976
O17   O     O_R   0.999990 0.036960 0.090450 -0.631008
O18   O     O_R   0.500010 0.463040 0.909550 -0.618918
O19   O     O_R   0.499990 0.463040 0.090450 -0.618914
O20   O     O_R   0.000010 0.963040 0.909550 -0.619051
O21   O     O_R   0.999990 0.963040 0.090450 -0.618647
O22   O     O_R   0.536960 0.434530 0.536970 -0.601702
O23   O     O_R   0.934530 0.036960 0.934530 -0.632109
O24   O     O_R   0.463040 0.434530 0.463030 -0.601683
O25   O     O_R   0.036960 0.934530 0.536970 -0.603089
O26   O     O_R   0.963040 0.934530 0.463030 -0.604521
O27   O     O_R   0.536950 0.500000 0.627420 -0.632365
O28   O     O_R   0.463050 0.500000 0.372580 -0.632354
O29   O     O_R   0.036950 0.000000 0.627420 -0.632778
O30   O     O_R   0.963050 0.000000 0.372580 -0.630010
O31   O     O_R   0.463030 0.500000 0.553490 -0.618019
O32   O     O_R   0.536970 0.500000 0.446510 -0.618055
O33   O     O_R   0.963030 0.000000 0.553490 -0.619758
O34   O     O_R   0.065470 0.036960 0.065470 -0.632139
O35   O     O_R   0.036970 0.000000 0.446510 -0.618487
O36   O     O_R   0.536960 0.565470 0.536960 -0.631659
O37   O     O_R   0.463040 0.565470 0.463040 -0.631634
O38   O     O_R   0.036960 0.065470 0.536960 -0.631883
O39   O     O_R   0.963040 0.065470 0.463040 -0.632168
O40   O     O_R   0.000000 0.434540 0.448940 -0.627985
O41   O     O_R   1.000000 0.434540 0.551060 -0.627985
O42   O     O_R   0.500000 0.934540 0.448940 -0.628030
O43   O     O_R   0.500000 0.934540 0.551060 -0.628015
O44   O     O_R   0.065470 0.500010 0.514410 -0.596186
O45   O     O_R   0.934530 0.500010 0.485590 -0.596185
O46   O     O_R   0.565470 0.000010 0.514410 -0.596288
O47   O     O_R   0.434530 0.000010 0.485590 -0.596218
O48   O     O_R   0.065460 0.500010 0.616540 -0.630366
Zn1   Zn    Zn3+2 0.500000 0.549350 0.000000 0.917386
Zn2   Zn    Zn3+2 0.999990 0.500010 0.568190 0.952700
Zn3   Zn    Zn3+2 0.500010 0.000010 0.431810 0.952647
Zn4   Zn    Zn3+2 0.499990 0.000010 0.568190 0.952688
Zn5   Zn    Zn3+2 0.000000 0.049350 0.000000 0.917534
Zn6   Zn    Zn3+2 0.500000 0.450640 0.000000 0.943358
Zn7   Zn    Zn3+2 0.000000 0.950640 0.000000 0.943501
Zn8   Zn    Zn3+2 0.549360 0.500000 0.549360 0.944853
Zn9   Zn    Zn3+2 0.450640 0.500000 0.450640 0.944956
Zn10  Zn    Zn3+2 0.049360 0.000000 0.549360 0.945922
Zn11  Zn    Zn3+2 0.950640 0.000000 0.450640 0.941686
Zn12  Zn    Zn3+2 0.000010 0.500010 0.431810 0.952693

loop_
_geom_bond_atom_site_label_1
_geom_bond_atom_site_label_2
_ccdc_geom_bond_type
C105  C110  A    
O31   Zn9   S    
C87   C91   A    
C125  H143  S    
C17   C153  A    
C165  C169  A    
C79   C87   A    
H162  N10   S    
C150  C163  A    
C46   H102  S    
C85   O12   A    
C37   H85   S    
C92   H111  S    
O13   Zn7   S    
C64   H23   S    
C100  C104  A    
O29   Zn10  S    
C146  O6    A    
H150  N1    S    
C62   H11   S    
C11   C15   A    
C63   C166  S    
C12   C16   A    
C138  O38   A    
C109  C142  S    
C38   C136  S    
C83   C88   A    
C43   H125  S    
C44   H122  S    
C33   C53   S    
C170  H76   S    
C142  O48   A    
C131  O24   A    
C25   C29   A    
C25   C141  S    
C9    N4    S    
C51   C52   S    
C164  C168  A    
C86   C90   A    
C116  O21   A    
O36   Zn8   S    
C167  C171  A    
C78   H59   S    
C120  H88   S    
C6    C21   A    
C61   H16   S    
C71   H48   S    
C63   H25   S    
C76   H65   S    
C5    C161  S    
C81   H70   S    
C43   C44   S    
C156  N9    S    
H161  N9    S    
C12   H90   S    
O43   Zn4   S    
H42   N4    S    
C48   H129  S    
C157  C160  A    
C1    C79   S    
C30   C43   S    
C96   O11   A    
C137  O36   A    
O1    Zn1   S    
C117  H1    S    
C2    H97   S    
H34   N12   S    
C16   C138  S    
C60   C165  S    
O48   Zn2   S    
O20   Zn7   S    
C119  C123  A    
C39   C118  D    
C56   C164  S    
C33   C38   D    
O30   Zn11  S    
C17   H154  S    
C145  O4    A    
C55   H144  S    
C41   C76   S    
C113  O18   A    
C139  O41   A    
C110  C143  S    
C103  C130  A    
C132  O25   A    
C67   H31   S    
C72   H43   S    
C60   H18   S    
C35   H101  S    
C27   H80   S    
C10   H87   S    
C34   H83   S    
C58   H8    S    
C54   H146  S    
C78   H60   S    
C68   H104  S    
C135  O33   A    
C15   C137  S    
C131  O22   A    
C40   C129  D    
C3    C147  S    
C114  O15   A    
C150  C157  A    
C77   H63   S    
C53   C54   S    
C31   C40   S    
C66   C167  S    
C24   H100  S    
C100  C126  A    
C33   C42   S    
O19   Zn6   S    
O7    Zn3   S    
C102  C128  A    
C103  H117  S    
C13   C57   A    
C100  H114  S    
C70   H49   S    
C112  C145  S    
C101  H115  S    
C102  H116  S    
C49   H127  S    
H163  N10   S    
C148  H35   S    
O42   Zn3   S    
C65   H19   S    
C64   H22   S    
C8    C22   A    
C32   C41   S    
O25   Zn10  S    
C148  C155  A    
C50   H139  S    
C62   H14   S    
C51   H138  S    
C66   H32   S    
C143  O2    A    
C66   C67   S    
C115  O20   A    
C38   H86   S    
O44   Zn12  S    
C92   C97   A    
C94   H113  S    
C106  C111  A    
O9    Zn6   S    
C30   C34   D    
C155  C159  A    
C75   H53   S    
C28   H81   S    
C2    C97   A    
C47   H133  S    
C59   H4    S    
C55   H142  S    
C66   H33   S    
C32   C37   D    
H38   N2    S    
C117  C122  A    
C121  C125  A    
C42   C151  D    
C137  O37   A    
O47   Zn4   S    
C123  C127  A    
C8    C12   A    
C82   H67   S    
C37   C135  S    
C45   H119  S    
C4    C163  S    
C76   H64   S    
C5    C166  A    
C131  C159  S    
C19   C28   A    
C142  O44   A    
C135  O29   A    
C18   H2    S    
C157  N10   S    
C75   H52   S    
C166  C170  A    
C53   H148  S    
C140  H94   S    
C123  H121  S    
C54   C55   S    
C31   C36   D    
C59   H6    S    
C36   C134  S    
C110  C119  A    
C96   O23   A    
C112  C121  A    
C74   H54   S    
O10   Zn6   S    
C95   C126  S    
C162  H96   S    
C77   H62   S    
C101  C127  A    
O5    Zn12  S    
C56   C58   S    
C30   C39   S    
C91   H109  S    
C14   C16   A    
C89   C93   A    
C61   C62   S    
C152  C163  A    
C91   C95   A    
C63   C64   S    
C61   H15   S    
H159  N8    S    
C138  O39   A    
C88   H106  S    
C93   H112  S    
H153  N6    S    
C22   C153  S    
C147  O8    A    
C73   C74   S    
O39   Zn11  S    
C107  O13   A    
H40   N3    S    
C109  C117  A    
C77   C78   S    
C25   C28   A    
C42   C80   S    
C141  O43   A    
C136  O30   A    
C36   H84   S    
C115  O16   A    
O46   Zn3   S    
C119  H77   S    
O35   Zn10  S    
C56   H9    S    
O2    Zn12  S    
H41   N4    S    
C1    O9    A    
C89   H107  S    
C71   H47   S    
C40   C73   S    
C90   H108  S    
C23   C26   A    
C107  O34   A    
C114  O19   A    
C69   H28   S    
C70   C71   S    
O15   Zn1   S    
C121  H99   S    
C124  C128  A    
C98   C128  S    
H37   N2    S    
O3    Zn4   S    
C31   C47   S    
C43   H124  S    
O6    Zn2   S    
C158  C160  A    
O24   Zn9   S    
C90   C94   A    
C65   H21   S    
C57   H103  S    
C152  C158  A    
H151  N5    S    
C7    N2    S    
C1    O1    A    
O8    Zn4   S    
C58   C59   S    
C7    C21   A    
C144  O46   A    
C108  C112  A    
C82   H69   S    
C60   C61   S    
C9    C14   A    
O37   Zn9   S    
C146  O5    A    
C8    N3    S    
C50   C51   S    
O28   Zn9   S    
C52   H135  S    
C29   H82   S    
C122  H110  S    
C132  O26   A    
C104  N1    S    
C151  H95   S    
C48   C49   S    
C72   H44   S    
O40   Zn12  S    
C114  C129  S    
C108  N7    S    
C105  N5    S    
C148  C161  A    
H156  N7    S    
C129  H93   S    
C44   C45   S    
C99   C130  S    
O17   Zn5   S    
C6    C10   A    
C73   H56   S    
C3    C170  A    
C63   H26   S    
C64   C65   S    
C81   H71   S    
O27   Zn8   S    
C19   H13   S    
C155  N8    S    
C70   H50   S    
C149  H46   S    
C49   H126  S    
C14   H91   S    
C24   C68   A    
C46   C83   A    
C168  C172  A    
C118  H92   S    
C115  C140  S    
C19   C154  A    
C13   H98   S    
H3    N11   S    
C50   H140  S    
C158  N11   S    
C51   H137  S    
C168  H74   S    
C69   H29   S    
C146  C172  S    
C24   C99   A    
C68   C86   A    
C133  O31   A    
C86   C107  S    
C97   C127  S    
C81   C82   S    
O11   Zn7   S    
C2    C46   A    
C7    C11   A    
C72   H45   S    
O32   Zn8   S    
C171  H78   S    
O41   Zn2   S    
C132  C160  S    
C150  H57   S    
C20   C154  A    
C17   C26   A    
C23   C139  S    
C149  C156  A    
C48   H130  S    
C10   C15   A    
C55   H141  S    
C84   C96   S    
C104  C109  A    
C9    C22   A    
H155  N6    S    
C87   H105  S    
C35   C79   A    
C13   C98   A    
H157  N7    S    
O33   Zn11  S    
C149  C161  A    
C116  O17   A    
C45   H120  S    
C88   C92   A    
C60   H17   S    
C41   C140  D    
C44   H123  S    
O38   Zn10  S    
C21   C154  S    
C4    C164  A    
C103  C108  A    
C54   H145  S    
C23   C27   A    
C134  O32   A    
H160  N9    S    
C11   H89   S    
C75   H51   S    
C145  O47   A    
H152  N5    S    
C53   H147  S    
O26   Zn11  S    
C133  O27   A    
C6    N12   S    
C125  C130  A    
C73   H58   S    
O34   Zn5   S    
C20   C29   A    
C101  C105  A    
C57   C84   A    
C35   C162  A    
C74   C75   S    
C59   H5    S    
C5    C167  A    
C76   C77   S    
C95   C162  A    
C34   C133  S    
C62   H12   S    
H39   N3    S    
C85   O10   A    
C80   H72   S    
C111  C120  A    
C67   C69   S    
C122  C126  A    
C49   H128  S    
C74   H55   S    
C124  H132  S    
H149  N1    S    
C47   C48   S    
C152  H68   S    
C65   H20   S    
C45   H118  S    
C169  H75   S    
C32   C50   S    
C58   H7    S    
C18   C153  A    
C111  C144  S    
C134  O28   A    
C113  O14   A    
C169  C172  A    
C52   H134  S    
C84   C89   A    
O14   Zn1   S    
O16   Zn5   S    
C147  O7    A    
C83   C85   S    
O12   Zn1   S    
C156  C159  A    
C47   H131  S    
C18   C27   A    
C80   C81   S    
C143  O45   A    
H36   N12   S    
C141  O42   A    
O23   Zn5   S    
C136  O35   A    
C139  O40   A    
O21   Zn7   S    
H164  N11   S    
O22   Zn8   S    
C67   H30   S    
O45   Zn2   S    
O4    Zn3   S    
C3    C171  A    
C56   H10   S    
C94   C99   A    
C78   H61   S    
C106  N6    S    
C82   H66   S    
C39   C70   S    
C102  C106  A    
C116  C151  S    
C52   H136  S    
C26   H79   S    
C113  C118  S    
C71   C72   S    
C69   H27   S    
C80   H73   S    
C144  O3    A    
H158  N8    S    
C4    C165  A    
O18   Zn6   S    
C93   C98   A    
C20   H24   S    
C120  C124  A    
