data_mof_unit_5449.cif
_audit_creation_date              2013-03-05T15:53:16-0500
_audit_creation_method            fapswitch 2.2
_symmetry_space_group_name_H-M    P1
_symmetry_Int_Tables_number       1
_space_group_crystal_system       triclinic
_cell_length_a                    17.296499
_cell_length_b                    24.294863
_cell_length_c                    15.028662
_cell_angle_alpha                 89.813001
_cell_angle_beta                  125.522664
_cell_angle_gamma                 90.15019
_cell_volume                      5139.89133451

loop_
_atom_site_label
_atom_site_type_symbol
_atom_site_description
_atom_site_fract_x
_atom_site_fract_y
_atom_site_fract_z
_atom_type_partial_charge
C1    C     C_R   0.356215 0.346867 0.909940 -0.170073
C2    C     C_R   0.648011 0.348181 0.091258 -0.143355
C3    C     C_R   0.855047 0.847045 0.910536 -0.171775
C4    C     C_R   0.187972 0.873688 0.092963 -0.143047
H1    H     H_    0.324866 0.332766 0.827600 0.109615
H2    H     H_    0.681859 0.334166 0.174292 0.105615
H3    H     H_    0.823163 0.832368 0.828395 0.113753
H4    H     H_    0.246755 0.871367 0.177654 0.107830
N1    N     N_R   0.395410 0.396350 0.944340 -0.040099
N2    N     N_R   0.604590 0.396350 0.055660 -0.039312
N3    N     N_R   0.895410 0.896350 0.944340 -0.046007
N4    N     N_R   0.104590 0.896350 0.055660 -0.040426
C5    C     C_R   0.444707 0.650892 0.092305 -0.137449
C6    C     C_R   0.599177 0.622715 0.908827 -0.145317
C7    C     C_R   0.903326 0.124150 0.092677 -0.099113
C8    C     C_R   0.096964 0.127136 0.909807 -0.123973
H5    H     H_    0.494447 0.664047 0.175909 0.142993
H6    H     H_    0.573801 0.624084 0.824442 0.113477
H7    H     H_    0.929082 0.125150 0.177246 0.107521
H8    H     H_    0.069311 0.133953 0.826418 0.105467
N5    N     N_R   0.449930 0.602500 0.055880 -0.046604
N6    N     N_R   0.550070 0.602500 0.944120 -0.048935
N7    N     N_R   0.949930 0.102500 0.055880 -0.036369
N8    N     N_R   0.050070 0.102500 0.944120 -0.045238
C9    C     C_R   0.480606 0.452760 0.248045 -0.165974
C10   C     C_R   0.454241 0.453114 0.699590 -0.134108
C11   C     C_R   0.049642 0.952462 0.300970 -0.126556
C12   C     C_R   0.986942 0.952806 0.720776 -0.134707
H9    H     H_    0.466482 0.410044 0.252489 0.119953
H10   H     H_    0.434640 0.411027 0.672594 0.104678
H11   H     H_    0.070627 0.910375 0.327553 0.111724
H12   H     H_    0.981726 0.910546 0.697776 0.102240
N9    N     N_R   0.525080 0.471030 0.205650 -0.045870
N10   N     N_R   0.474920 0.471030 0.794350 -0.041185
N11   N     N_R   0.025080 0.971030 0.205650 -0.048954
N12   N     N_R   0.974920 0.971030 0.794350 -0.042465
C13   C     C_R   0.231555 0.544729 0.751969 0.330237
C14   C     C_R   0.761359 0.543602 0.298659 0.269527
C15   C     C_R   0.728409 0.043094 0.736802 0.257103
C16   C     C_R   0.257312 0.044880 0.300645 0.274761
N13   N     N_R   0.320260 0.527820 0.794570 -0.093210
N14   N     N_R   0.679740 0.527820 0.205430 -0.090690
N15   N     N_R   0.820260 0.027820 0.794570 -0.086306
N16   N     N_R   0.179740 0.027820 0.205430 -0.091019
C17   C     C_R   0.482754 0.544938 0.252209 -0.075605
C18   C     C_R   0.453649 0.544629 0.697687 -0.121949
C19   C     C_R   0.048227 0.043980 0.303007 -0.120239
C20   C     C_R   0.987299 0.044493 0.718687 -0.100014
H13   H     H_    0.473271 0.587457 0.264536 0.095654
H14   H     H_    0.435093 0.586519 0.668302 0.104527
H15   H     H_    0.064759 0.085895 0.332250 0.133960
H16   H     H_    0.979818 0.085923 0.688869 0.101376
N17   N     N_R   0.524590 0.527840 0.205200 -0.034068
N18   N     N_R   0.475410 0.527840 0.794800 -0.043382
N19   N     N_R   0.024590 0.027840 0.205200 -0.044714
N20   N     N_R   0.975410 0.027840 0.794800 -0.038768
C21   C     C_R   0.232836 0.453062 0.755527 -0.180641
C22   C     C_R   0.761166 0.451910 0.291629 -0.133836
C23   C     C_R   0.734587 0.951680 0.753995 -0.108462
C24   C     C_R   0.256780 0.953363 0.299201 -0.163467
H17   H     H_    0.212797 0.410286 0.745948 0.168925
H18   H     H_    0.775794 0.409027 0.315170 0.160637
H19   H     H_    0.717463 0.909044 0.754615 0.156364
H20   H     H_    0.270345 0.911155 0.327457 0.139316
N21   N     N_R   0.320750 0.471000 0.795020 -0.072375
N22   N     N_R   0.679250 0.471000 0.204980 -0.078289
N23   N     N_R   0.820750 0.971000 0.795020 -0.080478
N24   N     N_R   0.179250 0.971000 0.204980 -0.071648
C25   C     C_R   0.355456 0.653058 0.911535 -0.047866
C26   C     C_R   0.690190 0.625084 0.091447 -0.085564
C27   C     C_R   0.814544 0.130453 0.910972 -0.135365
C28   C     C_R   0.189690 0.126059 0.091899 -0.071785
H21   H     H_    0.324036 0.669846 0.831076 0.155827
H22   H     H_    0.748946 0.631150 0.175377 0.138035
H23   H     H_    0.760793 0.144098 0.829892 0.164346
H24   H     H_    0.249236 0.130776 0.175841 0.136007
N25   N     N_R   0.393620 0.602490 0.942710 -0.065994
N26   N     N_R   0.606380 0.602490 0.057290 -0.034635
N27   N     N_R   0.893620 0.102490 0.942710 -0.047619
N28   N     N_R   0.106380 0.102490 0.057290 -0.035265
C29   C     C_R   0.444416 0.346807 0.091153 -0.137498
C30   C     C_R   0.559034 0.347879 0.909158 -0.118696
C31   C     C_R   0.942024 0.847726 0.092006 -0.119491
C32   C     C_R   0.095853 0.869119 0.910821 -0.115037
H25   H     H_    0.490916 0.332672 0.174729 0.092129
H26   H     H_    0.514418 0.333839 0.825453 0.090056
H27   H     H_    0.986608 0.834192 0.176166 0.089132
H28   H     H_    0.068632 0.857321 0.828756 0.093967
N29   N     N_R   0.451720 0.396350 0.057510 -0.038721
N30   N     N_R   0.548280 0.396350 0.942490 -0.039576
N31   N     N_R   0.951720 0.896350 0.057510 -0.042824
N32   N     N_R   0.048280 0.896350 0.942490 -0.040834
C33   C     C_R   0.385114 0.314665 0.999846 0.085505
C34   C     C_R   0.620678 0.316490 0.001531 0.073751
C35   C     C_R   0.882033 0.815539 0.000751 0.083522
C36   C     C_R   0.185394 0.856709 0.003907 0.071695
C37   C     C_R   0.385132 0.683744 0.003700 0.032125
C38   C     C_R   0.687716 0.637790 0.999405 0.039096
C39   C     C_R   0.816970 0.141739 0.003166 0.027842
C40   C     C_R   0.185961 0.141238 0.000188 0.023273
C41   C     C_R   0.453918 0.498156 0.279608 0.050158
C42   C     C_R   0.440443 0.498392 0.636436 0.065842
C43   C     C_R   0.064022 0.997121 0.363839 0.076712
C44   C     C_R   0.003362 0.997963 0.679176 0.058038
C45   C     C_R   0.175231 0.498874 0.730675 0.064211
C46   C     C_R   0.814898 0.496697 0.352240 0.065532
C47   C     C_R   0.674758 0.996025 0.718596 0.107255
C48   C     C_R   0.307103 0.998882 0.359447 0.041843
Ni1   Ni    Ni4+2 0.435420 0.434270 0.870230 0.199263
Ni2   Ni    Ni4+2 0.564580 0.434270 0.129770 0.204441
Ni3   Ni    Ni4+2 0.935420 0.934270 0.870230 0.209938
Ni4   Ni    Ni4+2 0.064580 0.934270 0.129770 0.201672
Ni5   Ni    Ni4+2 0.563430 0.564580 0.128740 0.280102
Ni6   Ni    Ni4+2 0.436570 0.564580 0.871260 0.243026
Ni7   Ni    Ni4+2 0.063430 0.064580 0.128740 0.287026
Ni8   Ni    Ni4+2 0.936570 0.064580 0.871260 0.276352
C49   C     C_2   0.918563 0.460775 0.540626 0.518775
C50   C     C_2   0.015410 0.456272 0.643210 0.424394
C51   C     C_2   0.419868 0.961858 0.541349 0.391194
C52   C     C_2   0.521756 0.949517 0.614966 0.331126
C53   C     C_2   0.904059 0.494138 0.460056 -0.317825
C54   C     C_2   0.072507 0.500738 0.677099 -0.425159
C55   C     C_2   0.398108 0.997765 0.462497 -0.158503
C56   C     C_2   0.575400 0.992282 0.676887 -0.316840
H29   H     H_    0.959693 0.520753 0.471676 0.153732
H30   H     H_    0.039502 0.540760 0.647425 0.199243
H31   H     H_    0.453153 0.021944 0.466512 0.162075
H32   H     H_    0.542980 0.027824 0.686938 0.150849
C57   C     C_R   0.390234 0.763758 0.108397 0.171725
C58   C     C_R   0.740997 0.687093 0.898489 0.172898
C59   C     C_R   0.766347 0.190552 0.105778 0.156685
C60   C     C_R   0.242732 0.187432 0.899178 0.163181
C61   C     C_R   0.366281 0.741592 0.009389 0.033876
C62   C     C_R   0.761201 0.665853 0.996731 0.027476
C63   C     C_R   0.744501 0.169400 0.007086 0.033055
C64   C     C_R   0.260250 0.168432 0.997649 0.033783
C65   C     C_R   0.308046 0.773023 0.913569 -0.178221
C66   C     C_R   0.847675 0.681280 0.094548 -0.184794
C67   C     C_R   0.656115 0.182984 0.910190 -0.184342
C68   C     C_R   0.347157 0.183203 0.095453 -0.180576
H33   H     H_    0.292846 0.759889 0.836221 0.143597
H34   H     H_    0.870815 0.662977 0.172015 0.144812
H35   H     H_    0.632097 0.164039 0.833058 0.159538
H36   H     H_    0.368821 0.166154 0.173295 0.145598
C69   C     C_R   0.605460 0.227920 0.909517 -0.184711
C70   C     C_R   0.399367 0.227310 0.095541 -0.188749
C71   C     C_R   0.256053 0.817033 0.913588 -0.192065
C72   C     C_R   0.896989 0.727319 0.095437 -0.188349
H37   H     H_    0.544262 0.242254 0.831765 0.138072
H38   H     H_    0.458560 0.242715 0.173531 0.136508
H39   H     H_    0.203208 0.836604 0.836527 0.132822
H40   H     H_    0.956022 0.742779 0.173509 0.135125
C73   C     C_R   0.643636 0.258516 0.005920 0.025367
C74   C     C_R   0.364494 0.256166 0.997684 0.025373
C75   C     C_R   0.262576 0.829038 0.009274 0.032765
C76   C     C_R   0.860211 0.757190 0.998214 0.023120
C77   C     C_R   0.716251 0.234656 0.105173 0.154931
C78   C     C_R   0.294951 0.230458 0.899272 0.151829
C79   C     C_R   0.338733 0.806931 0.108218 0.160672
C80   C     C_R   0.790457 0.731922 0.899365 0.171930
C81   C     C_3   0.803218 0.259508 0.204359 -0.501393
C82   C     C_3   0.211194 0.253250 0.794149 -0.492813
C83   C     C_3   0.343101 0.784107 0.203736 -0.521398
C84   C     C_3   0.704575 0.755155 0.796912 -0.521236
C85   C     C_3   0.399761 0.736984 0.204400 -0.512752
C86   C     C_3   0.650035 0.706611 0.796336 -0.520441
C87   C     C_3   0.858077 0.211338 0.204913 -0.497235
C88   C     C_3   0.153879 0.206670 0.794386 -0.511011
H41   H     H_    0.824662 0.299198 0.187498 0.205143
H42   H     H_    0.187315 0.293981 0.803001 0.211296
H43   H     H_    0.384994 0.810669 0.277235 0.195454
H44   H     H_    0.680379 0.794888 0.809432 0.197941
H45   H     H_    0.799804 0.259735 0.275987 0.201742
H46   H     H_    0.219825 0.250352 0.726553 0.200363
H47   H     H_    0.272689 0.770839 0.182633 0.205732
H48   H     H_    0.711572 0.754428 0.727992 0.201866
H49   H     H_    0.474489 0.736536 0.278335 0.205242
H50   H     H_    0.595567 0.719224 0.809419 0.200657
H51   H     H_    0.910400 0.223879 0.188191 0.210456
H52   H     H_    0.098675 0.221738 0.804305 0.202822
H53   H     H_    0.361542 0.697026 0.184380 0.200101
H54   H     H_    0.624361 0.678561 0.726008 0.197722
H55   H     H_    0.886353 0.183943 0.276971 0.195813
H56   H     H_    0.128597 0.177251 0.726181 0.190799
C89   C     C_R   0.407424 0.446571 0.476433 0.153006
C90   C     C_R   0.410394 0.446259 0.386822 0.157379
C91   C     C_R   0.055463 0.945192 0.584652 0.134616
C92   C     C_R   0.075893 0.944159 0.509502 0.140453
C93   C     C_R   0.406240 0.496371 0.522012 0.035139
C94   C     C_R   0.411483 0.495845 0.339710 0.038717
C95   C     C_R   0.048019 0.995541 0.623310 0.048003
C96   C     C_R   0.091377 0.993554 0.473940 0.065179
C97   C     C_R   0.384103 0.544717 0.459650 -0.183235
C98   C     C_R   0.386355 0.544389 0.368002 -0.197521
C99   C     C_R   0.087841 0.042660 0.610284 -0.205391
C100  C     C_R   0.110556 0.041535 0.535376 -0.196476
H57   H     H_    0.375803 0.583748 0.487560 0.134933
H58   H     H_    0.379825 0.583166 0.328575 0.129083
H59   H     H_    0.092765 0.081268 0.648920 0.125730
H60   H     H_    0.130039 0.079654 0.515740 0.147478
C101  C     C_3   0.477235 0.398215 0.430393 -0.503307
C102  C     C_3   0.473376 0.398495 0.527961 -0.499028
C103  C     C_3   0.007695 0.897608 0.448015 -0.495015
C104  C     C_3   0.986293 0.898620 0.531729 -0.488038
H61   H     H_    0.444312 0.360828 0.379020 0.201422
H62   H     H_    0.542801 0.409115 0.605274 0.201017
H63   H     H_    0.945029 0.909381 0.365215 0.203329
H64   H     H_    0.011552 0.861032 0.583765 0.197734
H65   H     H_    0.549045 0.408718 0.452512 0.203905
H66   H     H_    0.437768 0.361429 0.532156 0.201966
H67   H     H_    0.044414 0.859305 0.451474 0.197174
H68   H     H_    0.911990 0.911073 0.497090 0.205153
N33   N     N_R   0.197359 0.598711 0.708990 0.216701
O1    O     O_R   0.222660 0.622557 0.651975 -0.434294
O2    O     O_R   0.138405 0.623430 0.722747 -0.406095
N34   N     N_R   0.773488 0.595895 0.349370 0.221405
O3    O     O_R   0.701000 0.628447 0.311124 -0.435142
O4    O     O_R   0.855521 0.610401 0.436383 -0.393736
N35   N     N_R   0.692182 0.091597 0.669914 0.221652
O5    O     O_R   0.747937 0.121407 0.657509 -0.412429
O6    O     O_R   0.602360 0.103808 0.614186 -0.398367
N36   N     N_R   0.266053 0.098126 0.346843 0.221130
O7    O     O_R   0.193476 0.131193 0.300702 -0.442000
O8    O     O_R   0.344602 0.112776 0.438285 -0.380398
O9    O     O_3   0.848173 0.424677 0.521424 -0.620365
C105  C     C_3   0.813843 0.440895 0.582872 0.274542
H69   H     H_    0.869909 0.457920 0.664947 0.065226
H70   H     H_    0.785291 0.403712 0.597642 0.130018
C106  C     C_3   0.732807 0.482148 0.518737 -0.936742
H71   H     H_    0.677774 0.465393 0.436644 0.267966
H72   H     H_    0.700103 0.490136 0.562808 0.224785
H73   H     H_    0.759842 0.521608 0.509270 0.274160
O10   O     O_3   0.047567 0.404595 0.690021 -0.611345
C107  C     C_3   0.072734 0.404365 0.798265 0.281282
H74   H     H_    0.051695 0.442203 0.821403 0.076414
H75   H     H_    0.151005 0.399927 0.856503 0.112452
C108  C     C_3   0.026068 0.355332 0.812718 -0.896313
H76   H     H_    0.947677 0.360095 0.759449 0.248614
H77   H     H_    0.044973 0.316701 0.790572 0.263227
H78   H     H_    0.050448 0.352582 0.899164 0.216092
O11   O     O_3   0.349325 0.934126 0.541773 -0.636215
C109  C     C_3   0.384300 0.914670 0.647778 0.261119
H79   H     H_    0.430644 0.945546 0.712364 0.083922
H80   H     H_    0.424323 0.875875 0.664905 0.072858
C110  C     C_3   0.301731 0.902619 0.654650 -0.866118
H81   H     H_    0.248757 0.875816 0.585791 0.255118
H82   H     H_    0.327881 0.881482 0.733018 0.207564
H83   H     H_    0.267969 0.941905 0.651979 0.251988
O12   O     O_3   0.560494 0.911310 0.582132 -0.617184
C111  C     C_3   0.515718 0.859548 0.559109 0.261908
H84   H     H_    0.438011 0.862199 0.494450 0.110705
H85   H     H_    0.529522 0.841166 0.634911 0.085418
C112  C     C_3   0.557854 0.821505 0.517524 -0.895075
H86   H     H_    0.635965 0.818645 0.578617 0.255247
H87   H     H_    0.526255 0.779773 0.502750 0.216508
H88   H     H_    0.542988 0.837860 0.439927 0.257400

loop_
_geom_bond_atom_site_label_1
_geom_bond_atom_site_label_2
_geom_bond_distance
_ccdc_geom_bond_type
C22   H18   1.081443 S    
C87   H51   1.112368 S    
C103  C104  1.503982 S    
N3    N31   1.384326 A    
C61   C65   1.408087 A    
N8    N28   1.384326 A    
C30   C34   1.386677 A    
C2    C34   1.377948 A    
C77   C81   1.498243 S    
C26   N26   1.341332 A    
C85   H49   1.111961 S    
C101  C102  1.506115 S    
C6    H6    1.074736 S    
C25   N25   1.343763 A    
C29   N29   1.337826 A    
C86   H54   1.111948 S    
C3    N3    1.329576 A    
C37   C61   1.457517 S    
N13   Ni6   1.864412 S    
C4    H4    1.073756 S    
C83   H47   1.112433 S    
C89   C102  1.496571 S    
C10   C42   1.378113 A    
C27   N27   1.343291 A    
C58   C62   1.401677 A    
N33   O1    1.300965 A    
N22   Ni2   1.843880 S    
C7    H7    1.075454 S    
C97   C98   1.400378 A    
C18   C42   1.386528 A    
C49   O9    1.386536 S    
O12   C111  1.409715 S    
C84   H48   1.110668 S    
N19   Ni7   1.858942 S    
C1    H1    1.079252 S    
C50   O10   1.386979 S    
C96   C100  1.403718 A    
C15   N35   1.433827 S    
C33   C74   1.460250 S    
C83   C85   1.505205 S    
N34   O4    1.300660 A    
C14   N14   1.343593 A    
C106  H73   1.109992 S    
C3    H3    1.079772 S    
C73   C77   1.399854 A    
C32   C36   1.388728 A    
C112  H86   1.109846 S    
N9    Ni2   1.865487 S    
C36   C75   1.455970 S    
C111  H85   1.111491 S    
C20   C44   1.380390 A    
C108  H77   1.108449 S    
N18   Ni6   1.864226 S    
C42   C93   1.458687 S    
C81   H45   1.111854 S    
C58   C80   1.378515 A    
O11   C109  1.415647 S    
C50   C54   1.347309 D    
C13   N33   1.428849 S    
C21   H17   1.077958 S    
C59   C77   1.376455 A    
C49   C53   1.351944 D    
C58   C86   1.499819 S    
C23   N23   1.323621 A    
C53   H29   1.084791 S    
C4    C36   1.377533 A    
C67   H35   1.082134 S    
C52   O12   1.394455 S    
C10   N10   1.325443 A    
C57   C85   1.500014 S    
C87   H55   1.111954 S    
C104  H64   1.112097 S    
N16   Ni7   1.865860 S    
C66   C72   1.400215 A    
C88   H56   1.111318 S    
C70   C74   1.408118 A    
C26   H22   1.075342 S    
C109  H80   1.108410 S    
C25   H21   1.076170 S    
C86   H50   1.112325 S    
N6    Ni6   1.844132 S    
C4    N4    1.326645 A    
C71   C75   1.407037 A    
O10   C107  1.418768 S    
C16   N16   1.337724 A    
C91   C95   1.393847 A    
C24   C48   1.373334 A    
C64   C68   1.407810 A    
C56   H32   1.088436 S    
C81   H41   1.112343 S    
C90   C94   1.400977 A    
C111  C112  1.520704 S    
C7    N7    1.324520 A    
C19   N19   1.336470 A    
C59   C87   1.498612 S    
N21   Ni1   1.845341 S    
C8    N8    1.327973 A    
C70   H38   1.080963 S    
C108  H76   1.109768 S    
C9    H9    1.076255 S    
C103  H67   1.111971 S    
C2    H2    1.079466 S    
C107  H75   1.110729 S    
C47   C56   1.449929 S    
C102  H66   1.111789 S    
C100  H60   1.081890 S    
C101  H65   1.112399 S    
N17   Ni5   1.858942 S    
C29   H25   1.080343 S    
C6    C38   1.382117 A    
C99   H59   1.081596 S    
N33   O2    1.300841 A    
N9    N17   1.380207 A    
C27   H23   1.068450 S    
C109  C110  1.518221 S    
C19   C43   1.382417 A    
C21   C45   1.393434 A    
N10   Ni1   1.860203 S    
C75   C79   1.398966 A    
C60   C88   1.499004 S    
C12   H12   1.071146 S    
C1    N1    1.328377 A    
N34   O3    1.300986 A    
N6    N26   1.384326 A    
N5    Ni5   1.845702 S    
C41   C94   1.458627 S    
C66   H34   1.081400 S    
C68   C70   1.399037 A    
N35   O5    1.301415 A    
C112  H87   1.110641 S    
C110  H81   1.110824 S    
C94   C98   1.407588 A    
C8    C40   1.379301 A    
N13   N21   1.380453 A    
C95   C99   1.405086 A    
C11   N11   1.313660 A    
N36   O8    1.300807 A    
C88   H52   1.111544 S    
C44   C95   1.434979 S    
C27   C39   1.389788 A    
N29   Ni2   1.836397 S    
N11   N19   1.380207 A    
C23   C47   1.370028 A    
C90   C101  1.500044 S    
C16   N36   1.435686 S    
C22   C46   1.376544 A    
N1    Ni1   1.858427 S    
C32   H28   1.073189 S    
N31   Ni4   1.836397 S    
C54   H30   1.083726 S    
C15   C47   1.394665 A    
C13   C45   1.388144 A    
C106  H71   1.109264 S    
N12   N20   1.380207 A    
C19   H15   1.080381 S    
N15   Ni8   1.864412 S    
N35   O6    1.300737 A    
C29   C33   1.382781 A    
C72   C76   1.407708 A    
C12   C44   1.369419 A    
N14   Ni5   1.865860 S    
C55   H31   1.088894 S    
C82   H42   1.111011 S    
N28   Ni7   1.862824 S    
C17   H13   1.079710 S    
C60   C64   1.403620 A    
C31   C35   1.384954 A    
C14   C46   1.391954 A    
C18   N18   1.340413 A    
N12   Ni3   1.860203 S    
C109  H79   1.115727 S    
N20   Ni8   1.864226 S    
C39   C63   1.454889 S    
C28   H24   1.075101 S    
C5    C37   1.369268 A    
C8    H8    1.062677 S    
C35   C76   1.460917 S    
C89   C93   1.398327 A    
C51   O11   1.395505 S    
N2    N30   1.384325 A    
C81   C87   1.505533 S    
C17   C41   1.393811 A    
C57   C61   1.401200 A    
N15   N23   1.380453 A    
C104  H68   1.112557 S    
N8    Ni8   1.844132 S    
C105  H70   1.110393 S    
C110  H82   1.110699 S    
C11   H11   1.080562 S    
C106  H72   1.110450 S    
C82   C88   1.503861 S    
N16   N24   1.380452 A    
N26   Ni5   1.862824 S    
C107  H74   1.117709 S    
C48   C55   1.429702 S    
N1    N29   1.384326 A    
N25   Ni6   1.868209 S    
C2    N2    1.324148 A    
C80   C84   1.495606 S    
C57   C79   1.376875 A    
C83   H43   1.110730 S    
C22   N22   1.331852 A    
C28   C40   1.390445 A    
N23   Ni3   1.845341 S    
C20   N20   1.335786 A    
C65   H33   1.081229 S    
C108  H78   1.110438 S    
C67   C69   1.397957 A    
C101  H61   1.111920 S    
O9    C105  1.414731 S    
C23   H19   1.078093 S    
C65   C71   1.399023 A    
C72   H40   1.081204 S    
C14   N34   1.434585 S    
C31   H27   1.080624 S    
C62   C66   1.408629 A    
C112  H88   1.110408 S    
C15   N15   1.346706 A    
C51   C52   1.467836 S    
N32   Ni3   1.837974 S    
C74   C78   1.399703 A    
C82   H46   1.111762 S    
C76   C80   1.399542 A    
C51   C55   1.335537 D    
C105  C106  1.526180 S    
C31   N31   1.337300 A    
C92   C96   1.399264 A    
C18   H14   1.080654 S    
C92   C103  1.502508 S    
C59   C63   1.399812 A    
C30   N30   1.336242 A    
C5    H5    1.079824 S    
C24   H20   1.081458 S    
C63   C67   1.406821 A    
C85   H53   1.112365 S    
C6    N6    1.328005 A    
C84   C86   1.505208 S    
C111  H84   1.112316 S    
C69   C73   1.407244 A    
C91   C92   1.365668 A    
C28   N28   1.342201 A    
C30   H26   1.080599 S    
C49   C50   1.481098 S    
C5    N5    1.323742 A    
C7    C39   1.374027 A    
N10   N18   1.380207 A    
C9    C41   1.383817 A    
C89   C90   1.377275 A    
C98   H58   1.081912 S    
C103  H63   1.112235 S    
C34   C73   1.455250 S    
C97   H57   1.081217 S    
C71   H39   1.082286 S    
C91   C104  1.495709 S    
C46   C53   1.450417 S    
C11   C43   1.365273 A    
N4    Ni4   1.863823 S    
N7    Ni7   1.845702 S    
C45   C54   1.464581 S    
N2    Ni2   1.863823 S    
C79   C83   1.497619 S    
C38   C62   1.461724 S    
C21   N21   1.343083 A    
C13   N13   1.338952 A    
N36   O7    1.300843 A    
C60   C78   1.379151 A    
C84   H44   1.112294 S    
C24   N24   1.333958 A    
C78   C82   1.496715 S    
C17   N17   1.338967 A    
C99   C100  1.391642 A    
C93   C97   1.408095 A    
C16   C48   1.373203 A    
C20   H16   1.077491 S    
N4    N32   1.384325 A    
C12   N12   1.316335 A    
C1    C33   1.377646 A    
C105  H69   1.115430 S    
C102  H62   1.112455 S    
C110  H83   1.108615 S    
N5    N25   1.384327 A    
C40   C64   1.463346 S    
N14   N22   1.380452 A    
N3    Ni3   1.858427 S    
C69   H37   1.081234 S    
C3    C35   1.379030 A    
C43   C96   1.434859 S    
C32   N32   1.342120 A    
N30   Ni1   1.837974 S    
N7    N27   1.384327 A    
C68   H36   1.081118 S    
N27   Ni8   1.868209 S    
C107  C108  1.521448 S    
N24   Ni4   1.843880 S    
N11   Ni4   1.865487 S    
C26   C38   1.392493 A    
C9    N9    1.326877 A    
C52   C56   1.343225 D    
C10   H10   1.079859 S    
C25   C37   1.384330 A    
