data_mof_unit_43356.cif
_audit_creation_date              2013-03-05T15:45:45-0500
_audit_creation_method            fapswitch 2.2
_symmetry_space_group_name_H-M    P1
_symmetry_Int_Tables_number       1
_space_group_crystal_system       triclinic
_cell_length_a                    19.002846
_cell_length_b                    11.097707
_cell_length_c                    18.79153
_cell_angle_alpha                 90.184939
_cell_angle_beta                  91.815324
_cell_angle_gamma                 89.884249
_cell_volume                      3960.89168302

loop_
_atom_site_label
_atom_site_type_symbol
_atom_site_description
_atom_site_fract_x
_atom_site_fract_y
_atom_site_fract_z
_atom_type_partial_charge
O1    O     O_R   0.214270 0.709000 0.827470 -0.535718
O2    O     O_R   0.785730 0.709000 0.172530 -0.534031
O3    O     O_R   0.714270 0.209000 0.827470 -0.535719
O4    O     O_R   0.285730 0.209000 0.172530 -0.534028
O5    O     O_R   0.236160 0.958490 0.823130 -0.503737
O6    O     O_R   0.763840 0.958490 0.176870 -0.517602
O7    O     O_R   0.736160 0.458490 0.823130 -0.503741
O8    O     O_R   0.263840 0.458490 0.176870 -0.517598
C1    C     C_R   0.291520 0.999067 0.860776 0.549603
C2    C     C_R   0.710069 0.001856 0.138470 0.550529
C3    C     C_R   0.791520 0.499068 0.860776 0.549602
C4    C     C_R   0.210069 0.501857 0.138470 0.550523
O9    O     O_R   0.332080 0.075470 0.831280 -0.410770
O10   O     O_R   0.667920 0.075470 0.168720 -0.407861
O11   O     O_R   0.832080 0.575470 0.831280 -0.410766
O12   O     O_R   0.167920 0.575470 0.168720 -0.407862
O13   O     O_R   0.446300 0.918110 0.826620 -0.506830
O14   O     O_R   0.553700 0.918110 0.173380 -0.469388
O15   O     O_R   0.946300 0.418110 0.826620 -0.506822
O16   O     O_R   0.053700 0.418110 0.173380 -0.469398
C5    C     C_R   0.469027 0.820367 0.855939 0.534798
C6    C     C_R   0.530363 0.819904 0.144248 0.545064
C7    C     C_R   0.969027 0.320367 0.855939 0.534804
C8    C     C_R   0.030363 0.319904 0.144248 0.545065
O17   O     O_R   0.457110 0.716200 0.831760 -0.449281
O18   O     O_R   0.542890 0.716200 0.168240 -0.473467
O19   O     O_R   0.957110 0.216200 0.831760 -0.449277
O20   O     O_R   0.042890 0.216200 0.168240 -0.473454
O21   O     O_R   0.320980 0.624310 0.823030 -0.431180
O22   O     O_R   0.679020 0.624310 0.176970 -0.433398
O23   O     O_R   0.820980 0.124310 0.823030 -0.431174
O24   O     O_R   0.179020 0.124310 0.176970 -0.433395
C9    C     C_R   0.260488 0.632756 0.850380 0.543190
C10   C     C_R   0.737425 0.640573 0.146661 0.546727
C11   C     C_R   0.760488 0.132756 0.850380 0.543186
C12   C     C_R   0.237425 0.140572 0.146661 0.546731
O25   O     O_R   0.213890 0.710430 0.665540 -0.524157
O26   O     O_R   0.786110 0.710430 0.334460 -0.512313
O27   O     O_R   0.713890 0.210430 0.665540 -0.524152
O28   O     O_R   0.286110 0.210430 0.334460 -0.512392
O29   O     O_R   0.235810 0.959820 0.673020 -0.512363
O30   O     O_R   0.764190 0.959820 0.326980 -0.489420
O31   O     O_R   0.735810 0.459820 0.673020 -0.512361
O32   O     O_R   0.264190 0.459820 0.326980 -0.489465
C13   C     C_R   0.270703 0.045361 0.646488 0.558194
C14   C     C_R   0.728648 0.044972 0.353830 0.560115
C15   C     C_R   0.770706 0.545343 0.646484 0.558154
C16   C     C_R   0.228651 0.544968 0.353829 0.560115
O33   O     O_R   0.331700 0.076900 0.669350 -0.506122
O34   O     O_R   0.668300 0.076900 0.330650 -0.512105
O35   O     O_R   0.831700 0.576900 0.669350 -0.506056
O36   O     O_R   0.168300 0.576900 0.330650 -0.512122
O37   O     O_R   0.445950 0.919440 0.676520 -0.517301
O38   O     O_R   0.554050 0.919440 0.323480 -0.519317
O39   O     O_R   0.945950 0.419440 0.676520 -0.517301
O40   O     O_R   0.054050 0.419440 0.323480 -0.519297
C17   C     C_R   0.469091 0.821986 0.646261 0.559337
C18   C     C_R   0.529037 0.823314 0.352272 0.567259
C19   C     C_R   0.969077 0.321979 0.646253 0.559284
C20   C     C_R   0.029029 0.323309 0.352265 0.567309
O41   O     O_R   0.456730 0.717630 0.669840 -0.427660
O42   O     O_R   0.543270 0.717630 0.330160 -0.438087
O43   O     O_R   0.956730 0.217630 0.669840 -0.427636
O44   O     O_R   0.043270 0.217630 0.330160 -0.438023
O45   O     O_R   0.320620 0.625640 0.672920 -0.471096
O46   O     O_R   0.679380 0.625640 0.327080 -0.488525
O47   O     O_R   0.820620 0.125640 0.672920 -0.471082
O48   O     O_R   0.179380 0.125640 0.327080 -0.488577
C21   C     C_R   0.259742 0.637342 0.644063 0.534270
C22   C     C_R   0.739805 0.640765 0.357332 0.541222
C23   C     C_R   0.759739 0.137326 0.644069 0.534238
C24   C     C_R   0.239813 0.140739 0.357327 0.541250
Cr1   Cr    Cr6+3 0.229630 0.835900 0.747350 1.041985
Cr2   Cr    Cr6+3 0.770370 0.835900 0.252650 1.060809
Cr3   Cr    Cr6+3 0.729630 0.335900 0.747350 1.041995
Cr4   Cr    Cr6+3 0.270370 0.335900 0.252650 1.060788
Cr5   Cr    Cr6+3 0.387410 0.989850 0.750850 1.098321
Cr6   Cr    Cr6+3 0.612590 0.989850 0.249150 1.113947
Cr7   Cr    Cr6+3 0.887410 0.489850 0.750850 1.098343
Cr8   Cr    Cr6+3 0.112590 0.489850 0.249150 1.113970
Cr9   Cr    Cr6+3 0.385800 0.677120 0.749340 1.161865
Cr10  Cr    Cr6+3 0.614200 0.677120 0.250660 1.147680
Cr11  Cr    Cr6+3 0.885800 0.177120 0.749340 1.161858
Cr12  Cr    Cr6+3 0.114200 0.177120 0.250660 1.147691
O49   O     O_3   0.334280 0.834290 0.749180 -0.323823
O50   O     O_3   0.665720 0.834290 0.250820 -0.327419
O51   O     O_3   0.834280 0.334290 0.749180 -0.323854
O52   O     O_3   0.165720 0.334290 0.250820 -0.327395
C25   C     C_3   0.456313 0.900720 0.030874 -0.066098
C26   C     C_3   0.512731 0.928793 0.974846 -0.035887
C27   C     C_3   0.956312 0.400719 0.030874 -0.066099
C28   C     C_3   0.012730 0.428793 0.974846 -0.035887
C29   C     C_3   0.430705 0.792317 0.985976 -0.124351
C30   C     C_3   0.565668 0.844800 0.014046 -0.121241
C31   C     C_3   0.930706 0.292315 0.985976 -0.124350
C32   C     C_3   0.065667 0.344802 0.014046 -0.121241
H1    H     H_    0.374808 0.770914 0.972292 0.124375
H2    H     H_    0.622067 0.858154 0.027811 0.102158
H3    H     H_    0.874809 0.270911 0.972291 0.124377
H4    H     H_    0.122067 0.358156 0.027812 0.102158
H5    H     H_    0.420257 0.955687 0.062885 0.168061
H6    H     H_    0.525462 0.011877 0.946014 0.209703
H7    H     H_    0.920256 0.455685 0.062885 0.168061
H8    H     H_    0.025460 0.511878 0.946014 0.209706
C33   C     C_3   0.487339 0.821301 0.931613 0.026629
C34   C     C_3   0.509276 0.819066 0.068881 0.040290
C35   C     C_3   0.987340 0.321301 0.931613 0.026625
C36   C     C_3   0.009276 0.319065 0.068881 0.040290
C37   C     C_3   0.539585 0.736660 0.969585 -0.110804
C38   C     C_3   0.483758 0.709091 0.025528 -0.070469
C39   C     C_3   0.039586 0.236662 0.969584 -0.110806
C40   C     C_3   0.983759 0.209090 0.025528 -0.070465
H9    H     H_    0.575249 0.674864 0.941356 0.140383
H10   H     H_    0.469700 0.620398 0.048079 0.199664
H11   H     H_    0.075250 0.174867 0.941355 0.140377
H12   H     H_    0.969702 0.120397 0.048078 0.199670
C41   C     C_R   0.297114 0.510091 0.961036 0.216343
C42   C     C_R   0.703792 0.514430 0.036120 0.186557
C43   C     C_R   0.797114 0.010089 0.961036 0.216343
C44   C     C_R   0.203793 0.014427 0.036120 0.186554
C45   C     C_R   0.282915 0.488173 0.032370 -0.164867
C46   C     C_R   0.722241 0.480954 0.967511 -0.162735
C47   C     C_R   0.782915 0.988171 0.032370 -0.164867
C48   C     C_R   0.222242 0.980951 0.967512 -0.162738
H13   H     H_    0.321954 0.442429 0.065516 0.201257
H14   H     H_    0.689697 0.416831 0.938137 0.211338
H15   H     H_    0.821955 0.942429 0.065516 0.201254
H16   H     H_    0.189698 0.916828 0.938137 0.211335
C49   C     C_R   0.220039 0.526617 0.062191 -0.056022
C50   C     C_R   0.781843 0.527451 0.935712 -0.062732
C51   C     C_R   0.720039 0.026616 0.062191 -0.056021
C52   C     C_R   0.281844 0.027449 0.935712 -0.062731
C53   C     C_R   0.167213 0.579562 0.016189 0.158267
C54   C     C_R   0.827912 0.604011 0.976260 0.200661
C55   C     C_R   0.667213 0.079560 0.016189 0.158264
C56   C     C_R   0.327913 0.104008 0.976260 0.200660
C57   C     C_R   0.180264 0.589627 0.944163 -0.168443
C58   C     C_R   0.805812 0.643559 0.041284 -0.145999
C59   C     C_R   0.680263 0.089625 0.944163 -0.168443
C60   C     C_R   0.305814 0.143555 0.041285 -0.146000
H17   H     H_    0.138897 0.623286 0.908590 0.191993
H18   H     H_    0.838141 0.711399 0.067598 0.224677
H19   H     H_    0.638896 0.123284 0.908589 0.191991
H20   H     H_    0.338144 0.211393 0.067600 0.224679
C61   C     C_R   0.246260 0.569482 0.917412 -0.029103
C62   C     C_R   0.747900 0.595048 0.074663 -0.054128
C63   C     C_R   0.746259 0.069481 0.917411 -0.029103
C64   C     C_R   0.247901 0.095045 0.074664 -0.054128
C65   C     C_R   0.494966 0.714117 0.532349 0.241441
C66   C     C_R   0.483719 0.719885 0.458438 0.240746
C67   C     C_R   0.994906 0.214070 0.532327 0.241359
C68   C     C_R   0.983683 0.219840 0.458410 0.240556
C69   C     C_R   0.498967 0.829113 0.423393 -0.023030
C70   C     C_R   0.493628 0.823669 0.572498 -0.029343
C71   C     C_R   0.998937 0.329084 0.423375 -0.023089
C72   C     C_R   0.993583 0.323634 0.572478 -0.029377
C73   C     C_R   0.505068 0.936044 0.463201 -0.193152
C74   C     C_R   0.497989 0.933983 0.536723 -0.194882
C75   C     C_R   0.005023 0.436011 0.463184 -0.193100
C76   C     C_R   0.997944 0.433946 0.536703 -0.194856
H21   H     H_    0.515913 0.021029 0.437619 0.175606
H22   H     H_    0.497330 0.018426 0.565760 0.172179
H23   H     H_    0.015867 0.521000 0.437606 0.175622
H24   H     H_    0.997290 0.518390 0.565741 0.172216
C77   C     C_R   0.273826 0.699453 0.522934 -0.094245
C78   C     C_R   0.786726 0.691024 0.474907 -0.133562
C79   C     C_R   0.774158 0.199174 0.522948 -0.094056
C80   C     C_R   0.287000 0.190671 0.474857 -0.133723
H25   H     H_    0.293811 0.785461 0.542091 0.100352
H26   H     H_    0.816190 0.765545 0.453679 0.187734
H27   H     H_    0.794407 0.285004 0.542106 0.100183
H28   H     H_    0.316657 0.264951 0.453606 0.187775
C81   C     C_R   0.266278 0.679567 0.450584 -0.082499
C82   C     C_R   0.785932 0.679452 0.547268 -0.135933
C83   C     C_R   0.766581 0.179318 0.450597 -0.082493
C84   C     C_R   0.286157 0.179247 0.547219 -0.136144
H29   H     H_    0.279366 0.749800 0.413348 0.137171
H30   H     H_    0.817242 0.740787 0.580197 0.167671
H31   H     H_    0.779932 0.249389 0.413363 0.137453
H32   H     H_    0.317616 0.240435 0.580105 0.167771
C85   C     C_R   0.242043 0.567822 0.427215 0.092385
C86   C     C_R   0.750074 0.583130 0.576273 0.039671
C87   C     C_R   0.741998 0.067795 0.427226 0.092177
C88   C     C_R   0.250081 0.083207 0.576282 0.039463
C89   C     C_R   0.222779 0.477585 0.474911 -0.105359
C90   C     C_R   0.709721 0.504514 0.532859 -0.083223
C91   C     C_R   0.722369 0.977808 0.474918 -0.105832
C92   C     C_R   0.209535 0.004809 0.532912 -0.083340
H33   H     H_    0.200757 0.393043 0.455763 0.111654
H34   H     H_    0.682965 0.427568 0.554685 0.174612
H35   H     H_    0.700095 0.893456 0.455766 0.111622
H36   H     H_    0.182622 0.928060 0.554780 0.174892
C93   C     C_R   0.229300 0.498099 0.547280 -0.126764
C94   C     C_R   0.708098 0.519197 0.459965 -0.111871
C95   C     C_R   0.728892 0.998322 0.547288 -0.127149
C96   C     C_R   0.207924 0.019412 0.460010 -0.112051
H37   H     H_    0.213744 0.429544 0.584563 0.118588
H38   H     H_    0.676809 0.458850 0.426424 0.166682
H39   H     H_    0.713052 0.929973 0.584567 0.118667
H40   H     H_    0.176464 0.959252 0.426507 0.167049
C97   C     C_R   0.254535 0.609106 0.570557 0.072231
C98   C     C_R   0.747942 0.610879 0.431002 0.014753
C99   C     C_R   0.754533 0.109056 0.570568 0.072279
C100  C     C_R   0.247982 0.110777 0.430991 0.014579
S1    S     S_3+6 0.375215 0.449511 0.928856 0.017156
O53   O     O_2   0.358348 0.368887 0.866269 -0.220032
O54   O     O_2   0.423927 0.546503 0.907112 -0.288738
O55   O     O_3   0.416888 0.373400 0.993845 -0.501225
H41   H     H_    0.460811 0.347922 0.971731 0.452427
S2    S     S_3+6 0.626189 0.447674 0.066004 0.050473
O56   O     O_2   0.645899 0.333007 0.103651 -0.189953
O57   O     O_2   0.582317 0.521358 0.114171 -0.249907
O58   O     O_3   0.576778 0.420506 0.992452 -0.493574
H42   H     H_    0.548748 0.494058 0.984025 0.350384
S3    S     S_3+6 0.875216 0.949511 0.928855 0.017158
O59   O     O_2   0.858349 0.868887 0.866269 -0.220025
O60   O     O_2   0.923927 0.046504 0.907112 -0.288738
O61   O     O_3   0.916889 0.873401 0.993845 -0.501223
H43   H     H_    0.960811 0.847923 0.971731 0.452428
S4    S     S_3+6 0.126189 0.947673 0.066004 0.050474
O62   O     O_2   0.145899 0.833006 0.103653 -0.189952
O63   O     O_2   0.082317 0.021359 0.114170 -0.249904
O64   O     O_3   0.076778 0.920503 0.992452 -0.493571
H44   H     H_    0.048753 0.994058 0.984021 0.350377
N1    N     N_R   0.101201 0.629982 0.037867 0.129074
O65   O     O_R   0.066338 0.589513 0.090624 -0.256289
O66   O     O_R   0.068071 0.702581 0.994590 -0.239432
N2    N     N_R   0.901146 0.628571 0.962700 0.073331
O67   O     O_R   0.925246 0.654856 0.900813 -0.255816
O68   O     O_R   0.942840 0.648227 0.017644 -0.302726
N3    N     N_R   0.601202 0.129982 0.037867 0.129075
O69   O     O_R   0.566338 0.089511 0.090624 -0.256292
O70   O     O_R   0.568073 0.202583 0.994591 -0.239427
N4    N     N_R   0.401147 0.128570 0.962699 0.073332
O71   O     O_R   0.425247 0.154855 0.900812 -0.255816
O72   O     O_R   0.442842 0.148227 0.017643 -0.302728
S5    S     S_3+6 0.519473 0.572413 0.571526 0.067008
O73   O     O_2   0.455303 0.509909 0.598110 -0.224232
O74   O     O_2   0.553497 0.492041 0.518223 -0.259917
O75   O     O_3   0.577132 0.595704 0.639987 -0.532938
H45   H     H_    0.585570 0.514948 0.660907 0.364671
S6    S     S_3+6 0.444615 0.595281 0.411091 0.064627
O76   O     O_2   0.500662 0.512211 0.384398 -0.223554
O77   O     O_2   0.397810 0.524953 0.458572 -0.247893
O78   O     O_3   0.396404 0.647806 0.341176 -0.556255
H46   H     H_    0.391646 0.578790 0.307839 0.373008
S7    S     S_3+6 0.019341 0.072332 0.571519 0.066958
O79   O     O_2   0.955139 0.009953 0.598123 -0.224231
O80   O     O_2   0.053310 0.991862 0.518230 -0.260000
O81   O     O_3   0.077026 0.095556 0.639968 -0.532932
H47   H     H_    0.085424 0.014794 0.660896 0.364600
S8    S     S_3+6 0.944660 0.095184 0.411027 0.064545
O82   O     O_2   0.000761 0.012204 0.384354 -0.223564
O83   O     O_2   0.897862 0.024756 0.458466 -0.247807
O84   O     O_3   0.896466 0.147659 0.341087 -0.556380
H48   H     H_    0.891699 0.078608 0.307776 0.373048

loop_
_geom_bond_atom_site_label_1
_geom_bond_atom_site_label_2
_geom_bond_distance
_ccdc_geom_bond_type
C18   O42   1.274393 A    
C74   H22   1.083140 S    
Cr11  O51   1.998445 S    
O4    C12   1.275825 A    
C53   C57   1.388603 A    
C73   C74   1.392626 A    
O39   C19   1.302470 A    
O20   Cr12  2.071749 S    
C59   H19   1.082340 S    
O64   H44   0.984286 S    
C28   C32   1.541791 S    
C56   C60   1.374889 A    
C19   C72   1.476571 S    
C43   C47   1.397902 A    
C60   C64   1.393810 A    
N2    O68   1.299538 A    
O1    C9    1.283759 A    
O46   C22   1.276171 A    
S1    O53   1.502327 D    
C43   S3    1.752302 S    
C84   H32   1.084387 S    
C59   C63   1.383325 A    
C42   S2    1.760251 S    
C5    O17   1.259061 A    
C32   H4    1.104696 S    
C93   H37   1.083747 S    
C76   H24   1.083141 S    
C83   H31   1.083599 S    
C57   C61   1.383323 A    
C25   H5    1.106995 S    
C53   N1    1.442455 S    
C70   C74   1.402440 A    
C51   C55   1.430428 A    
C31   C40   1.541115 S    
S3    O60   1.487692 D    
C78   C98   1.405115 A    
C16   C85   1.416552 S    
C31   H3    1.110919 S    
S7    O81   1.682905 S    
C65   C66   1.400187 A    
C95   C99   1.387229 A    
C78   H26   1.083840 S    
C30   H2    1.104698 S    
C77   C81   1.379683 A    
C94   C98   1.391936 A    
O21   C9    1.277110 A    
O8    Cr4   1.973509 S    
C46   C50   1.397622 A    
O23   Cr11  1.973442 S    
C44   S4    1.760252 S    
C48   C52   1.397624 A    
C41   C61   1.411041 A    
C86   C90   1.404719 A    
C73   H21   1.083076 S    
O32   Cr4   1.962999 S    
C1    O9    1.285666 A    
C2    C51   1.478522 S    
S4    O62   1.499085 D    
C77   C97   1.403069 A    
C29   C33   1.542229 S    
C45   H13   1.080400 S    
C47   H15   1.080402 S    
C12   C64   1.462057 S    
O11   Cr7   2.092859 S    
C4    O12   1.286563 A    
O55   H41   0.984652 S    
C66   C69   1.416220 A    
C56   N4    1.449275 S    
C25   C34   1.516302 S    
O47   C23   1.268575 A    
S6    O77   1.501300 D    
C67   C68   1.400251 A    
O6    Cr2   1.973509 S    
C8    C36   1.459584 S    
C39   H11   1.108846 S    
O27   Cr3   2.085774 S    
O7    Cr3   1.967508 S    
C96   C100  1.392086 A    
C68   S8    1.791883 S    
O3    Cr3   2.092476 S    
Cr4   O52   1.987971 S    
C91   H35   1.083859 S    
O2    Cr2   2.085128 S    
C52   C56   1.423175 A    
C29   C38   1.541115 S    
C48   H16   1.082205 S    
C47   C51   1.400872 A    
O2    C10   1.275825 A    
S7    O80   1.499931 D    
C54   C58   1.374886 A    
O42   Cr10  2.090808 S    
Cr5   O49   2.001331 S    
O18   Cr10  2.071749 S    
C55   N3    1.442456 S    
S5    O73   1.503963 D    
C31   C35   1.542229 S    
C25   C29   1.538079 S    
C82   C86   1.390793 A    
C50   C54   1.423173 A    
N4    O72   1.299538 A    
C15   C86   1.428431 S    
O34   Cr6   2.071565 S    
C67   S7    1.793062 S    
S4    O63   1.491044 D    
N2    O67   1.297589 A    
Cr9   O49   1.998445 S    
C26   C30   1.541790 S    
C95   H39   1.083707 S    
C7    O19   1.259061 A    
S1    O54   1.487697 D    
C77   H25   1.084186 S    
C21   C97   1.415849 S    
O24   Cr12  1.969304 S    
C32   C39   1.534159 S    
O9    Cr5   2.092859 S    
C78   C82   1.366799 A    
S6    O78   1.682773 S    
O30   Cr2   1.962999 S    
C4    C49   1.478520 S    
O22   C10   1.276822 A    
C71   C75   1.403733 A    
O48   Cr12  1.952566 S    
O14   Cr6   1.951622 S    
Cr12  O52   2.001877 S    
C42   C62   1.409940 A    
O36   Cr8   2.071565 S    
C90   H34   1.083122 S    
C58   H18   1.081184 S    
S3    O61   1.665741 S    
C45   C49   1.400872 A    
C96   H40   1.083773 S    
O16   Cr8   1.951622 S    
O15   C7    1.285918 A    
C15   O35   1.272723 A    
C1    C52   1.459207 S    
O26   Cr2   2.091586 S    
O81   H47   0.990531 S    
O58   H42   0.984281 S    
C27   C31   1.538079 S    
C22   C98   1.428146 S    
O13   C5    1.285918 A    
O28   Cr4   2.091586 S    
C8    O20   1.256938 A    
O48   C24   1.276226 A    
O12   Cr8   2.099206 S    
C54   N2    1.449273 S    
C14   C87   1.416555 S    
C46   H14   1.082202 S    
O37   Cr5   1.971529 S    
C65   C70   1.429383 A    
C42   C46   1.395757 A    
O5    C1    1.327649 A    
C18   C69   1.471219 S    
C87   C91   1.402882 A    
O46   Cr10  1.952566 S    
O39   Cr7   1.971529 S    
O25   C21   1.263844 A    
C28   C35   1.512316 S    
O7    C3    1.327647 A    
C75   C76   1.392570 A    
C68   C71   1.416306 A    
C13   O33   1.272683 A    
O8    C4    1.322842 A    
C7    C35   1.453250 S    
C84   C88   1.390914 A    
O13   Cr5   1.953525 S    
N1    O65   1.291964 A    
C81   H29   1.083644 S    
N3    O70   1.294817 A    
C11   C63   1.476789 S    
C67   C72   1.429499 A    
Cr2   O50   1.987971 S    
O15   Cr7   1.953525 S    
O35   Cr7   2.074181 S    
Cr1   O49   1.987901 S    
Cr7   O51   2.001331 S    
C9    C61   1.476788 S    
C89   H33   1.083846 S    
C23   C99   1.415845 S    
S8    O84   1.682771 S    
C49   C53   1.430428 A    
S2    O57   1.491042 D    
Cr3   O51   1.987901 S    
O26   C22   1.259199 A    
N3    O69   1.291966 A    
O21   Cr9   1.973442 S    
C44   C64   1.409943 A    
C3    O11   1.285667 A    
S5    O74   1.499945 D    
O30   C14   1.272666 A    
C80   H28   1.083918 S    
C75   H23   1.083079 S    
C19   O43   1.266316 A    
C81   C85   1.388813 A    
C66   S6    1.791725 S    
N4    O71   1.297588 A    
O3    C11   1.283759 A    
O84   H48   0.990381 S    
C3    C50   1.459206 S    
O24   C12   1.276823 A    
C38   H10   1.109363 S    
C40   H12   1.109364 S    
C79   C99   1.403022 A    
O47   Cr11  1.951320 S    
O31   Cr3   1.969638 S    
S8    O83   1.501308 D    
O38   C18   1.295671 A    
S1    O55   1.665741 S    
C36   C40   1.536018 S    
C80   C84   1.366703 A    
C57   H17   1.082337 S    
C30   C34   1.537790 S    
C85   C89   1.402937 A    
O22   Cr10  1.969304 S    
O28   C24   1.259231 A    
C39   C40   1.548637 S    
C91   C95   1.379877 A    
O14   C6    1.291075 A    
C83   C87   1.388768 A    
C35   C39   1.527357 S    
C27   C36   1.516304 S    
C90   C94   1.379324 A    
C82   H30   1.084345 S    
C60   H20   1.081188 S    
C26   C33   1.512315 S    
C27   H7    1.106994 S    
O31   C15   1.271120 A    
O17   Cr9   2.070802 S    
O37   C17   1.302421 A    
O6    C2    1.322841 A    
C41   S1    1.752306 S    
C79   H27   1.084181 S    
S7    O79   1.503971 D    
C17   O41   1.266385 A    
C72   C76   1.402411 A    
C37   H9    1.108845 S    
S2    O58   1.673058 S    
O5    Cr1   1.967508 S    
C17   C70   1.476567 S    
C14   O34   1.264164 A    
C30   C37   1.534160 S    
O25   Cr1   2.085774 S    
O40   Cr8   1.976877 S    
C92   H36   1.083151 S    
C20   O44   1.274334 A    
C55   C59   1.388603 A    
O1    Cr1   2.092476 S    
C26   H6    1.102118 S    
O19   Cr11  2.070802 S    
C20   C71   1.471189 S    
Cr8   O52   1.997983 S    
O32   C16   1.272596 A    
O41   Cr9   2.094049 S    
C37   C38   1.548637 S    
Cr10  O50   2.001877 S    
C10   C62   1.462054 S    
Cr6   O50   1.997983 S    
O61   H43   0.984650 S    
C94   H38   1.083724 S    
C93   C97   1.387276 A    
C33   C37   1.527358 S    
C58   C62   1.393809 A    
O45   C21   1.268588 A    
S6    O76   1.504224 D    
O75   H45   0.990527 S    
N1    O66   1.294819 A    
C29   H1    1.110919 S    
O33   Cr5   2.074181 S    
C79   C83   1.379693 A    
O23   C11   1.277112 A    
O10   Cr6   2.099206 S    
S3    O59   1.502324 D    
C69   C73   1.403766 A    
C80   C100  1.405192 A    
C24   C100  1.428290 S    
O4    Cr4   2.085128 S    
C6    C34   1.459584 S    
C28   H8    1.102116 S    
O29   Cr1   1.969638 S    
C88   C92   1.404708 A    
C16   O36   1.264217 A    
O40   C20   1.295718 A    
C92   C96   1.379377 A    
O44   Cr12  2.090808 S    
C34   C38   1.536017 S    
S2    O56   1.499081 D    
C6    O18   1.256938 A    
S5    O75   1.682894 S    
O43   Cr11  2.094049 S    
C65   S5    1.792960 S    
O29   C13   1.271208 A    
O45   Cr9   1.951320 S    
C32   C36   1.537792 S    
C89   C93   1.379866 A    
C41   C45   1.397900 A    
C25   C26   1.558839 S    
O78   H46   0.990382 S    
C43   C63   1.411045 A    
O16   C8    1.291075 A    
S4    O64   1.673058 S    
C5    C33   1.453251 S    
C27   C28   1.558837 S    
C44   C48   1.395759 A    
C13   C88   1.428507 S    
C2    O10   1.286565 A    
S8    O82   1.504225 D    
O38   Cr6   1.976877 S    
O27   C23   1.263877 A    
