data_mof_unit_49449.cif
_audit_creation_date              2012-12-11T15:55:40-0500
_audit_creation_method            fapswitch 2.2
_symmetry_space_group_name_H-M    P1
_symmetry_Int_Tables_number       1
_space_group_crystal_system       triclinic
_cell_length_a                    11.077663
_cell_length_b                    11.110222
_cell_length_c                    18.764862
_cell_angle_alpha                 90.611185
_cell_angle_beta                  90.873536
_cell_angle_gamma                 59.430382
_cell_volume                      1988.25653279

loop_
_atom_site_label
_atom_site_type_symbol
_atom_type_description
_atom_site_fract_x
_atom_site_fract_y
_atom_site_fract_z
_atom_type_partial_charge
C1    C     C_R   0.353923 0.777996 0.398833 0.528148
C2    C     C_R   0.628774 0.111677 0.168256 0.029777
C3    C     C_R   0.365375 0.319906 0.161880 0.016242
C4    C     C_R   0.481364 0.226747 0.274558 -0.150222
C5    C     C_R   0.487149 0.217520 0.200282 -0.011207
C6    C     C_R   0.103165 0.648063 0.336436 -0.059339
C7    C     C_R   0.983951 0.742954 0.373844 -0.097369
C8    C     C_R   0.654257 0.998056 0.122691 -0.073007
C9    C     C_R   0.788387 0.900487 0.099473 -0.143711
C10   C     C_R   0.252238 0.427696 0.197837 -0.160128
C11   C     C_R   0.245967 0.429758 0.270956 -0.046944
C12   C     C_R   0.385779 0.353224 0.387432 0.535744
C13   C     C_R   0.868602 0.724946 0.372599 -0.096611
C14   C     C_R   0.871798 0.620315 0.328942 -0.092915
C15   C     C_R   0.990360 0.530693 0.291074 -0.114511
C16   C     C_R   0.112252 0.534346 0.302131 0.011986
C17   C     C_R   0.364333 0.333213 0.311075 0.004745
C18   C     C_R   0.850431 0.342095 0.180914 0.021808
C19   C     C_R   0.931762 0.254297 0.235741 -0.019270
C20   C     C_R   0.885977 0.273122 0.304115 0.017467
C21   C     C_R   0.664247 0.468740 0.266521 -0.200118
C22   C     C_R   0.711960 0.447204 0.195699 -0.169583
C23   C     C_R   0.713754 0.414945 0.395191 0.553767
C24   C     C_3   0.081520 0.188880 0.256856 -0.282038
C25   C     C_3   0.031358 0.211009 0.334032 -0.258393
C26   C     C_R   0.756101 0.386433 0.321900 0.009673
C27   C     C_R   0.353495 0.844790 0.179865 -0.004482
C28   C     C_R   0.420829 0.897104 0.224803 0.019526
C29   C     C_R   0.403924 0.901241 0.299464 0.014487
C30   C     C_R   0.230307 0.840098 0.284403 -0.187290
C31   C     C_R   0.262634 0.809311 0.213076 -0.169377
C32   C     C_3   0.575442 0.836143 0.240422 -0.292438
C33   C     C_3   0.546446 0.862426 0.318358 -0.285313
C34   C     C_R   0.342593 0.771551 0.603401 0.543007
C35   C     C_R   0.322049 0.854068 0.330380 0.006769
C36   C     C_R   0.311816 0.333017 0.816610 0.013904
C37   C     C_R   0.444917 0.272143 0.786771 0.008974
C38   C     C_R   0.458322 0.272361 0.714564 0.025554
C39   C     C_R   0.208409 0.413936 0.698577 -0.169424
C40   C     C_R   0.193218 0.412445 0.772525 -0.161370
C41   C     C_3   0.571893 0.128276 0.792961 -0.258219
C42   C     C_3   0.582133 0.127794 0.712770 -0.233572
C43   C     C_R   0.342179 0.335830 0.668962 0.011960
C44   C     C_R   0.815592 0.327478 0.835735 0.016328
C45   C     C_R   0.370996 0.350488 0.595918 0.544129
C46   C     C_R   0.744988 0.459387 0.803737 0.014231
C47   C     C_R   0.736170 0.470626 0.730824 0.029183
C48   C     C_R   0.846824 0.221671 0.717504 -0.168227
C49   C     C_R   0.857342 0.208591 0.791971 -0.160069
C50   C     C_3   0.761160 0.585448 0.810926 -0.268741
C51   C     C_3   0.757145 0.592853 0.730533 -0.247367
C52   C     C_R   0.793270 0.353490 0.686399 0.015026
C53   C     C_R   0.288723 0.870192 0.820416 0.011097
C54   C     C_R   0.183584 0.864115 0.782374 -0.013379
C55   C     C_R   0.190983 0.849294 0.709336 0.064843
C56   C     C_R   0.761614 0.378155 0.610846 0.552501
C57   C     C_R   0.391970 0.878226 0.707692 -0.172414
C58   C     C_R   0.387269 0.888138 0.781865 -0.153601
C59   C     C_3   0.129712 0.766993 0.791922 -0.249563
C60   C     C_3   0.138899 0.748583 0.711723 0.042698
C61   C     C_R   0.303443 0.842578 0.671812 0.007443
C62   C     C_R   0.909797 0.316913 0.110904 0.549649
C63   C     C_R   0.331448 0.293289 0.091019 0.548102
C64   C     C_R   0.308522 0.899719 0.106405 0.536816
C65   C     C_R   0.881395 0.309602 0.905411 0.548041
C66   C     C_R   0.295458 0.289400 0.886145 0.554616
C67   C     C_R   0.903098 0.907176 0.124482 -0.088336
C68   C     C_R   0.271799 0.900725 0.896199 0.549037
C69   C     C_R   0.883299 0.010209 0.173495 -0.081722
C70   C     C_R   0.747981 0.111648 0.194434 -0.111130
Cr1   Cr    Cr6+3 0.601740 0.606840 0.505840 1.010737
Cr2   Cr    Cr6+3 0.291500 0.601560 0.495070 1.036839
Cr3   Cr    Cr6+3 0.606780 0.291630 0.499130 1.028905
Cr4   Cr    Cr6+3 0.062440 0.063060 0.008240 1.015486
Cr5   Cr    Cr6+3 0.062950 0.375000 0.998920 0.998715
Cr6   Cr    Cr6+3 0.374550 0.061770 0.992470 0.994522
H1    H     H_    0.573800 0.151755 0.303996 0.136958
H2    H     H_    0.777439 0.793530 0.403730 0.112624
H3    H     H_    0.785196 0.605033 0.322987 0.139675
H4    H     H_    0.985386 0.460996 0.253203 0.130004
H5    H     H_    0.559248 0.552806 0.278424 0.124400
H6    H     H_    0.643258 0.513921 0.153600 0.123128
H7    H     H_    0.134653 0.245874 0.241122 0.141850
H8    H     H_    0.137030 0.080804 0.238605 0.161613
H9    H     H_    0.064647 0.111794 0.362712 0.146478
H10   H     H_    0.048399 0.288072 0.363937 0.162997
H11   H     H_    0.133881 0.852434 0.303661 0.119944
H12   H     H_    0.803881 0.815025 0.065062 0.103137
H13   H     H_    0.198453 0.779910 0.182161 0.132852
H14   H     H_    0.621202 0.897620 0.224799 0.150294
H15   H     H_    0.638905 0.724299 0.225301 0.140307
H16   H     H_    0.597921 0.770152 0.351610 0.169381
H17   H     H_    0.551388 0.953615 0.339558 0.137029
H18   H     H_    0.116884 0.473354 0.664859 0.159647
H19   H     H_    0.088926 0.463849 0.794190 0.136822
H20   H     H_    0.550831 0.046816 0.811632 0.155684
H21   H     H_    0.660152 0.129418 0.821129 0.144298
H22   H     H_    0.677598 0.124347 0.693708 0.187146
H23   H     H_    0.981967 0.827402 0.404110 0.130181
H24   H     H_    0.558344 0.052381 0.685984 0.148854
H25   H     H_    0.885784 0.129144 0.684456 0.170212
H26   H     H_    0.910471 0.104608 0.814532 0.152263
H27   H     H_    0.863083 0.565411 0.832790 0.164829
H28   H     H_    0.668442 0.674794 0.836212 0.132440
H29   H     H_    0.665692 0.687760 0.708962 0.159110
H30   H     H_    0.859175 0.567314 0.707129 0.162294
H31   H     H_    0.471902 0.886147 0.679345 0.122398
H32   H     H_    0.463393 0.905802 0.808980 0.131640
H33   H     H_    0.020966 0.821787 0.812585 0.168197
H34   H     H_    0.007274 0.829040 0.107930 0.118830
H35   H     H_    0.204862 0.670589 0.821362 0.118947
H36   H     H_    0.220105 0.642348 0.694603 0.159601
H37   H     H_    0.973408 0.009987 0.195865 0.133527
H38   H     H_    0.735039 0.187516 0.234059 0.130010
H39   H     H_    0.195928 0.652089 0.334412 0.170557
H40   H     H_    0.575468 0.971200 0.111306 0.174231
H41   H     H_    0.160740 0.506055 0.168702 0.138256
O1    O     O_R   0.748670 0.497520 0.427970 -0.523839
O2    O     O_R   0.300170 0.471020 0.567120 -0.490580
O3    O     O_R   0.491630 0.259030 0.574940 -0.512945
O4    O     O_R   0.718640 0.304340 0.577850 -0.494110
O5    O     O_3   0.500010 0.500010 0.500020 -0.280445
O6    O     O_R   0.186620 0.923750 0.087000 -0.532738
O7    O     O_R   0.957350 0.194160 0.084660 -0.491851
O8    O     O_R   0.935120 0.407280 0.085350 -0.526384
O9    O     O_R   0.203800 0.365060 0.067090 -0.510980
O10   O     O_R   0.417470 0.174910 0.067830 -0.533878
O11   O     O_R   0.375160 0.946380 0.070880 -0.515206
O12   O     O_R   0.476470 0.723930 0.429450 -0.528347
O13   O     O_R   0.160500 0.919670 0.926690 -0.517845
O14   O     O_R   0.933140 0.190380 0.936050 -0.506630
O15   O     O_R   0.909010 0.403210 0.925030 -0.530080
O16   O     O_R   0.179590 0.361290 0.918480 -0.511419
O17   O     O_R   0.391360 0.170840 0.907510 -0.527664
O18   O     O_R   0.350950 0.942600 0.922260 -0.515000
O19   O     O_3   0.166650 0.166610 0.999880 -0.249633
O20   O     O_R   0.264730 0.744140 0.416740 -0.549194
O21   O     O_R   0.309440 0.472410 0.418220 -0.503841
O22   O     O_R   0.501630 0.260530 0.414310 -0.536440
O23   O     O_R   0.727920 0.305730 0.428950 -0.496297
O24   O     O_R   0.738670 0.496020 0.588600 -0.506935
O25   O     O_R   0.467190 0.722540 0.578350 -0.506453
O26   O     O_R   0.254720 0.742640 0.577370 -0.483916
Br1   Br    Br    0.957155 0.821416 0.665315 -0.611077

loop_
_geom_bond_atom_site_label_1
_geom_bond_atom_site_label_2
_ccdc_geom_bond_type
C44   C49   A    
Cr2   O26   S    
Cr4   O7    S    
C21   C26   A    
C50   H28   S    
C56   O4    A    
C41   C42   S    
C54   C55   A    
Cr1   O5    S    
C19   C20   A    
C23   O1    A    
C62   O7    A    
Cr6   O19   S    
C53   C54   A    
C70   H38   S    
C69   H37   S    
C7    H23   S    
C30   C35   A    
C22   H6    S    
C21   C22   A    
C36   C37   A    
C24   H7    S    
C38   C42   S    
C1    O12   A    
C42   H22   S    
C9    H12   S    
C30   C31   A    
C36   C66   S    
C32   H15   S    
C20   C25   S    
C15   C16   A    
C29   C33   S    
C18   C19   A    
C23   C26   S    
C4    H1    S    
C53   C68   S    
C36   C40   A    
C7    C13   A    
C66   O17   A    
C32   H14   S    
C8    C9    A    
C31   H13   S    
Cr4   O19   S    
C12   C17   S    
C59   H35   S    
C58   H32   S    
Cr1   O24   S    
C45   O2    A    
Cr2   O21   S    
Cr4   O6    S    
C59   C60   S    
Cr3   O3    S    
C13   C14   A    
C44   C65   S    
C65   O14   A    
Cr6   O18   S    
C44   C46   A    
C54   C59   S    
Cr4   O14   S    
C34   O26   A    
C27   C31   A    
C23   O23   A    
C28   C32   S    
C24   C25   S    
C10   C11   A    
C33   H16   S    
C49   H26   S    
Cr6   O17   S    
Cr5   O19   S    
C18   C62   S    
C39   C43   A    
Cr3   O22   S    
C64   O11   A    
C34   C61   S    
C33   H17   S    
Cr5   O8    S    
C9    C67   A    
C39   H18   S    
C37   C38   A    
C60   H36   S    
C42   H24   S    
Cr1   O12   S    
C66   O16   A    
C34   O25   A    
C11   C16   S    
C67   H34   S    
C15   H4    S    
C48   C52   A    
C51   H29   S    
C25   H9    S    
C50   C51   S    
C12   O22   A    
C14   H3    S    
C68   O13   A    
C43   C45   S    
C47   C52   A    
Cr1   O25   S    
C56   O24   A    
C45   O3    A    
Cr2   O20   S    
C57   H31   S    
C21   H5    S    
Cr3   O4    S    
Cr4   O13   S    
Cr6   O11   S    
C12   O21   A    
C2    C5    S    
C4    C17   A    
C40   H19   S    
C39   C40   A    
C65   O15   A    
C1    O20   A    
Cr5   O15   S    
C1    C35   S    
C46   C50   S    
C46   C47   A    
C28   C29   A    
Cr1   O1    S    
Cr2   O5    S    
C18   C22   A    
C68   O18   A    
C2    C8    A    
C4    C5    A    
C3    C5    A    
C11   C17   A    
C62   O8    A    
C47   C51   S    
C53   C58   A    
Cr5   O16   S    
C57   C61   A    
C6    C7    A    
Cr3   O23   S    
C3    C63   S    
C64   O6    A    
C29   C35   A    
C8    H40   S    
Cr5   O9    S    
C32   C33   S    
C19   C24   S    
C24   H8    S    
C38   C43   A    
C10   H41   S    
C2    C70   A    
C60   Br1   S    
C57   C58   A    
C20   C26   A    
C51   H30   S    
C48   C49   A    
C48   H25   S    
C55   C61   A    
Cr2   O2    S    
C25   H10   S    
C59   H33   S    
C41   H21   S    
C37   C41   S    
C69   C70   A    
C6    H39   S    
C63   O9    A    
C27   C64   S    
C13   H2    S    
C6    C16   A    
C41   H20   S    
C50   H27   S    
Cr3   O5    S    
C27   C28   A    
C3    C10   A    
Cr6   O10   S    
C14   C15   A    
C67   C69   A    
C30   H11   S    
C55   C60   S    
C63   O10   A    
C52   C56   S    
