data_mof_unit_33176.cif
_audit_creation_date              2013-03-05T16:47:36-0500
_audit_creation_method            fapswitch 2.2
_symmetry_space_group_name_H-M    P1
_symmetry_Int_Tables_number       1
_space_group_crystal_system       triclinic
_cell_length_a                    18.134116
_cell_length_b                    18.146209
_cell_length_c                    18.391475
_cell_angle_alpha                 119.979744
_cell_angle_beta                  90.02029
_cell_angle_gamma                 119.866626
_cell_volume                      4288.57049184

loop_
_atom_site_label
_atom_site_type_symbol
_atom_site_description
_atom_site_fract_x
_atom_site_fract_y
_atom_site_fract_z
_atom_type_partial_charge
Zn1   Zn    Zn3+2 0.207400 0.586780 0.791530 0.975203
Zn2   Zn    Zn3+2 0.792600 0.413220 0.208470 1.007845
Zn3   Zn    Zn3+2 0.208510 0.413230 0.792630 0.991435
Zn4   Zn    Zn3+2 0.791490 0.586770 0.207370 0.999714
Zn5   Zn    Zn3+2 0.383150 0.586740 0.791530 1.055507
Zn6   Zn    Zn3+2 0.616850 0.413260 0.208470 1.050824
Zn7   Zn    Zn3+2 0.207400 0.413250 0.618010 0.997556
Zn8   Zn    Zn3+2 0.792600 0.586750 0.381990 1.007307
O1    O     O_3   0.251620 0.500000 0.748430 -0.503238
O2    O     O_3   0.748380 0.500000 0.251570 -0.511266
O3    O     O_R   0.134680 0.268390 0.572240 -0.640128
O4    O     O_R   0.865320 0.731610 0.427760 -0.639753
O5    O     O_R   0.306670 0.731630 0.863510 -0.649051
O6    O     O_R   0.693330 0.268370 0.136490 -0.646721
O7    O     O_R   0.135450 0.439270 0.865360 -0.637483
O8    O     O_R   0.864550 0.560730 0.134640 -0.644740
O9    O     O_R   0.429670 0.560710 0.692610 -0.609501
O10   O     O_R   0.570330 0.439290 0.307390 -0.608485
O11   O     O_R   0.308540 0.439240 0.865360 -0.655586
O12   O     O_R   0.691460 0.560760 0.134640 -0.653829
O13   O     O_R   0.133580 0.439310 0.571150 -0.661748
O14   O     O_R   0.866420 0.560690 0.428850 -0.660260
O15   O     O_R   0.430770 0.560690 0.864590 -0.636244
O16   O     O_R   0.569230 0.439310 0.135410 -0.639825
O17   O     O_R   0.133580 0.560760 0.692610 -0.615491
O18   O     O_R   0.866420 0.439240 0.307390 -0.602886
O19   O     O_R   0.134680 0.560740 0.864590 -0.662883
O20   O     O_R   0.865320 0.439260 0.135410 -0.633862
O21   O     O_R   0.306670 0.439270 0.571150 -0.632097
O22   O     O_R   0.693330 0.560730 0.428850 -0.630175
O23   O     O_R   0.135450 0.268370 0.694460 -0.638922
O24   O     O_R   0.864550 0.731630 0.305540 -0.637131
O25   O     O_R   0.429670 0.731610 0.863510 -0.612753
O26   O     O_R   0.570330 0.268390 0.136490 -0.617513
C1    C     C_R   0.112158 0.220171 0.609838 0.803960
C2    C     C_R   0.887799 0.779818 0.390121 0.808627
C3    C     C_R   0.392842 0.781167 0.888254 0.809812
C4    C     C_R   0.607147 0.218845 0.111755 0.805963
C5    C     C_R   0.111404 0.501532 0.890351 0.807719
C6    C     C_R   0.888191 0.498365 0.109353 0.818657
C7    C     C_R   0.392204 0.501100 0.608127 0.951656
C8    C     C_R   0.607781 0.498872 0.391867 0.951516
C9    C     C_R   0.394030 0.500211 0.888775 0.870271
C10   C     C_R   0.606053 0.499069 0.110471 0.870015
C11   C     C_R   0.108439 0.499907 0.608094 0.827512
C12   C     C_R   0.890206 0.498788 0.392026 0.832926
C13   C     C_3   0.064448 0.496334 0.468334 -0.301077
C14   C     C_3   0.931219 0.500178 0.532632 -0.297779
C15   C     C_3   0.048784 0.582694 0.498835 -0.337723
C16   C     C_3   0.947215 0.414214 0.502689 -0.359234
H1    H     H_    0.089103 0.651683 0.497085 0.162041
H2    H     H_    0.905411 0.345106 0.503821 0.159298
H3    H     H_    0.119467 0.494447 0.443385 0.173319
H4    H     H_    0.877255 0.503674 0.559247 0.176766
C17   C     C_3   0.946681 0.497313 0.448654 -0.070921
C18   C     C_3   0.049277 0.499120 0.552028 -0.063538
C19   C     C_3   0.962449 0.412599 0.419548 0.589546
C20   C     C_3   0.033221 0.583512 0.581534 0.597476
C21   C     C_3   0.441426 0.966349 0.927905 -0.139013
C22   C     C_3   0.558472 0.033692 0.072143 -0.126839
C23   C     C_3   0.545412 0.038061 0.956090 -0.162706
C24   C     C_3   0.454465 0.961997 0.043956 -0.164468
H5    H     H_    0.582523 0.070693 0.920289 0.150229
H6    H     H_    0.416781 0.929598 0.079728 0.156701
H7    H     H_    0.392736 0.937658 0.868003 0.169040
H8    H     H_    0.607163 0.062401 0.132050 0.171889
C25   C     C_3   0.549532 0.102558 0.052644 0.016759
C26   C     C_3   0.450389 0.897479 0.947391 0.012547
C27   C     C_3   0.446227 0.032335 0.025199 -0.129104
C28   C     C_3   0.553718 0.967748 0.974831 -0.123676
H9    H     H_    0.402344 0.059720 0.046386 0.177035
H10   H     H_    0.597699 0.940491 0.953677 0.167140
C29   C     C_3   0.413249 0.448287 0.449809 -0.311080
C30   C     C_3   0.586665 0.551568 0.550146 -0.307071
C31   C     C_3   0.468255 0.401998 0.437061 0.261416
C32   C     C_3   0.531668 0.597856 0.562896 0.261799
H11   H     H_    0.343100 0.406587 0.408579 0.230438
H12   H     H_    0.656829 0.593306 0.591323 0.237993
C33   C     C_3   0.551198 0.497827 0.448345 -0.252800
C34   C     C_3   0.448732 0.502045 0.551612 -0.250791
C35   C     C_3   0.497879 0.545353 0.462868 0.216232
C36   C     C_3   0.502046 0.454512 0.537103 0.215341
H13   H     H_    0.217143 0.215998 0.924264 0.171933
H14   H     H_    0.784675 0.776707 0.072563 0.172464
C37   C     C_R   0.229999 0.189164 0.799019 -0.165157
C38   C     C_R   0.772697 0.815226 0.200598 -0.154068
H15   H     H_    0.301956 0.226788 0.821074 0.208219
H16   H     H_    0.701785 0.782853 0.179167 0.208354
C39   C     C_R   0.185751 0.146487 0.712043 -0.097675
C40   C     C_R   0.816592 0.860145 0.288475 -0.108802
H17   H     H_    0.223970 0.151519 0.667461 0.157845
H18   H     H_    0.779193 0.862148 0.334535 0.158991
C41   C     C_R   0.092475 0.097404 0.682761 0.071544
C42   C     C_R   0.908408 0.902061 0.316645 0.068658
C43   C     C_R   0.043760 0.090412 0.741107 -0.215135
C44   C     C_R   0.956087 0.899280 0.256255 -0.206677
H19   H     H_    0.971573 0.051626 0.717794 0.192683
H20   H     H_    0.027094 0.932097 0.278654 0.191867
C45   C     C_R   0.087912 0.133197 0.828917 0.353612
C46   C     C_R   0.912154 0.853488 0.167358 0.355243
C47   C     C_R   0.181555 0.182553 0.857179 -0.210995
C48   C     C_R   0.819993 0.811756 0.140308 -0.214552
C49   C     C_R   0.987508 0.943048 0.534433 -0.227914
C50   C     C_R   0.012346 0.056900 0.465338 -0.226655
H21   H     H_    0.979454 0.899144 0.561272 0.174473
H22   H     H_    0.020299 0.100702 0.438397 0.175091
C51   C     C_R   0.943119 0.892234 0.444928 -0.045407
C52   C     C_R   0.056903 0.107739 0.554888 -0.047011
C53   C     C_R   0.955165 0.949721 0.409779 0.017195
C54   C     C_R   0.044973 0.050199 0.589973 0.018613
C55   C     C_R   0.677189 0.645883 0.833069 -0.217774
C56   C     C_R   0.332483 0.342565 0.162953 -0.259626
H23   H     H_    0.698487 0.613688 0.777212 0.233241
H24   H     H_    0.316114 0.374169 0.222718 0.212839
C57   C     C_R   0.624538 0.584213 0.861657 0.257281
C58   C     C_R   0.379980 0.405737 0.134134 0.262803
C59   C     C_R   0.596092 0.625465 0.934724 -0.146118
C60   C     C_R   0.404739 0.366562 0.057720 -0.144958
C61   C     C_R   0.622835 0.729927 0.979213 0.263254
C62   C     C_R   0.379689 0.262529 0.009909 0.256942
C63   C     C_R   0.674524 0.788685 0.947574 -0.282629
C64   C     C_R   0.331575 0.201299 0.040669 -0.274160
H25   H     H_    0.693919 0.867546 0.980275 0.203250
H26   H     H_    0.312880 0.122444 0.005073 0.201272
C65   C     C_R   0.701530 0.747463 0.874576 0.283056
C66   C     C_R   0.308378 0.240625 0.117235 0.299235
C67   C     C_R   0.593612 0.556834 0.020780 -0.222000
C68   C     C_R   0.406754 0.440785 0.976771 -0.230707
H27   H     H_    0.666082 0.600558 0.036378 0.169320
H28   H     H_    0.334327 0.397236 0.961579 0.166207
C69   C     C_R   0.550252 0.496247 0.052572 0.029921
C70   C     C_R   0.450057 0.501590 0.945098 0.030040
C71   C     C_R   0.455420 0.434879 0.028313 0.135281
C72   C     C_R   0.544928 0.561303 0.967757 0.136415
H29   H     H_    0.157047 0.879372 0.932048 0.169286
H30   H     H_    0.784263 0.078045 0.010209 0.164278
C73   C     C_R   0.190657 0.823492 0.996530 -0.050271
C74   C     C_R   0.782241 0.148074 0.945037 -0.067120
H31   H     H_    0.260988 0.888193 0.028142 0.150317
H32   H     H_    0.717534 0.080432 0.894678 0.163706
C75   C     C_R   0.158540 0.745542 0.010497 -0.135012
C76   C     C_R   0.827494 0.237174 0.945681 -0.237022
H33   H     H_    0.204910 0.750839 0.053087 0.149711
H34   H     H_    0.796886 0.238133 0.895852 0.159522
C77   C     C_R   0.067368 0.660566 0.969181 0.007438
C78   C     C_R   0.911885 0.324771 0.010351 0.046536
C79   C     C_R   0.007355 0.655701 0.914187 0.529714
C80   C     C_R   0.952700 0.322595 0.073698 0.557962
C81   C     C_R   0.040937 0.736094 0.902690 -0.095357
C82   C     C_R   0.904527 0.232854 0.073677 -0.185546
H35   H     H_    0.995756 0.734334 0.862363 0.173156
H36   H     H_    0.931504 0.229457 0.123097 0.132421
C83   C     C_R   0.132061 0.818558 0.942426 -0.105652
C84   C     C_R   0.820245 0.146362 0.009579 -0.069288
C85   C     C_R   0.982064 0.576052 0.039008 -0.178950
C86   C     C_R   0.016250 0.424124 0.959871 -0.217536
H37   H     H_    0.969201 0.635448 0.069537 0.200061
H38   H     H_    0.027613 0.363511 0.928064 0.182420
C87   C     C_R   0.943503 0.496610 0.051797 -0.073286
C88   C     C_R   0.055695 0.503992 0.947694 -0.093083
C89   C     C_R   0.958554 0.417896 0.009288 0.059924
C90   C     C_R   0.036465 0.579835 0.986144 0.001243
N1    N     N_R   0.038057 0.126183 0.888804 0.204291
O27   O     O_R   0.077538 0.157759 0.967419 -0.416015
O28   O     O_R   0.952642 0.087656 0.865167 -0.344299
N2    N     N_R   0.960659 0.849424 0.105045 0.209700
O29   O     O_R   0.920388 0.809087 0.023348 -0.376768
O30   O     O_R   0.045429 0.885636 0.129255 -0.352886
N3    N     N_R   0.753832 0.808736 0.842814 0.256224
O31   O     O_R   0.779525 0.770810 0.775419 -0.362351
O32   O     O_R   0.775622 0.902735 0.880425 -0.347685
N4    N     N_R   0.260922 0.177395 0.148786 0.256351
O33   O     O_R   0.238006 0.213197 0.219028 -0.363016
O34   O     O_R   0.240796 0.083697 0.108046 -0.359992
N5    N     N_R   0.601958 0.480450 0.816641 0.247730
O35   O     O_R   0.521493 0.403530 0.798381 -0.346078
O36   O     O_R   0.659162 0.460678 0.785831 -0.326739
N6    N     N_R   0.402631 0.509646 0.183197 0.245613
O37   O     O_R   0.483954 0.588062 0.205626 -0.344286
O38   O     O_R   0.343768 0.527254 0.211854 -0.371634
N7    N     N_R   0.600635 0.778968 0.057142 0.206602
O39   O     O_R   0.531793 0.724739 0.073519 -0.385242
O40   O     O_R   0.647161 0.879938 0.110549 -0.422783
N8    N     N_R   0.401034 0.216881 0.930223 0.204787
O41   O     O_R   0.468189 0.273969 0.914236 -0.379034
O42   O     O_R   0.356309 0.116228 0.875204 -0.425576
O43   O     O_3   0.914771 0.580366 0.877189 -0.617403
C91   C     C_3   0.891120 0.478760 0.812835 0.098594
H39   H     H_    0.816574 0.427093 0.782001 0.217307
H40   H     H_    0.905993 0.447163 0.844204 0.141559
C92   C     C_3   0.931012 0.468758 0.737113 -0.400396
H41   H     H_    0.902010 0.483388 0.696720 0.241635
H42   H     H_    0.005074 0.526234 0.764102 0.253631
C93   C     C_3   0.911105 0.360474 0.677821 -0.911521
H43   H     H_    0.934365 0.342039 0.718343 0.251128
H44   H     H_    0.947750 0.357383 0.629376 0.244566
H45   H     H_    0.837664 0.301045 0.641208 0.279989
O44   O     O_3   0.034462 0.412966 0.139132 -0.650307
C94   C     C_3   0.095229 0.393359 0.159557 0.086349
H46   H     H_    0.161695 0.447026 0.159518 0.220215
H47   H     H_    0.076712 0.313481 0.109454 0.174029
C95   C     C_3   0.106173 0.417258 0.252882 -0.381754
H48   H     H_    0.136793 0.501359 0.302799 0.250471
H49   H     H_    0.039293 0.373105 0.257523 0.257973
C96   C     C_3   0.165056 0.388988 0.275138 -0.852682
H50   H     H_    0.140604 0.307799 0.221809 0.283772
H51   H     H_    0.163342 0.395646 0.338339 0.257065
H52   H     H_    0.235658 0.443284 0.283548 0.315686
O45   O     O_3   0.924327 0.322810 0.331406 -0.642002
C97   C     C_3   0.925547 0.245496 0.331420 0.047318
H53   H     H_    0.871675 0.210181 0.356080 0.165645
H54   H     H_    0.992146 0.277985 0.373878 0.151290
C98   C     C_3   0.907201 0.160109 0.236752 -0.336593
H55   H     H_    0.845550 0.133054 0.191111 0.243568
H56   H     H_    0.965367 0.191797 0.214909 0.225370
C99   C     C_3   0.894248 0.067580 0.231434 -0.835831
H57   H     H_    0.955403 0.092278 0.275759 0.257606
H58   H     H_    0.882092 0.007871 0.161983 0.283631
H59   H     H_    0.835236 0.032380 0.251073 0.279735
O46   O     O_3   0.072523 0.671276 0.670644 -0.639516
C100  C     C_3   0.054403 0.742287 0.680015 0.045356
H60   H     H_    0.027351 0.762073 0.735935 0.176287
H61   H     H_    0.002936 0.711380 0.620517 0.150877
C101  C     C_3   0.142302 0.841344 0.703128 -0.326671
H62   H     H_    0.191660 0.874798 0.765145 0.248702
H63   H     H_    0.171159 0.822232 0.648571 0.226574
C102  C     C_3   0.127173 0.922117 0.716586 -0.855429
H64   H     H_    0.078408 0.890742 0.655290 0.248060
H65   H     H_    0.192141 0.991828 0.731708 0.298356
H66   H     H_    0.101332 0.945328 0.773012 0.276891
N9    N     N_R   0.432272 0.293179 0.370189 0.253832
O47   O     O_R   0.357419 0.220379 0.365278 -0.277101
O48   O     O_R   0.475378 0.267988 0.316875 -0.376050
N10   N     N_R   0.567657 0.706669 0.629802 0.249294
O49   O     O_R   0.642964 0.779500 0.635299 -0.288849
O50   O     O_R   0.524066 0.731825 0.682485 -0.384049
N11   N     N_R   0.497580 0.597745 0.423554 0.240559
O51   O     O_R   0.421652 0.572062 0.382662 -0.353398
O52   O     O_R   0.573174 0.674098 0.433314 -0.327379
N12   N     N_R   0.502302 0.402178 0.576523 0.237038
O53   O     O_R   0.578199 0.428533 0.618252 -0.344574
O54   O     O_R   0.426688 0.325740 0.566638 -0.331704

loop_
_geom_bond_atom_site_label_1
_geom_bond_atom_site_label_2
_geom_bond_distance
_ccdc_geom_bond_type
C23   C28   1.549290 S    
C14   C17   1.549625 S    
C93   H44   1.107338 S    
Zn8   O2    1.960179 S    
Zn4   O8    1.939302 S    
Zn7   O21   1.941012 S    
C58   N6    1.437446 S    
C5    C88   1.460608 S    
C85   H37   1.084896 S    
H14   C48   1.081126 S    
N3    O31   1.301649 A    
C76   C78   1.403496 A    
C6    C87   1.458249 S    
N1    O27   1.301579 A    
C99   H59   1.110722 S    
C56   C58   1.400362 A    
C36   N12   1.455986 S    
C101  H62   1.112081 S    
C7    C34   1.460305 S    
C56   H24   1.079347 S    
N6    O37   1.301032 A    
Zn3   O7    1.939303 S    
N5    O36   1.301467 A    
C96   H50   1.110892 S    
C10   C69   1.433041 S    
C14   H4    1.110131 S    
C73   H31   1.081216 S    
C95   H49   1.104876 S    
C91   C92   1.540961 S    
O24   C2    1.278725 A    
C46   N2    1.439919 S    
C9    C70   1.433151 S    
C79   C81   1.402617 A    
C80   C82   1.413357 A    
C100  C101  1.527994 S    
C59   C61   1.425481 A    
C50   C53   1.380766 A    
N8    O42   1.301798 A    
C43   C45   1.406714 A    
C98   C99   1.525449 S    
C93   H45   1.110537 S    
Zn5   O9    1.945179 S    
C77   C90   1.482137 S    
O20   C6    1.273880 A    
C68   H28   1.083021 S    
C3    C26   1.496010 S    
O15   C9    1.267276 A    
N8    O41   1.300329 A    
C63   H25   1.082458 S    
C22   C24   1.549199 S    
C61   N7    1.445937 S    
C27   H9    1.110209 S    
C81   C83   1.395488 A    
C24   H6    1.110041 S    
C1    C52   1.445839 S    
O10   C8    1.277976 A    
O12   C10   1.274723 A    
C63   C65   1.401245 A    
C20   O46   1.410826 S    
C86   H38   1.084996 S    
C102  H64   1.110605 S    
C11   C18   1.477742 S    
C35   N11   1.455612 S    
C15   H1    1.109731 S    
C95   C96   1.525117 S    
C44   H20   1.083098 S    
C12   C17   1.479383 S    
C55   C65   1.399444 A    
C94   C95   1.530866 S    
C16   H2    1.107700 S    
C87   C89   1.413624 A    
Zn3   O11   1.953724 S    
O44   C94   1.416251 S    
C39   H17   1.083120 S    
C65   N3    1.440933 S    
O13   C11   1.277295 A    
C75   C77   1.406273 A    
C41   C54   1.480258 S    
C13   H3    1.107159 S    
O21   C7    1.276966 A    
C74   C84   1.393746 A    
C14   C16   1.553395 S    
C93   H43   1.111166 S    
C22   H8    1.110177 S    
C8    C33   1.460548 S    
C41   C43   1.404654 A    
N11   O51   1.299420 A    
C2    C51   1.445629 S    
N2    O30   1.301604 A    
C51   C53   1.414528 A    
C81   H35   1.082675 S    
H30   C84   1.082324 S    
N10   O50   1.299986 A    
C67   H27   1.082890 S    
C30   C36   1.549166 S    
Zn2   O6    1.926190 S    
C59   C72   1.488927 S    
C68   C70   1.397539 A    
C29   C35   1.549224 S    
O46   C100  1.413462 S    
C77   C79   1.424580 A    
N4    O34   1.301574 A    
C40   C42   1.401212 A    
C78   C80   1.407534 A    
C61   C63   1.406796 A    
C85   C90   1.386767 A    
Zn6   O10   1.945176 S    
C78   C89   1.476800 S    
C19   O45   1.413572 S    
C21   C23   1.548919 S    
C28   H10   1.110351 S    
C95   H48   1.111593 S    
C37   H15   1.081175 S    
C85   C87   1.399086 A    
C92   H41   1.111231 S    
C86   C88   1.397958 A    
Zn1   O1    1.939525 S    
C99   H57   1.111083 S    
C22   C25   1.538216 S    
C55   H23   1.082153 S    
C74   C76   1.395380 A    
N7    O40   1.301880 A    
O19   C5    1.270494 A    
C33   C35   1.533127 S    
C37   C39   1.394454 A    
Zn2   O20   1.944979 S    
O11   C9    1.275928 A    
C79   O43   1.390768 S    
N7    O39   1.300187 A    
Zn8   O14   1.948165 S    
C16   C18   1.544103 S    
C15   C20   1.541122 S    
Zn6   O26   1.920274 S    
C24   C27   1.549314 S    
Zn5   O25   1.920273 S    
C91   H39   1.110773 S    
C25   C27   1.538491 S    
C88   C90   1.421727 A    
C64   C66   1.401514 A    
Zn7   O3    1.921667 S    
C92   H42   1.106804 S    
Zn5   O1    1.951287 S    
C100  H60   1.110857 S    
Zn3   O1    1.950599 S    
C21   C26   1.538341 S    
C13   C19   1.540213 S    
C55   C57   1.401623 A    
C23   C25   1.537702 S    
C40   H18   1.083090 S    
N5    O35   1.301123 A    
Zn5   O15   1.953245 S    
C22   C28   1.548950 S    
Zn8   O4    1.921666 S    
Zn6   O16   1.953245 S    
N12   O54   1.300279 A    
O45   C97   1.414239 S    
C57   N5    1.439574 S    
C49   H21   1.084811 S    
C17   C19   1.531972 S    
C42   C44   1.404214 A    
C62   N8    1.445784 S    
O7    C5    1.284428 A    
Zn4   O24   1.926536 S    
C60   C71   1.486506 S    
C30   C32   1.546866 S    
C58   C60   1.414881 A    
C45   N1    1.439737 S    
C60   C62   1.424799 A    
C34   C36   1.533170 S    
O14   C12   1.276313 A    
O8    C6    1.279905 A    
C86   C89   1.385292 A    
C97   H54   1.116251 S    
C30   C33   1.555569 S    
N11   O52   1.300270 A    
C38   C40   1.395135 A    
N2    O29   1.301684 A    
O16   C10   1.268181 A    
C82   H36   1.074676 S    
Zn1   O19   1.944977 S    
O4    C2    1.288746 A    
N10   O49   1.300234 A    
C29   C31   1.547036 S    
Zn4   O2    1.950596 S    
O6    C4    1.284191 A    
C38   C48   1.397758 A    
C101  C102  1.524092 S    
O17   C11   1.275150 A    
C50   C52   1.398071 A    
C76   H34   1.083260 S    
C37   C47   1.397933 A    
N4    O33   1.301605 A    
C62   C64   1.406707 A    
O25   C3    1.284984 A    
C46   C48   1.405876 A    
N3    O32   1.301325 A    
C96   H52   1.106840 S    
Zn7   O1    1.960178 S    
C73   C75   1.395969 A    
C73   C83   1.393803 A    
C67   C72   1.373565 A    
H13   C47   1.080781 S    
C45   C47   1.405469 A    
O26   C4    1.284636 A    
C16   C19   1.542375 S    
C56   C66   1.399950 A    
C23   H5    1.109102 S    
C32   C34   1.537087 S    
C99   H58   1.110345 S    
C69   C71   1.411419 A    
C49   C54   1.380677 A    
C101  H63   1.110966 S    
Zn2   O18   1.958323 S    
Zn6   O2    1.951286 S    
N6    O38   1.300405 A    
C43   H19   1.083143 S    
C31   C36   1.527835 S    
C14   C20   1.539755 S    
C50   H22   1.085152 S    
C74   H32   1.081633 S    
C13   C15   1.554390 S    
C97   C98   1.527403 S    
C30   H12   1.110119 S    
C42   C53   1.479538 S    
C96   H51   1.109083 S    
C32   C35   1.527633 S    
H29   C83   1.082626 S    
C24   C26   1.538180 S    
C49   C51   1.396714 A    
Zn8   O22   1.941013 S    
C67   C69   1.396650 A    
C75   H33   1.083370 S    
C98   H56   1.109817 S    
O43   C91   1.419647 S    
C100  H61   1.116977 S    
C102  H65   1.108790 S    
Zn7   O13   1.948165 S    
C68   C71   1.372588 A    
C21   H7    1.110230 S    
Zn3   O23   1.926536 S    
C80   O44   1.393075 S    
C21   C27   1.548555 S    
C52   C54   1.414863 A    
C31   C33   1.537332 S    
O5    C3    1.284003 A    
C98   H55   1.111922 S    
C44   C46   1.407208 A    
O23   C1    1.279364 A    
O3    C1    1.288208 A    
N12   O53   1.299574 A    
C29   C34   1.555582 S    
C18   C20   1.529086 S    
C38   H16   1.081634 S    
C15   C17   1.546966 S    
C39   C41   1.401413 A    
C31   N9    1.458312 S    
O9    C7    1.278076 A    
C91   H40   1.104016 S    
C66   N4    1.440869 S    
N9    O48   1.299965 A    
Zn4   O12   1.953726 S    
C94   H46   1.110311 S    
C102  H66   1.110865 S    
Zn1   O5    1.926190 S    
C4    C25   1.495683 S    
C70   C72   1.413903 A    
C97   H53   1.112643 S    
C82   C84   1.396252 A    
C57   C59   1.418478 A    
N9    O47   1.300217 A    
C94   H47   1.114929 S    
C26   C28   1.538905 S    
C29   H11   1.110400 S    
O22   C8    1.277187 A    
N1    O28   1.301619 A    
C32   N10   1.458317 S    
O18   C12   1.277105 A    
C64   H26   1.082383 S    
Zn1   O17   1.958325 S    
C92   C93   1.527193 S    
C13   C18   1.543981 S    
Zn2   O2    1.939528 S    
