data_mof_unit_9548.cif
_audit_creation_date              2012-12-10T17:13:38-0500
_audit_creation_method            fapswitch 2.2
_symmetry_space_group_name_H-M    P1
_symmetry_Int_Tables_number       1
_space_group_crystal_system       triclinic
_cell_length_a                    11.075428
_cell_length_b                    13.143697
_cell_length_c                    11.803642
_cell_angle_alpha                 99.968671
_cell_angle_beta                  94.622257
_cell_angle_gamma                 89.966977
_cell_volume                      1686.67833315

loop_
_atom_site_label
_atom_site_type_symbol
_atom_type_description
_atom_site_fract_x
_atom_site_fract_y
_atom_site_fract_z
_atom_type_partial_charge
C1    C     C_R   0.502035 0.298938 0.477232 0.944044
C2    C     C_3   0.876409 0.487125 0.500309 -0.223659
C3    C     C_3   0.930603 0.596819 0.559239 0.048698
C4    C     C_3   0.919536 0.469889 0.373059 -0.310632
C5    C     C_R   0.479263 0.815089 0.530423 -0.134254
C6    C     C_R   0.505860 0.184163 0.457411 -0.176734
C7    C     C_R   0.476049 0.014950 0.332282 -0.086856
C8    C     C_R   0.475924 0.123591 0.346229 -0.113664
C9    C     C_R   0.544584 0.132748 0.547974 0.189638
C10   C     C_R   0.517847 0.027969 0.539696 0.078727
C11   C     C_R   0.484628 0.966325 0.431650 -0.002343
C12   C     C_R   0.259690 0.498793 0.500487 0.920512
C13   C     C_R   0.461967 0.859237 0.427486 -0.045207
C14   C     C_R   0.491307 0.882978 0.638978 -0.064791
C15   C     C_R   0.517481 0.986816 0.640622 -0.146777
C16   C     C_R   0.371745 0.422407 0.026149 0.167971
C17   C     C_R   0.370418 0.453006 0.145257 0.418040
C18   C     C_R   0.564423 0.524767 0.158087 0.120137
C19   C     C_R   0.551411 0.528545 0.037098 -0.091310
C20   C     C_R   0.459291 0.469075 0.968550 -0.101066
C21   C     C_R   0.465146 0.449889 0.846313 0.206237
C22   C     C_R   0.602569 0.590521 0.861743 0.095086
C23   C     C_R   0.491389 0.700729 0.521037 0.903404
C24   C     C_R   0.628264 0.585959 0.981989 -0.140335
C25   C     C_R   0.739113 0.492489 0.499419 0.914926
C26   C     C_3   0.079563 0.418574 0.590523 -0.256363
C27   C     C_3   0.933451 0.398243 0.568106 -0.303328
C28   C     C_3   0.069679 0.608053 0.540886 0.014977
C29   C     C_3   0.058904 0.454367 0.377876 0.057824
C30   C     C_3   0.121126 0.493655 0.503927 -0.254218
Cu1   Cu    Cu3+1 0.509350 0.507730 0.615930 1.106785
Cu2   Cu    Cu3+1 0.490650 0.492270 0.384070 1.082085
H1    H     H_    0.903803 0.546072 0.346664 0.209535
H2    H     H_    0.529208 0.038637 0.722828 0.227436
H3    H     H_    0.639697 0.562353 0.212762 0.208517
H4    H     H_    0.920897 0.602543 0.652278 0.265885
H5    H     H_    0.089456 0.505637 0.322032 0.185966
N1    N     N_R   0.523430 0.519360 0.790130 -0.253831
N2    N     N_R   0.476570 0.480640 0.209880 -0.243092
O1    O     O_R   0.506640 0.354460 0.582000 -0.556849
O2    O     O_R   0.490840 0.341410 0.386200 -0.578764
O3    O     O_R   0.325590 0.506510 0.597900 -0.528910
O4    O     O_R   0.309790 0.493450 0.402100 -0.548772
O5    O     O_R   0.509160 0.658590 0.613800 -0.554585
O6    O     O_R   0.493360 0.645540 0.418000 -0.556076
O7    O     O_R   0.690210 0.506550 0.597900 -0.512920
O8    O     O_R   0.674410 0.493490 0.402100 -0.602441
C31   C     C_2   0.118656 0.469168 0.718268 0.936171
O9    O     O_2   0.221366 0.458574 0.758789 -0.533734
O10   O     O_R   0.041742 0.529176 0.790401 -0.699668
H6    H     H_    0.080944 0.554975 0.870955 0.390757
C32   C     C_2   0.100395 0.675920 0.452528 0.939402
O11   O     O_2   0.205017 0.705583 0.453056 -0.563372
O12   O     O_R   0.014984 0.701284 0.368406 -0.708581
H7    H     H_    0.050491 0.744501 0.315627 0.391496
Br1   Br    Br    0.832519 0.715676 0.526653 -0.345890
C33   C     C_2   0.401125 0.798605 0.320329 0.939489
O13   O     O_2   0.292653 0.808973 0.297860 -0.516352
O14   O     O_R   0.469549 0.738513 0.240058 -0.709666
H8    H     H_    0.419478 0.709399 0.165869 0.345575
C34   C     C_2   0.465602 0.854927 0.752355 0.919426
O15   O     O_2   0.500404 0.912152 0.842299 -0.540143
O16   O     O_R   0.393544 0.769538 0.758296 -0.690570
H9    H     H_    0.383245 0.760409 0.840591 0.358823
C35   C     C_2   0.482320 0.956013 0.213636 0.874383
O17   O     O_2   0.394245 0.950869 0.143260 -0.501718
O18   O     O_R   0.590675 0.908933 0.182364 -0.659374
H10   H     H_    0.584659 0.872394 0.099096 0.391677
C36   C     C_2   0.453300 0.170355 0.240835 0.947534
O19   O     O_2   0.538277 0.202832 0.196686 -0.565301
O20   O     O_R   0.335312 0.173035 0.190149 -0.643588
H11   H     H_    0.331673 0.204175 0.117273 0.369417
Br2   Br    Br    0.663014 0.194051 0.668451 -0.399708
C37   C     C_2   0.453832 0.338244 0.799497 0.970733
O21   O     O_2   0.512393 0.278278 0.850102 -0.549737
O22   O     O_R   0.365368 0.299045 0.713117 -0.691579
H12   H     H_    0.364951 0.220755 0.695520 0.330697
C38   C     C_2   0.146506 0.314850 0.577653 1.014631
O23   O     O_2   0.225894 0.294689 0.511605 -0.563476
O24   O     O_R   0.118071 0.242322 0.645736 -0.656388
H13   H     H_    0.161906 0.174645 0.625850 0.358789
C39   C     C_2   0.662458 0.678027 0.822542 0.912448
O25   O     O_2   0.718411 0.665147 0.737291 -0.513963
O26   O     O_R   0.667616 0.775014 0.893561 -0.764732
H14   H     H_    0.719226 0.826777 0.863763 0.374532
Br3   Br    Br    0.234882 0.339361 0.951403 -0.336164
C40   C     C_2   0.736698 0.640926 0.047683 0.936081
O27   O     O_2   0.726499 0.701893 0.137086 -0.516679
O28   O     O_R   0.850173 0.624706 0.004158 -0.681444
H15   H     H_    0.917034 0.666387 0.055406 0.365487
Br4   Br    Br    0.237247 0.542913 0.175365 -0.437255
C41   C     C_2   0.891558 0.294064 0.493489 0.975336
O29   O     O_2   0.961497 0.229124 0.451296 -0.472900
O30   O     O_R   0.767620 0.272697 0.472776 -0.774728
H16   H     H_    0.749611 0.202325 0.423496 0.370461
C42   C     C_2   0.883734 0.387409 0.684651 0.931573
O31   O     O_2   0.829670 0.456422 0.741751 -0.502473
O32   O     O_R   0.912912 0.299587 0.732923 -0.653632
H17   H     H_    0.883879 0.303196 0.812836 0.388518
Br5   Br    Br    0.144192 0.690758 0.684279 -0.358836
Br6   Br    Br    0.113189 0.322853 0.292332 -0.262484
C43   C     C_2   0.850329 0.399838 0.270764 0.989651
O33   O     O_2   0.813250 0.437219 0.186744 -0.589643
O34   O     O_R   0.835889 0.293763 0.265780 -0.678403
H18   H     H_    0.790691 0.258348 0.191287 0.380443

loop_
_geom_bond_atom_site_label_1
_geom_bond_atom_site_label_2
_ccdc_geom_bond_type
C40   O27   D    
C23   O6    A    
Cu1   O3    S    
C11   C13   A    
Cu2   O6    S    
C19   C20   A    
C17   Br4   S    
C6    C9    A    
C7    C8    A    
C7    C11   A    
C8    C36   S    
C26   C38   S    
C37   O22   S    
C22   C39   S    
C3    C28   S    
C12   O4    A    
C10   C15   A    
C38   O24   S    
C33   O14   S    
C13   C33   S    
C22   N1    A    
Cu1   O1    S    
C36   O20   S    
C18   C19   A    
C17   N2    A    
Cu2   N2    S    
C34   O16   S    
C12   O3    A    
C1    O1    A    
C43   O33   D    
C4    H1    S    
C21   N1    A    
C16   C17   A    
C35   O18   S    
Cu1   O7    S    
C4    C43   S    
Cu2   O2    S    
C2    C27   S    
C18   H3    S    
C25   O8    A    
C15   H2    S    
C5    C13   A    
C4    C29   S    
C26   C31   S    
C28   Br5   S    
C31   O10   S    
O14   H8    S    
C16   Br3   S    
C27   C42   S    
O30   H16   S    
C9    Br2   S    
O34   H18   S    
C32   O12   S    
Cu1   O5    S    
O18   H10   S    
O22   H12   S    
C37   O21   D    
C38   O23   D    
C6    C8    A    
C14   C34   S    
C21   C37   S    
C23   O5    A    
C1    C6    S    
C42   O32   S    
C2    C4    S    
C18   N2    A    
C29   C30   S    
C7    C35   S    
C3    Br1   S    
Cu1   Cu2   S    
C5    C23   S    
C16   C20   A    
C42   O31   D    
C41   O30   S    
O10   H6    S    
C26   C27   S    
C29   Br6   S    
C27   C41   S    
O26   H14   S    
C43   O34   S    
C5    C14   A    
C1    O2    A    
C31   O9    D    
C39   O25   D    
C39   O26   S    
C40   O28   S    
Cu2   O8    S    
C22   C24   A    
C32   O11   D    
C9    C10   A    
O12   H7    S    
C12   C30   S    
O24   H13   S    
C26   C30   S    
Cu1   N1    S    
C28   C30   S    
C2    C3    S    
O20   H11   S    
C28   C32   S    
C33   O13   D    
C3    H4    S    
C41   O29   D    
Cu2   O4    S    
C19   C24   A    
C2    C25   S    
C35   O17   D    
C34   O15   D    
C24   C40   S    
C36   O19   D    
C10   C11   A    
O16   H9    S    
C20   C21   A    
O32   H17   S    
C29   H5    S    
C14   C15   A    
O28   H15   S    
C25   O7    A    
