data_mof_unit_9344.cif
_audit_creation_date              2012-12-11T15:54:45-0500
_audit_creation_method            fapswitch 2.2
_symmetry_space_group_name_H-M    P1
_symmetry_Int_Tables_number       1
_space_group_crystal_system       triclinic
_cell_length_a                    17.522788
_cell_length_b                    24.598436
_cell_length_c                    15.04623
_cell_angle_alpha                 89.994701
_cell_angle_beta                  126.481183
_cell_angle_gamma                 89.988114
_cell_volume                      5214.61921083

loop_
_atom_site_label
_atom_site_type_symbol
_atom_type_description
_atom_site_fract_x
_atom_site_fract_y
_atom_site_fract_z
_atom_type_partial_charge
C1    C     C_R   0.902832 0.876582 0.092209 -0.085140
C2    C     C_R   0.902258 0.122706 0.092094 -0.109020
C3    C     C_R   0.402832 0.376582 0.092209 -0.085139
C4    C     C_R   0.402258 0.622707 0.092094 -0.109017
C5    C     C_R   0.062498 0.848786 0.911299 -0.110619
C6    C     C_R   0.061704 0.151506 0.911416 -0.106957
C7    C     C_R   0.562498 0.348786 0.911299 -0.110619
C8    C     C_R   0.561704 0.651506 0.911416 -0.106956
C9    C     C_R   0.149582 0.150716 0.095175 -0.157185
C10   C     C_R   0.150233 0.849422 0.095173 -0.159446
C11   C     C_R   0.649582 0.650716 0.095175 -0.157185
C12   C     C_R   0.650233 0.349422 0.095173 -0.159448
C13   C     C_R   0.325084 0.000005 0.273786 -0.005737
C14   C     C_R   0.825084 0.500005 0.273786 -0.005739
C15   C     C_R   0.046531 0.000506 0.722544 0.016962
C16   C     C_R   0.546531 0.500506 0.722544 0.016962
C17   C     C_R   0.127509 0.819559 0.006540 0.003163
C18   C     C_R   0.126424 0.180769 0.006618 0.001388
C19   C     C_R   0.627509 0.319560 0.006540 0.003164
C20   C     C_R   0.626424 0.680769 0.006618 0.001388
C21   C     C_3   0.962451 0.990433 0.425636 -0.201220
C22   C     C_3   0.130321 0.953734 0.548702 -0.219026
C23   C     C_3   0.462452 0.490428 0.425637 -0.201228
C24   C     C_3   0.630326 0.453737 0.548705 -0.219025
C25   C     C_3   0.958187 0.991948 0.524357 -0.461445
C26   C     C_3   0.126598 0.954825 0.649137 -0.464015
C27   C     C_3   0.458187 0.491946 0.524358 -0.461443
C28   C     C_3   0.626600 0.454827 0.649139 -0.464014
C29   C     C_3   0.103184 0.056061 0.528881 -0.351662
C30   C     C_3   0.603174 0.556063 0.528874 -0.351666
C31   C     C_3   0.066959 0.000767 0.466359 0.161285
C32   C     C_3   0.566957 0.500767 0.466358 0.161289
C33   C     C_3   0.058713 0.000722 0.633721 0.356559
C34   C     C_3   0.558712 0.500722 0.633720 0.356558
C35   C     C_R   0.810582 0.126471 0.906797 -0.000853
C36   C     C_R   0.811164 0.872761 0.906784 -0.012468
C37   C     C_R   0.310582 0.626472 0.906797 -0.000858
C38   C     C_R   0.311163 0.372761 0.906784 -0.012469
C39   C     C_3   0.099210 0.055734 0.627784 -0.373949
C40   C     C_3   0.599206 0.555735 0.627780 -0.373948
C41   C     C_3   0.651804 0.177652 0.926683 -0.228231
C42   C     C_3   0.652569 0.822209 0.926852 -0.236004
C43   C     C_3   0.151804 0.677653 0.926682 -0.228234
C44   C     C_3   0.152569 0.322209 0.926852 -0.236002
C45   C     C_3   0.102695 0.724689 0.942680 -0.495619
C46   C     C_3   0.102848 0.275618 0.942920 -0.499485
C47   C     C_3   0.602695 0.224689 0.942680 -0.495619
C48   C     C_3   0.602848 0.775618 0.942920 -0.499484
C49   C     C_3   0.290390 0.737879 0.974564 -0.392063
C50   C     C_3   0.290398 0.261207 0.974736 -0.399299
C51   C     C_3   0.790390 0.237879 0.974564 -0.392061
C52   C     C_3   0.790398 0.761207 0.974736 -0.399297
C53   C     C_3   0.793335 0.194411 0.126746 -0.397864
C54   C     C_3   0.794013 0.805029 0.126964 -0.419102
C55   C     C_3   0.293335 0.694411 0.126745 -0.397862
C56   C     C_3   0.294013 0.305029 0.126964 -0.419100
C57   C     C_3   0.762201 0.185313 0.006535 0.226779
C58   C     C_3   0.762827 0.814016 0.006700 0.242881
C59   C     C_3   0.262201 0.685314 0.006535 0.226781
C60   C     C_3   0.262827 0.314016 0.006700 0.242879
C61   C     C_3   0.176473 0.770173 0.012314 0.271859
C62   C     C_3   0.176008 0.229832 0.012467 0.276987
C63   C     C_3   0.676473 0.270173 0.012313 0.271859
C64   C     C_3   0.676008 0.729832 0.012467 0.276987
C65   C     C_3   0.228191 0.784910 0.960485 -0.360183
C66   C     C_3   0.227546 0.214585 0.960599 -0.357832
C67   C     C_3   0.728191 0.284909 0.960484 -0.360183
C68   C     C_3   0.727545 0.714585 0.960599 -0.357834
C69   C     C_3   0.248851 0.746913 0.133035 -0.209181
C70   C     C_3   0.248753 0.252920 0.133231 -0.203180
C71   C     C_3   0.748851 0.246914 0.133035 -0.209178
C72   C     C_3   0.748753 0.752920 0.133231 -0.203179
C73   C     C_3   0.477624 0.949059 0.353106 -0.356889
C74   C     C_3   0.477544 0.051081 0.353148 -0.352336
C75   C     C_3   0.977624 0.449059 0.353107 -0.356888
C76   C     C_3   0.977544 0.551080 0.353148 -0.352336
C77   C     C_R   0.751444 0.955429 0.689160 -0.078705
C78   C     C_R   0.751608 0.044547 0.689058 -0.066586
C79   C     C_R   0.251444 0.455429 0.689160 -0.078705
C80   C     C_R   0.251608 0.544547 0.689058 -0.066586
C81   C     C_3   0.584050 0.948975 0.450360 -0.394709
C82   C     C_3   0.584102 0.051092 0.450141 -0.394219
C83   C     C_3   0.084050 0.448975 0.450360 -0.394708
C84   C     C_3   0.084103 0.551092 0.450141 -0.394219
C85   C     C_3   0.442683 0.999962 0.471456 -0.397700
C86   C     C_3   0.942683 0.499962 0.471456 -0.397703
C87   C     C_3   0.428675 0.000034 0.359704 0.318891
C88   C     C_3   0.928675 0.500034 0.359704 0.318893
C89   C     C_3   0.608715 0.000079 0.523577 0.337467
C90   C     C_3   0.108715 0.500079 0.523577 0.337468
C91   C     C_3   0.547626 0.000316 0.567005 -0.322798
C92   C     C_3   0.047626 0.500316 0.567005 -0.322800
C93   C     C_R   0.051165 0.045513 0.305203 -0.104630
C94   C     C_R   0.049305 0.954866 0.305001 -0.093304
C95   C     C_R   0.551164 0.545513 0.305202 -0.104633
C96   C     C_R   0.549305 0.454866 0.305001 -0.093298
C97   C     C_R   0.815699 0.858935 0.000299 -0.069255
C98   C     C_R   0.814787 0.140067 0.000212 -0.077033
C99   C     C_R   0.315699 0.358935 0.000299 -0.069253
C100  C     C_R   0.314787 0.640067 0.000212 -0.077031
C101  C     C_R   0.708243 0.000002 0.622800 -0.067065
C102  C     C_R   0.208243 0.500002 0.622800 -0.067065
C103  C     C_R   0.065436 0.000381 0.367446 -0.025882
C104  C     C_R   0.565435 0.500381 0.367445 -0.025883
C105  C     C_R   0.268737 0.954305 0.248223 -0.109977
C106  C     C_R   0.268683 0.045698 0.248086 -0.123450
C107  C     C_R   0.768737 0.454305 0.248223 -0.109973
C108  C     C_R   0.768683 0.545698 0.248086 -0.123450
C109  C     C_R   0.018263 0.046056 0.750757 -0.135748
C110  C     C_R   0.018417 0.954470 0.750139 -0.134233
C111  C     C_R   0.518263 0.546056 0.750757 -0.135747
C112  C     C_R   0.518418 0.454470 0.750139 -0.134234
H1    H     H_    0.931939 0.873198 0.178153 0.103504
H2    H     H_    0.931098 0.125758 0.178025 0.119388
H3    H     H_    0.431939 0.373198 0.178153 0.103506
H4    H     H_    0.431098 0.625759 0.178025 0.119389
H5    H     H_    0.942504 0.948454 0.390987 0.118996
H6    H     H_    0.098664 0.914279 0.506038 0.113907
H7    H     H_    0.442511 0.448447 0.390997 0.118996
H8    H     H_    0.598677 0.414281 0.506045 0.113906
H9    H     H_    0.927564 0.952878 0.527213 0.156990
H10   H     H_    0.101672 0.914490 0.655532 0.150021
H11   H     H_    0.427564 0.452877 0.527216 0.156989
H12   H     H_    0.601676 0.414491 0.655532 0.150022
H13   H     H_    0.909790 0.024675 0.514747 0.183002
H14   H     H_    0.198124 0.961289 0.728236 0.185989
H15   H     H_    0.409789 0.524674 0.514744 0.183002
H16   H     H_    0.698125 0.461292 0.728239 0.185987
H17   H     H_    0.059240 0.090477 0.474492 0.186360
H18   H     H_    0.176422 0.064837 0.556609 0.196744
H19   H     H_    0.559223 0.590476 0.474482 0.186365
H20   H     H_    0.676410 0.564843 0.556597 0.196740
H21   H     H_    0.053523 0.090344 0.616417 0.164341
H22   H     H_    0.171311 0.062745 0.705640 0.176430
H23   H     H_    0.553518 0.590344 0.616414 0.164333
H24   H     H_    0.671307 0.562747 0.705634 0.176437
H25   H     H_    0.628586 0.182402 0.840965 0.169383
H26   H     H_    0.629561 0.817295 0.841238 0.167022
H27   H     H_    0.128586 0.682403 0.840964 0.169383
H28   H     H_    0.129561 0.317295 0.841238 0.167023
H29   H     H_    0.571248 0.210781 0.984868 0.200034
H30   H     H_    0.571730 0.789948 0.985236 0.197481
H31   H     H_    0.071248 0.710781 0.984867 0.200033
H32   H     H_    0.071730 0.289948 0.985236 0.197481
H33   H     H_    0.042590 0.739924 0.860029 0.171999
H34   H     H_    0.042471 0.260552 0.860290 0.173850
H35   H     H_    0.542591 0.239924 0.860029 0.171998
H36   H     H_    0.542471 0.760552 0.860290 0.173849
H37   H     H_    0.283315 0.734141 0.896791 0.178472
H38   H     H_    0.283438 0.264734 0.897039 0.177958
H39   H     H_    0.783313 0.234140 0.896789 0.178472
H40   H     H_    0.783438 0.764734 0.897039 0.177957
H41   H     H_    0.175183 0.793235 0.870506 0.154871
H42   H     H_    0.174430 0.206380 0.870599 0.155338
H43   H     H_    0.675182 0.293235 0.870505 0.154871
H44   H     H_    0.674430 0.706380 0.870599 0.155338
H45   H     H_    0.871643 0.198234 0.185749 0.157648
H46   H     H_    0.872285 0.800753 0.185697 0.151712
H47   H     H_    0.371642 0.698234 0.185750 0.157645
H48   H     H_    0.372285 0.300753 0.185697 0.151711
H49   H     H_    0.773903 0.159061 0.155309 0.221601
H50   H     H_    0.775393 0.840586 0.155919 0.212052
H51   H     H_    0.273902 0.659061 0.155308 0.221608
H52   H     H_    0.275393 0.340586 0.155919 0.212056
H53   H     H_    0.708074 0.235667 0.165512 0.138256
H54   H     H_    0.708154 0.764575 0.165735 0.132565
H55   H     H_    0.208072 0.735666 0.165511 0.138256
H56   H     H_    0.208154 0.264575 0.165735 0.132565
H57   H     H_    0.366309 0.747817 0.039719 0.208226
H58   H     H_    0.366177 0.250950 0.039912 0.208770
H59   H     H_    0.866308 0.247817 0.039718 0.208225
H60   H     H_    0.866177 0.750950 0.039912 0.208770
H61   H     H_    0.271683 0.822412 0.997255 0.201439
H62   H     H_    0.270513 0.176887 0.997299 0.201614
H63   H     H_    0.771683 0.322412 0.997254 0.201439
H64   H     H_    0.770513 0.676887 0.997299 0.201615
H65   H     H_    0.446105 0.911020 0.357600 0.160600
H66   H     H_    0.446109 0.089061 0.358039 0.163717
H67   H     H_    0.946104 0.411020 0.357600 0.160600
H68   H     H_    0.946109 0.589061 0.358038 0.163718
H69   H     H_    0.627404 0.948295 0.418579 0.170282
H70   H     H_    0.627247 0.051555 0.418081 0.170238
H71   H     H_    0.127404 0.448294 0.418579 0.170282
H72   H     H_    0.127247 0.551555 0.418081 0.170238
H73   H     H_    0.746703 0.915113 0.658519 0.130220
H74   H     H_    0.747059 0.084819 0.658343 0.123234
H75   H     H_    0.246703 0.415113 0.658519 0.130220
H76   H     H_    0.247059 0.584819 0.658343 0.123234
H77   H     H_    0.563963 0.964196 0.620115 0.215950
H78   H     H_    0.563494 0.036967 0.618775 0.222915
H79   H     H_    0.063963 0.464196 0.620115 0.215949
H80   H     H_    0.063494 0.536967 0.618775 0.222915
H81   H     H_    0.066435 0.087382 0.331894 0.095097
H82   H     H_    0.062037 0.913042 0.332172 0.107010
H83   H     H_    0.566434 0.587382 0.331893 0.095098
H84   H     H_    0.562036 0.413042 0.332172 0.107003
H85   H     H_    0.290312 0.912264 0.263750 0.116341
H86   H     H_    0.290171 0.087747 0.263385 0.117827
H87   H     H_    0.790312 0.412264 0.263750 0.116341
H88   H     H_    0.790171 0.587747 0.263385 0.117827
H89   H     H_    0.024129 0.088292 0.736813 0.097796
H90   H     H_    0.023243 0.912532 0.732936 0.097056
H91   H     H_    0.524129 0.588292 0.736814 0.097794
H92   H     H_    0.523244 0.412532 0.732937 0.097056
H93   H     H_    0.023223 0.834896 0.826713 0.103005
H94   H     H_    0.022160 0.165547 0.826892 0.105474
H95   H     H_    0.523223 0.334896 0.826713 0.103004
H96   H     H_    0.522160 0.665546 0.826892 0.105473
H97   H     H_    0.183759 0.163721 0.179223 0.128107
H98   H     H_    0.184587 0.836338 0.179216 0.131680
H99   H     H_    0.683759 0.663721 0.179223 0.128107
H100  H     H_    0.684587 0.336338 0.179217 0.131680
N1    N     N_R   0.950530 0.896220 0.057200 -0.053713
N2    N     N_R   0.950530 0.103780 0.057200 -0.051431
N3    N     N_R   0.450530 0.396220 0.057200 -0.053713
N4    N     N_R   0.450530 0.603780 0.057200 -0.051432
N5    N     N_R   0.893330 0.103780 0.942800 -0.063217
N6    N     N_R   0.893330 0.896220 0.942800 -0.066166
N7    N     N_R   0.393330 0.603780 0.942800 -0.063216
N8    N     N_R   0.393330 0.396220 0.942800 -0.066166
N9    N     N_R   0.818150 0.971400 0.792440 -0.047561
N10   N     N_R   0.818150 0.028600 0.792440 -0.049448
N11   N     N_R   0.318150 0.471400 0.792440 -0.047561
N12   N     N_R   0.318150 0.528600 0.792440 -0.049448
N13   N     N_R   0.025710 0.028600 0.207560 -0.038195
N14   N     N_R   0.025710 0.971400 0.207560 -0.036078
N15   N     N_R   0.525710 0.528600 0.207560 -0.038197
N16   N     N_R   0.525710 0.471400 0.207560 -0.036079
N17   N     N_R   0.181850 0.971400 0.207560 -0.039745
N18   N     N_R   0.181850 0.028600 0.207560 -0.042423
N19   N     N_R   0.681850 0.471400 0.207560 -0.039745
N20   N     N_R   0.681850 0.528600 0.207560 -0.042423
N21   N     N_R   0.974290 0.028600 0.792440 -0.043510
N22   N     N_R   0.974290 0.971400 0.792440 -0.044091
N23   N     N_R   0.474290 0.528600 0.792440 -0.043510
N24   N     N_R   0.474290 0.471400 0.792440 -0.044091
N25   N     N_R   0.049470 0.896220 0.942800 -0.039468
N26   N     N_R   0.049470 0.103780 0.942800 -0.039026
N27   N     N_R   0.549470 0.396220 0.942800 -0.039468
N28   N     N_R   0.549470 0.603780 0.942800 -0.039026
N29   N     N_R   0.106670 0.103780 0.057200 -0.039865
N30   N     N_R   0.106670 0.896220 0.057200 -0.040278
N31   N     N_R   0.606670 0.603780 0.057200 -0.039865
N32   N     N_R   0.606670 0.396220 0.057200 -0.040278
Ni1   Ni    Ni4+2 0.065600 0.934400 0.131190 0.234786
Ni2   Ni    Ni4+2 0.065600 0.065600 0.131190 0.223660
Ni3   Ni    Ni4+2 0.565600 0.434400 0.131190 0.234785
Ni4   Ni    Ni4+2 0.565600 0.565600 0.131190 0.223659
Ni5   Ni    Ni4+2 0.934400 0.065600 0.868810 0.243494
Ni6   Ni    Ni4+2 0.934400 0.934400 0.868810 0.243043
Ni7   Ni    Ni4+2 0.434400 0.565600 0.868810 0.243494
Ni8   Ni    Ni4+2 0.434400 0.434400 0.868810 0.243043
C113  C     C_2   0.618206 0.122609 0.935923 1.048576
O1    O     O_2   0.583496 0.090427 0.859174 -0.584248
O2    O     O_R   0.625209 0.108741 0.030633 -0.821959
H101  H     H_    0.599889 0.070980 0.025995 0.329426
C114  C     C_2   0.619611 0.877543 0.935958 1.066599
O3    O     O_2   0.583162 0.909168 0.858105 -0.586473
O4    O     O_R   0.629290 0.892345 0.031897 -0.808688
H102  H     H_    0.604679 0.930325 0.027295 0.336415
C115  C     C_2   0.118206 0.622609 0.935920 1.048580
O5    O     O_2   0.083494 0.590427 0.859169 -0.584249
O6    O     O_R   0.125210 0.608739 0.030630 -0.821954
H103  H     H_    0.099888 0.570979 0.025990 0.329423
C116  C     C_2   0.119612 0.377543 0.935958 1.066598
O7    O     O_2   0.083162 0.409168 0.858105 -0.586477
O8    O     O_R   0.129291 0.392345 0.031897 -0.808684
H104  H     H_    0.104679 0.430325 0.027296 0.336413
C117  C     C_2   0.742103 0.145259 0.792316 0.888138
O9    O     O_2   0.659785 0.129721 0.737582 -0.648228
O10   O     O_R   0.773432 0.178624 0.744745 -0.820912
H105  H     H_    0.720567 0.188570 0.665404 0.324497
C118  C     C_2   0.743034 0.853766 0.792328 0.893987
O11   O     O_2   0.770560 0.824321 0.751178 -0.665055
O12   O     O_R   0.649055 0.871839 0.728979 -0.798760
H106  H     H_    0.609691 0.856150 0.651503 0.315902
C119  C     C_2   0.242104 0.645259 0.792316 0.888139
O13   O     O_2   0.159786 0.629722 0.737582 -0.648228
O14   O     O_R   0.273433 0.678624 0.744746 -0.820911
H107  H     H_    0.220569 0.688571 0.665405 0.324497
C120  C     C_2   0.243034 0.353766 0.792328 0.893987
O15   O     O_2   0.270560 0.324321 0.751178 -0.665054
O16   O     O_R   0.149055 0.371839 0.728979 -0.798760
H108  H     H_    0.109691 0.356150 0.651503 0.315903
C121  C     C_2   0.327584 0.785391 0.217454 0.978856
O17   O     O_2   0.379466 0.807586 0.199307 -0.661569
O18   O     O_R   0.343219 0.793035 0.319220 -0.806457
H109  H     H_    0.398530 0.818229 0.370041 0.316163
C122  C     C_2   0.326983 0.214171 0.217640 0.971448
O19   O     O_2   0.378471 0.191489 0.199416 -0.658892
O20   O     O_R   0.342614 0.206822 0.319471 -0.816409
H110  H     H_    0.397603 0.181421 0.370297 0.319912
C123  C     C_2   0.827585 0.285391 0.217453 0.978858
O21   O     O_2   0.879467 0.307586 0.199306 -0.661569
O22   O     O_R   0.843220 0.293036 0.319220 -0.806455
H111  H     H_    0.898531 0.318230 0.370040 0.316163
C124  C     C_2   0.826982 0.714171 0.217640 0.971448
O23   O     O_2   0.878471 0.691489 0.199416 -0.658891
O24   O     O_R   0.842614 0.706822 0.319471 -0.816409
H112  H     H_    0.897603 0.681421 0.370297 0.319913
H113  H     H_    0.468399 0.948708 0.273279 0.177449
H114  H     H_    0.468046 0.051603 0.273165 0.177084
H115  H     H_    0.968399 0.448707 0.273280 0.177449
H116  H     H_    0.968046 0.551603 0.273165 0.177084
H117  H     H_    0.599677 0.911109 0.498677 0.163231
H118  H     H_    0.599994 0.089027 0.498404 0.174591
H119  H     H_    0.099677 0.411109 0.498677 0.163231
H120  H     H_    0.099993 0.589027 0.498404 0.174592
H121  H     H_    0.409060 0.963320 0.478225 0.175231
H122  H     H_    0.408219 0.036259 0.477948 0.184633
H123  H     H_    0.909060 0.463320 0.478225 0.175231
H124  H     H_    0.908219 0.536259 0.477947 0.184634
C125  C     C_2   0.888495 0.027807 0.333252 1.024036
O25   O     O_2   0.885884 0.076133 0.350435 -0.663607
O26   O     O_R   0.823035 0.006341 0.227570 -0.795165
H125  H     H_    0.778375 0.034975 0.172162 0.337821
C126  C     C_2   0.231353 0.953665 0.583766 1.034681
O27   O     O_2   0.287930 0.988580 0.646163 -0.626359
O28   O     O_R   0.259938 0.912703 0.544972 -0.808675
H126  H     H_    0.328581 0.916717 0.573349 0.336570
C127  C     C_2   0.388489 0.527797 0.333245 1.024042
O29   O     O_2   0.385872 0.576123 0.350417 -0.663608
O30   O     O_R   0.323028 0.506325 0.227569 -0.795166
H127  H     H_    0.278362 0.534955 0.172157 0.337822
C128  C     C_2   0.731359 0.453674 0.583773 1.034685
O31   O     O_2   0.787930 0.488592 0.646169 -0.626360
O32   O     O_R   0.759953 0.412715 0.544983 -0.808673
H128  H     H_    0.828596 0.416733 0.573363 0.336571

loop_
_geom_bond_atom_site_label_1
_geom_bond_atom_site_label_2
_ccdc_geom_bond_type
N3    Ni3   S    
C55   C59   S    
C15   C109  A    
C77   C101  A    
N11   N12   A    
N4    N7    A    
C42   C58   S    
C68   H64   S    
N16   Ni3   S    
C6    N26   A    
C42   C48   S    
N5    Ni5   S    
N25   N30   A    
C46   C62   S    
C42   C114  S    
C107  N19   A    
C86   C88   S    
C3    N3    A    
O10   H105  S    
C62   C70   S    
C26   H14   S    
C21   H5    S    
N12   Ni7   S    
C17   C61   S    
N15   Ni4   S    
O20   H110  S    
C19   C63   S    
C32   C104  S    
C79   C102  A    
C36   C97   A    
C78   H74   S    
C75   H67   S    
N18   Ni2   S    
C23   C127  S    
C105  H85   S    
C78   C101  A    
N6    Ni6   S    
N22   Ni6   S    
C1    H1    S    
C35   C117  S    
C92   H80   S    
C73   C81   S    
C44   C46   S    
C40   H23   S    
C11   C20   A    
C24   H8    S    
N30   Ni1   S    
O30   H127  S    
C111  H91   S    
C106  N18   A    
C24   C32   S    
N17   N18   A    
C90   C92   S    
N15   N16   A    
C74   H66   S    
C83   H71   S    
C85   H122  S    
C52   C58   S    
C14   C107  A    
C63   C71   S    
C2    N2    A    
C7    C19   A    
N8    Ni8   S    
C112  H92   S    
C75   H115  S    
C53   C71   S    
C76   H116  S    
N14   Ni1   S    
C113  O2    S    
C22   H6    S    
C96   C104  A    
C56   H52   S    
C89   C101  S    
C94   H82   S    
C72   H54   S    
N19   Ni3   S    
C13   C106  A    
C44   C116  S    
N4    Ni4   S    
C47   H29   S    
N32   Ni3   S    
C110  H90   S    
C14   C88   S    
C121  O18   S    
N3    N8    A    
C2    H2    S    
C46   H34   S    
C24   C128  S    
C95   N15   A    
C55   H51   S    
C61   C65   S    
N9    Ni6   S    
N28   Ni7   S    
N31   Ni4   S    
C66   H62   S    
C25   H9    S    
C30   H19   S    
C16   C111  A    
C39   H22   S    
C109  N21   A    
N11   Ni8   S    
C20   C64   S    
C4    N4    A    
C11   N31   A    
C9    N29   A    
C72   C124  S    
C52   H60   S    
C81   H117  S    
C91   H77   S    
N9    N10   A    
C82   C89   S    
C45   H33   S    
C96   N16   A    
C23   H7    S    
C115  O5    D    
C125  O26   S    
C41   C113  S    
C114  O3    D    
C71   C123  S    
C45   C61   S    
C128  O32   S    
C90   C102  S    
C65   H41   S    
C38   C120  S    
C16   C34   S    
C10   H98   S    
C29   H17   S    
C12   N32   A    
C74   C87   S    
C89   C91   S    
N21   N22   A    
C92   H79   S    
C43   C59   S    
N17   Ni1   S    
C119  O13   D    
C29   C31   S    
C59   C100  S    
C124  O24   S    
C84   C90   S    
N24   Ni8   S    
C35   N5    A    
C118  O11   D    
C8    N28   A    
C80   H76   S    
C86   H123  S    
C47   H35   S    
C62   C66   S    
C48   H30   S    
C84   H72   S    
C7    H95   S    
C18   C62   S    
C46   H32   S    
C80   C102  A    
N20   Ni4   S    
C123  O21   D    
C93   N13   A    
C116  O8    S    
C26   C33   S    
O14   H107  S    
C13   C87   S    
C122  O19   D    
C41   C47   S    
C110  N22   A    
C51   C67   S    
N1    Ni1   S    
C43   C45   S    
C55   C69   S    
C78   N10   A    
C51   C57   S    
C127  O29   D    
C73   H113  S    
N25   Ni6   S    
C108  N20   A    
N13   Ni2   S    
C21   C25   S    
N27   Ni8   S    
C24   C28   S    
O8    H104  S    
C28   H12   S    
C79   N11   A    
C120  O16   S    
C82   H70   S    
C49   C59   S    
C50   C60   S    
C119  O14   S    
C107  H87   S    
C30   H20   S    
C14   C108  A    
C118  O12   S    
C6    H94   S    
C28   C34   S    
C3    C99   A    
C9    C18   A    
C71   H53   S    
O16   H108  S    
C37   C100  A    
O4    H102  S    
C37   C119  S    
C22   C126  S    
C69   C121  S    
C21   C125  S    
C42   H26   S    
O12   H106  S    
C76   C84   S    
N21   Ni5   S    
O6    H103  S    
C40   H24   S    
N26   N29   A    
C5    N25   A    
C47   C63   S    
C48   C64   S    
C5    C17   A    
C67   H43   S    
C126  O28   S    
C25   H13   S    
C73   C87   S    
C27   H15   S    
C67   H63   S    
C111  N23   A    
N23   N24   A    
C81   H69   S    
C35   C98   A    
C41   H25   S    
C106  H86   S    
C81   C89   S    
C82   H118  S    
C55   H47   S    
C51   H39   S    
O26   H125  S    
C44   H28   S    
N7    Ni7   S    
C117  O9    D    
C15   C110  A    
C93   C103  A    
C74   C82   S    
N29   Ni2   S    
C13   C105  A    
C36   N6    A    
O22   H111  S    
C66   H42   S    
C53   C57   S    
C85   H121  S    
C112  N24   A    
N28   N31   A    
C56   C60   S    
C105  N17   A    
O24   H112  S    
C69   H55   S    
C121  O17   D    
C70   H56   S    
C80   N12   A    
C21   C31   S    
O18   H109  S    
N1    N6    A    
C50   H58   S    
C8    C20   A    
C49   C65   S    
C94   C103  A    
C1    N1    A    
C37   N7    A    
C64   C68   S    
C36   C118  S    
C16   C112  A    
C84   H120  S    
C39   H21   S    
C95   H83   S    
C4    H4    S    
C93   H81   S    
C38   C99   A    
C76   H68   S    
C23   C32   S    
C109  H89   S    
C41   C57   S    
O32   H128  S    
C3    H3    S    
C49   H57   S    
C75   C83   S    
C125  O25   D    
C113  O1    D    
C44   C60   S    
C57   C98   S    
C12   C19   A    
C51   H59   S    
C74   H114  S    
C128  O31   D    
C94   N14   A    
O28   H126  S    
C96   H84   S    
C56   H48   S    
C22   C26   S    
C45   H31   S    
C26   H10   S    
C28   H16   S    
C77   H73   S    
C124  O23   D    
C10   N30   A    
N23   Ni7   S    
C60   C99   S    
C85   C91   S    
C86   H124  S    
C33   C39   S    
C79   H75   S    
C34   C40   S    
C10   C17   A    
C8    H96   S    
C11   H99   S    
C9    H97   S    
C127  O30   S    
C43   H27   S    
N27   N32   A    
C23   C27   S    
C116  O7    D    
C76   C88   S    
C52   C68   S    
C52   H40   S    
C73   H65   S    
C58   C97   S    
C85   C87   S    
C27   C34   S    
C6    C18   A    
C91   H78   S    
C63   C67   S    
C22   C31   S    
C70   C122  S    
C38   N8    A    
C12   H100  S    
C1    C97   A    
C115  O6    S    
C27   H11   S    
C120  O15   D    
C114  O4    S    
C31   C103  S    
C108  H88   S    
C54   H46   S    
C50   H38   S    
C29   H18   S    
C83   H119  S    
C29   C39   S    
N13   N14   A    
C30   C40   S    
N2    Ni2   S    
C54   H50   S    
C50   C66   S    
C77   N9    A    
C7    N27   A    
C56   C70   S    
C4    C100  A    
N26   Ni5   S    
O2    H101  S    
C95   C104  A    
C54   C58   S    
C61   C69   S    
C83   C90   S    
C65   H61   S    
C68   H44   S    
N2    N5    A    
C53   H45   S    
C49   H37   S    
C117  O10   S    
C123  O22   S    
C86   C92   S    
C30   C32   S    
C53   H49   S    
C48   H36   S    
C122  O20   S    
C43   C115  S    
C64   C72   S    
C126  O27   D    
C5    H93   S    
N10   Ni5   S    
C75   C88   S    
C54   C72   S    
C2    C98   A    
C25   C33   S    
N19   N20   A    
C15   C33   S    
