data_mof_unit_35390.cif
_audit_creation_date              2012-12-10T16:49:27-0500
_audit_creation_method            fapswitch 2.2
_symmetry_space_group_name_H-M    P1
_symmetry_Int_Tables_number       1
_space_group_crystal_system       triclinic
_cell_length_a                    19.300457
_cell_length_b                    8.743
_cell_length_c                    7.500021
_cell_angle_alpha                 103.154583
_cell_angle_beta                  95.044917
_cell_angle_gamma                 93.595133
_cell_volume                      1223.12736469

loop_
_atom_site_label
_atom_site_type_symbol
_atom_type_description
_atom_site_fract_x
_atom_site_fract_y
_atom_site_fract_z
_atom_type_partial_charge
C1    C     C_R   0.496013 0.199988 0.453609 0.794305
C2    C     C_R   0.503987 0.800012 0.546391 0.794305
C3    C     C_2   0.487186 0.031489 0.430939 0.187327
C4    C     C_2   0.512814 0.968511 0.569061 0.187327
C5    C     C_R   0.367849 0.499846 0.500920 0.783152
C6    C     C_R   0.632151 0.500154 0.499080 0.783152
C7    C     C_R   0.262846 0.625033 0.620612 0.373653
C8    C     C_R   0.737154 0.374964 0.379389 0.373653
C9    C     C_R   0.190312 0.621205 0.623800 -0.064672
C10   C     C_R   0.809688 0.378791 0.376202 -0.064672
C11   C     C_R   0.146283 0.497648 0.505645 -0.117628
C12   C     C_R   0.853717 0.502348 0.494356 -0.117628
C13   C     C_R   0.175247 0.374307 0.387336 -0.058976
C14   C     C_R   0.824753 0.625691 0.612664 -0.058976
C15   C     C_R   0.248007 0.375402 0.386185 -0.109516
C16   C     C_R   0.751993 0.624597 0.613814 -0.109516
C17   C     C_R   0.291938 0.500591 0.502374 -0.172011
C18   C     C_R   0.708062 0.499408 0.497626 -0.172011
C19   C     C_R   0.929970 0.501079 0.497037 0.415086
C20   C     C_R   0.070030 0.498917 0.502964 0.415086
Cu1   Cu    Cu3+1 0.507710 0.517380 0.684380 1.006976
Cu2   Cu    Cu3+1 0.492290 0.482620 0.315620 1.006977
N1    N     N_R   0.029646 0.486576 0.342064 -0.195849
N2    N     N_R   0.970354 0.513419 0.657937 -0.195849
N3    N     N_R   0.960711 0.487598 0.339099 -0.205877
N4    N     N_R   0.039288 0.512397 0.660903 -0.205877
N5    N     N_2   0.480680 0.456420 0.038530 -0.211357
N6    N     N_2   0.519320 0.543580 0.961470 -0.211357
O1    O     O_R   0.505010 0.286130 0.619770 -0.542634
O2    O     O_R   0.494990 0.713870 0.380230 -0.542633
O3    O     O_R   0.491990 0.256780 0.308370 -0.612102
O4    O     O_R   0.508010 0.743220 0.691630 -0.612102
O5    O     O_R   0.406650 0.514660 0.655750 -0.588755
O6    O     O_R   0.593350 0.485340 0.344250 -0.588755
O7    O     O_R   0.393640 0.485310 0.344340 -0.578371
O8    O     O_R   0.606360 0.514690 0.655660 -0.578371
O9    O     O_3   0.303164 0.753850 0.731971 -0.698765
H1    H     H_    0.348795 0.765782 0.683933 0.331838
O10   O     O_3   0.696836 0.246148 0.268031 -0.698764
H2    H     H_    0.651204 0.234217 0.316070 0.331836
C21   C     C_1   0.161463 0.751052 0.742660 0.385852
N7    N     N_1   0.138474 0.854858 0.837582 -0.211353
C22   C     C_1   0.838536 0.248942 0.257344 0.385851
N8    N     N_1   0.861525 0.145134 0.162425 -0.211354
C23   C     C_1   0.130362 0.243271 0.271290 0.312778
N9    N     N_1   0.094558 0.138861 0.178943 -0.201280
C24   C     C_1   0.869638 0.756726 0.728709 0.312778
N10   N     N_1   0.905442 0.861136 0.821057 -0.201280
C25   C     C_1   0.277553 0.245012 0.269046 0.286312
N11   N     N_1   0.300946 0.140986 0.175600 -0.236513
C26   C     C_1   0.722448 0.754988 0.730951 0.286311
N12   N     N_1   0.699055 0.859017 0.824395 -0.236512
O11   O     O_3   0.449490 0.937850 0.273357 -0.719148
H3    H     H_    0.431167 0.004671 0.192787 0.356885
O12   O     O_3   0.550510 0.062150 0.726643 -0.719148
H4    H     H_    0.568833 0.995329 0.807213 0.356885
C27   C     C_1   0.430390 0.347699 0.927484 0.609123
N13   N     N_1   0.388135 0.256220 0.836757 -0.318480
C28   C     C_1   0.569610 0.652300 0.072515 0.609123
N14   N     N_1   0.611865 0.743780 0.163243 -0.318480

loop_
_geom_bond_atom_site_label_1
_geom_bond_atom_site_label_2
_ccdc_geom_bond_type
C2    C4    S    
C22   N8    T    
C20   N1    A    
C15   C17   A    
C14   C24   S    
C26   N12   T    
C8    O10   S    
C6    O8    A    
C3    O11   S    
C21   N7    T    
C9    C21   S    
C24   N10   T    
C16   C26   S    
C1    O3    A    
C2    O2    A    
O12   H4    S    
C1    O1    A    
C19   N2    A    
C7    O9    S    
C28   N14   T    
C4    O12   S    
Cu1   O8    S    
C23   N9    T    
C13   C23   S    
Cu2   O7    S    
C9    C11   A    
C27   N13   T    
O9    H1    S    
C20   N4    A    
C19   N3    A    
C10   C12   A    
C12   C19   S    
C8    C10   A    
Cu1   O4    S    
Cu1   N6    S    
C12   C14   A    
C1    C3    S    
Cu2   N5    S    
C15   C25   S    
C13   C15   A    
Cu2   O6    S    
C6    C18   S    
C14   C16   A    
C11   C20   S    
Cu1   O5    S    
Cu2   O3    S    
C3    C4    D    
C5    O7    A    
C11   C13   A    
N1    N3    A    
C5    C17   S    
C2    O4    A    
C25   N11   T    
N5    C27   S    
N6    C28   S    
O10   H2    S    
C7    C9    A    
Cu2   O2    S    
C7    C17   A    
C10   C22   S    
Cu1   Cu2   S    
Cu1   O1    S    
C16   C18   A    
C8    C18   A    
C6    O6    A    
O11   H3    S    
N2    N4    A    
N5    N6    D    
C5    O5    A    
