data_mof_unit_14359.cif
_audit_creation_date              2012-12-10T21:27:29-0500
_audit_creation_method            fapswitch 2.2
_symmetry_space_group_name_H-M    P1
_symmetry_Int_Tables_number       1
_space_group_crystal_system       triclinic
_cell_length_a                    10.871773
_cell_length_b                    16.18767
_cell_length_c                    16.894104
_cell_angle_alpha                 87.259519
_cell_angle_beta                  93.29755
_cell_angle_gamma                 107.218498
_cell_volume                      2833.7419729

loop_
_atom_site_label
_atom_site_type_symbol
_atom_type_description
_atom_site_fract_x
_atom_site_fract_y
_atom_site_fract_z
_atom_type_partial_charge
C1    C     C_R   0.498768 0.488323 0.652648 0.918660
C2    C     C_R   0.502283 0.511943 0.346393 0.916033
C3    C     C_R   0.575795 0.453652 0.787195 -0.079901
C4    C     C_R   0.452878 0.582272 0.214630 -0.105392
C5    C     C_R   0.412604 0.736395 0.470214 -0.085637
C6    C     C_R   0.588241 0.263505 0.528658 -0.081419
C7    C     C_R   0.400466 0.819819 0.463633 -0.311910
C8    C     C_R   0.596763 0.179304 0.538502 -0.300891
C9    C     C_R   0.495240 0.889560 0.496009 0.228037
C10   C     C_R   0.495513 0.109224 0.512715 0.223018
C11   C     C_R   0.603369 0.873289 0.538453 -0.103651
C12   C     C_R   0.382923 0.125427 0.477530 -0.056701
C13   C     C_R   0.609717 0.785294 0.547055 0.495856
C14   C     C_R   0.384240 0.213485 0.459997 0.503643
C15   C     C_R   0.743329 0.536762 0.498240 0.815114
C16   C     C_R   0.256396 0.463204 0.499415 0.807214
C17   C     C_2   0.879583 0.558899 0.484912 0.306577
C18   C     C_2   0.119448 0.440114 0.509775 0.315373
C19   C     C_2   0.935932 0.498213 0.508276 -0.263563
C20   C     C_2   0.063395 0.500893 0.486497 -0.279810
C21   C     C_R   0.481851 0.477304 0.737691 -0.146568
C22   C     C_R   0.496204 0.517246 0.258528 -0.184203
C23   C     C_R   0.371418 0.491155 0.768878 0.011052
C24   C     C_R   0.518629 0.448367 0.217853 0.087341
C25   C     C_R   0.356589 0.482942 0.851835 0.063488
C26   C     C_R   0.454345 0.427029 0.143706 0.069149
C27   C     C_R   0.464367 0.475806 0.901804 0.110968
C28   C     C_R   0.408957 0.489872 0.100946 0.111633
C29   C     C_R   0.573051 0.461141 0.869707 0.407451
C30   C     C_R   0.418979 0.570570 0.132771 0.422315
H1    H     H_    0.118275 0.557386 0.453280 0.216740
H2    H     H_    0.882549 0.442804 0.543389 0.216684
H3    H     H_    0.665355 0.315298 0.553520 0.193427
H4    H     H_    0.339770 0.685329 0.440810 0.191463
H5    H     H_    0.681118 0.168401 0.569151 0.198651
H6    H     H_    0.318772 0.830772 0.429717 0.202631
N1    N     N_2   0.476242 0.489239 0.984104 -0.051363
N2    N     N_2   0.376298 0.477526 0.020238 -0.157323
N3    N     N_R   0.515370 0.719110 0.509820 -0.147960
N4    N     N_R   0.484630 0.280890 0.490180 -0.156758
N5    N     N_2   0.485785 0.974796 0.475556 -0.159726
N6    N     N_2   0.503695 0.023902 0.532725 -0.182693
O1    O     O_R   0.494500 0.421750 0.612630 -0.631737
O2    O     O_R   0.505500 0.578250 0.387370 -0.637056
O3    O     O_R   0.504370 0.562470 0.618930 -0.566015
O4    O     O_R   0.495630 0.437530 0.381070 -0.571991
O5    O     O_R   0.679100 0.455920 0.498020 -0.684325
O6    O     O_R   0.320900 0.544080 0.501980 -0.689001
O7    O     O_R   0.688960 0.596630 0.504320 -0.480325
O8    O     O_R   0.311040 0.403370 0.495680 -0.479914
Zn1   Zn    Zn3+2 0.493410 0.406040 0.495790 1.022612
Zn2   Zn    Zn3+2 0.506590 0.593960 0.504210 1.023211
S1    S     S_3+6 0.746067 0.763466 0.599269 0.019469
O9    O     O_2   0.713435 0.675140 0.637915 -0.273382
O10   O     O_2   0.847667 0.771191 0.540717 -0.271241
O11   O     O_3   0.810808 0.832630 0.671826 -0.609097
H7    H     H_    0.887190 0.815963 0.693171 0.385675
S2    S     S_3+6 0.256961 0.232679 0.397245 0.006884
O12   O     O_2   0.137420 0.213718 0.443649 -0.261130
O13   O     O_2   0.286447 0.322622 0.362324 -0.294163
O14   O     O_3   0.227553 0.165053 0.321196 -0.636925
H8    H     H_    0.145977 0.169815 0.294934 0.380804
S3    S     S_3+6 0.043121 0.344494 0.565781 -0.001983
O15   O     O_2   0.995165 0.368806 0.640276 -0.401805
O16   O     O_2   0.931031 0.289672 0.517250 -0.303102
O17   O     O_3   0.146788 0.287567 0.591579 -0.514587
H9    H     H_    0.094763 0.234815 0.619722 0.370712
S4    S     S_3+6 0.953922 0.652230 0.425385 0.009561
O18   O     O_2   0.063131 0.710916 0.473134 -0.320979
O19   O     O_2   0.005814 0.626226 0.353016 -0.347031
O20   O     O_3   0.847226 0.705318 0.395282 -0.537174
H10   H     H_    0.898253 0.758156 0.366807 0.379835
C31   C     C_3   0.613510 0.400039 0.251374 -0.405028
C32   C     C_3   0.746661 0.461830 0.274476 -0.310184
C33   C     C_3   0.837339 0.411663 0.309016 -0.756078
H11   H     H_    0.799481 0.376092 0.364592 0.271303
H12   H     H_    0.847929 0.364957 0.265733 0.256815
H13   H     H_    0.933969 0.457131 0.322828 0.281295
H14   H     H_    0.789145 0.500058 0.221055 0.261624
H15   H     H_    0.738976 0.507714 0.319261 0.229145
H16   H     H_    0.573902 0.355670 0.301741 0.234698
H17   H     H_    0.631382 0.357194 0.207303 0.207913
C34   C     C_3   0.268594 0.513114 0.713190 -0.354141
C35   C     C_3   0.277733 0.609545 0.716039 -0.363887
C36   C     C_3   0.176696 0.632530 0.660061 -0.750239
H18   H     H_    0.196182 0.624384 0.597656 0.279688
H19   H     H_    0.078457 0.590849 0.673537 0.270448
H20   H     H_    0.180929 0.701181 0.667080 0.258920
H21   H     H_    0.264379 0.626651 0.777160 0.240946
H22   H     H_    0.374953 0.649570 0.698605 0.256557
H23   H     H_    0.276570 0.497656 0.651443 0.205410
H24   H     H_    0.170990 0.470959 0.726065 0.234758
C37   C     C_3   0.434150 0.338249 0.108401 -0.397288
C38   C     C_3   0.353562 0.264923 0.161531 -0.331268
C39   C     C_3   0.328323 0.177223 0.123929 -0.825668
H25   H     H_    0.273898 0.176013 0.066078 0.253766
H26   H     H_    0.420892 0.163892 0.114637 0.265420
H27   H     H_    0.270425 0.125473 0.163721 0.279482
H28   H     H_    0.403938 0.262695 0.220154 0.267587
H29   H     H_    0.259653 0.276381 0.171052 0.248238
H30   H     H_    0.381584 0.332887 0.049782 0.213289
H31   H     H_    0.527596 0.327804 0.096554 0.237744
C40   C     C_3   0.223923 0.474144 0.884295 -0.328567
C41   C     C_3   0.153542 0.378488 0.902509 -0.433442
C42   C     C_3   0.019441 0.366943 0.931904 -0.735703
H32   H     H_    0.025724 0.403614 0.986661 0.273236
H33   H     H_    0.960275 0.390074 0.885228 0.287346
H34   H     H_    0.971758 0.297349 0.945330 0.254756
H35   H     H_    0.143819 0.341270 0.847663 0.241340
H36   H     H_    0.209320 0.350950 0.948046 0.233545
H37   H     H_    0.228317 0.514752 0.935509 0.262876
H38   H     H_    0.160670 0.500059 0.843514 0.197155
S5    S     S_3+6 0.708493 0.453241 0.933106 -0.005253
O21   O     O_2   0.698612 0.472092 0.018393 -0.291722
O22   O     O_2   0.720602 0.363415 0.929899 -0.356090
O23   O     O_3   0.842908 0.524856 0.899396 -0.560504
H39   H     H_    0.911789 0.523559 0.940021 0.389356
S6    S     S_3+6 0.387360 0.655331 0.069449 0.013925
O24   O     O_2   0.401775 0.643122 0.983306 -0.285555
O25   O     O_2   0.251700 0.656365 0.080805 -0.313864
O26   O     O_3   0.489986 0.752229 0.092377 -0.569454
H40   H     H_    0.452090 0.795264 0.065375 0.387241
C43   C     C_3   0.673370 0.415682 0.752330 -0.286551
C44   C     C_3   0.618949 0.316525 0.750831 -0.364606
C45   C     C_3   0.722495 0.273977 0.734929 -0.796246
H41   H     H_    0.799879 0.288589 0.782548 0.284182
H42   H     H_    0.679084 0.202728 0.733155 0.239034
H43   H     H_    0.764791 0.297572 0.677114 0.289518
H44   H     H_    0.577058 0.290325 0.808531 0.254896
H45   H     H_    0.540420 0.298160 0.704161 0.235190
H46   H     H_    0.699207 0.442157 0.691753 0.178952
H47   H     H_    0.767144 0.433857 0.785811 0.270507
C46   C     C_3   0.448165 0.665135 0.252428 -0.289027
C47   C     C_3   0.584947 0.727890 0.264355 -0.276830
C48   C     C_3   0.582900 0.819698 0.279041 -0.828346
H48   H     H_    0.539106 0.846423 0.226711 0.284592
H49   H     H_    0.526947 0.820218 0.331465 0.259958
H50   H     H_    0.682962 0.861861 0.290028 0.252917
H51   H     H_    0.636763 0.705429 0.315230 0.260439
H52   H     H_    0.641272 0.729868 0.211070 0.267204
H53   H     H_    0.387152 0.697851 0.216548 0.261319
H54   H     H_    0.395767 0.651539 0.307954 0.192083
C49   C     C_3   0.716924 0.949851 0.564037 -0.308830
C50   C     C_3   0.706289 0.978967 0.648490 -0.270878
C51   C     C_3   0.832755 0.042996 0.677530 -0.844618
H55   H     H_    0.911994 0.012473 0.680242 0.281563
H56   H     H_    0.858277 0.101090 0.637063 0.267566
H57   H     H_    0.822209 0.063790 0.737824 0.250985
H58   H     H_    0.629762 0.010883 0.650591 0.211325
H59   H     H_    0.679217 0.922924 0.690929 0.273357
H60   H     H_    0.808754 0.934518 0.559040 0.241562
H61   H     H_    0.726547 0.005613 0.521474 0.203720
C52   C     C_3   0.260208 0.049688 0.468179 -0.310019
C53   C     C_3   0.206553 0.015058 0.549324 -0.440463
C54   C     C_3   0.090292 0.935174 0.540606 -0.723499
H62   H     H_    0.014027 0.950173 0.501053 0.258117
H63   H     H_    0.119197 0.881916 0.515479 0.298030
H64   H     H_    0.050950 0.913540 0.599749 0.263824
H65   H     H_    0.280473 0.997436 0.588958 0.247375
H66   H     H_    0.176978 0.066122 0.578125 0.241975
H67   H     H_    0.181792 0.066770 0.433556 0.267772
H68   H     H_    0.278647 0.997659 0.434711 0.217219

loop_
_geom_bond_atom_site_label_1
_geom_bond_atom_site_label_2
_ccdc_geom_bond_type
C48   H50   S    
S3    O16   D    
N5    N6    D    
C1    C21   S    
C37   C38   S    
C43   H47   S    
C54   H63   S    
C31   C32   S    
C39   H25   S    
C15   O5    A    
C12   C52   S    
O1    Zn1   S    
C16   O6    A    
C51   H55   S    
C39   H27   S    
C48   H48   S    
C36   H18   S    
C2    O4    A    
C34   H24   S    
C42   H33   S    
C46   H54   S    
C50   H58   S    
C23   C34   S    
C24   C26   A    
O6    Zn2   S    
C47   H52   S    
C41   H35   S    
C24   C31   S    
C36   H20   S    
C27   C29   A    
S2    O13   D    
C49   C50   S    
O23   H39   S    
C40   H37   S    
C7    H6    S    
C3    C29   A    
S6    O24   D    
C50   H59   S    
C1    O1    A    
C19   C20   S    
C2    O2    A    
S4    O18   D    
C2    C22   S    
C45   H43   S    
C38   H29   S    
C26   C28   A    
C18   C20   D    
S5    O23   S    
O2    Zn2   S    
S2    O14   S    
C36   H19   S    
O17   H9    S    
S3    O17   S    
C32   H15   S    
C54   H64   S    
C38   C39   S    
C35   H22   S    
C19   H2    S    
C31   H16   S    
C41   C42   S    
C51   H56   S    
C3    C43   S    
C13   S1    S    
S1    O10   D    
C14   S2    S    
C42   H34   S    
C32   C33   S    
C43   C44   S    
C35   C36   S    
C37   H30   S    
C47   H51   S    
C5    C7    A    
C25   C40   S    
C6    C8    A    
C30   S6    S    
O3    Zn2   S    
S2    O12   D    
S1    O9    D    
O4    Zn1   S    
C52   H67   S    
C40   H38   S    
S6    O26   S    
C33   H11   S    
C53   H66   S    
N1    N2    D    
C4    C22   A    
C34   C35   S    
C28   N2    S    
O7    Zn2   S    
C5    H4    S    
O8    Zn1   S    
C53   C54   S    
C44   H45   S    
C10   N6    S    
C9    C11   A    
O26   H40   S    
C10   C12   A    
C16   C18   S    
C49   H61   S    
C12   C14   A    
C32   H14   S    
C21   C23   A    
C45   H41   S    
C6    N4    A    
C3    C21   A    
O11   H7    S    
C31   H17   S    
C40   C41   S    
C51   H57   S    
S5    O21   D    
S1    O11   S    
C48   H49   S    
C29   S5    S    
C17   S4    S    
C49   H60   S    
C43   H46   S    
C9    N5    S    
C16   O8    A    
C50   C51   S    
C37   H31   S    
O5    Zn1   S    
C39   H26   S    
C15   C17   S    
C47   C48   S    
C25   C27   A    
N4    Zn1   S    
C34   H23   S    
C42   H32   S    
C46   H53   S    
C6    H3    S    
C52   H68   S    
C5    N3    A    
C53   H65   S    
C41   H36   S    
C11   C13   A    
C1    O3    A    
C46   C47   S    
C38   H28   S    
C26   C37   S    
S4    O20   S    
C28   C30   A    
C17   C19   D    
C44   H44   S    
N3    Zn2   S    
C22   C24   A    
C15   O7    A    
O14   H8    S    
C18   S3    S    
C33   H13   S    
S6    O25   D    
C13   N3    A    
C14   N4    A    
S3    O15   D    
C7    C9    A    
O20   H10   S    
C23   C25   A    
C8    C10   A    
C35   H21   S    
C33   H12   S    
C54   H62   S    
C45   H42   S    
S4    O19   D    
C4    C46   S    
C52   C53   S    
C11   C49   S    
C8    H5    S    
C4    C30   A    
C27   N1    S    
C44   C45   S    
S5    O22   D    
C20   H1    S    
