data_mof_unit_9904.cif
_audit_creation_date              2012-10-26T18:51:05-0400
_audit_creation_method            fapswitch 2.2
_symmetry_space_group_name_H-M    P1
_symmetry_Int_Tables_number       1
_space_group_crystal_system       triclinic
_cell_length_a                    14.94574
_cell_length_b                    13.71816
_cell_length_c                    23.510875
_cell_angle_alpha                 90.30293
_cell_angle_beta                  89.26982
_cell_angle_gamma                 90.772215
_cell_volume                      4819.49663725

loop_
_atom_site_label
_atom_site_type_symbol
_atom_type_description
_atom_site_fract_x
_atom_site_fract_y
_atom_site_fract_z
_atom_type_partial_charge
C1    C     C_R   0.328920 0.499431 0.500725 0.550204
C2    C     C_R   0.490362 0.586843 0.702334 -0.149696
C3    C     C_R   0.902559 0.465519 0.698428 -0.100469
C4    C     C_R   0.853799 0.438172 0.747102 -0.094669
C5    C     C_R   0.805604 0.350135 0.747879 -0.085973
C6    C     C_R   0.806737 0.288886 0.700179 -0.118434
C7    C     C_R   0.855421 0.315941 0.651445 -0.108595
C8    C     C_R   0.096814 0.595022 0.350038 0.022467
C9    C     C_R   0.143535 0.684504 0.348587 -0.106482
C10   C     C_R   0.191485 0.712144 0.299684 -0.119286
C11   C     C_R   0.192719 0.650968 0.251946 -0.086242
C12   C     C_R   0.145376 0.562393 0.252871 -0.091631
C13   C     C_R   0.487690 0.587118 0.239332 -0.081676
C14   C     C_R   0.097285 0.534506 0.301698 -0.100255
C15   C     C_R   0.493283 0.586734 0.761510 -0.071712
C16   C     C_R   0.494629 0.499409 0.209098 0.235039
C17   C     C_R   0.511482 0.500683 0.790698 0.233019
C18   C     C_R   0.814717 0.534127 0.451902 -0.126342
C19   C     C_R   0.185231 0.465751 0.548194 -0.126758
C20   C     C_R   0.767230 0.501634 0.499617 -0.000875
C21   C     C_R   0.232715 0.498348 0.500479 -0.001157
C22   C     C_R   0.810894 0.468521 0.547594 -0.134652
C23   C     C_R   0.671062 0.500567 0.499327 0.549926
C24   C     C_R   0.189003 0.531497 0.452524 -0.134620
C25   C     C_R   0.904444 0.467582 0.548871 0.002008
C26   C     C_R   0.095457 0.532291 0.451249 0.001915
C27   C     C_R   0.499283 0.499790 0.390878 0.551808
C28   C     C_R   0.501196 0.500203 0.609084 0.551495
C29   C     C_R   0.953083 0.499870 0.500131 0.034968
C30   C     C_R   0.046835 0.499945 0.499986 0.035051
C31   C     C_R   0.907799 0.532360 0.451485 0.003661
C32   C     C_R   0.092125 0.467462 0.548630 0.003620
C33   C     C_R   0.950548 0.436585 0.597626 -0.024036
C34   C     C_R   0.501724 0.410891 0.238491 0.035967
C35   C     C_R   0.049318 0.563247 0.402501 -0.024267
C36   C     C_R   0.044048 0.437426 0.597042 -0.144053
C37   C     C_R   0.955844 0.562381 0.403083 -0.143740
C38   C     C_R   0.425396 0.792298 0.517027 0.032560
C39   C     C_R   0.574609 0.207699 0.482989 0.033452
C40   C     C_R   0.575039 0.794131 0.483349 0.033761
C41   C     C_R   0.424950 0.205872 0.516636 0.034911
C42   C     C_R   0.578015 0.897436 0.483464 -0.031866
C43   C     C_R   0.421974 0.102567 0.516537 -0.031384
C44   C     C_R   0.421978 0.895335 0.515883 -0.032969
C45   C     C_R   0.527845 0.414143 0.760140 0.032694
C46   C     C_R   0.578017 0.104663 0.484127 -0.032305
C47   C     C_R   0.499952 0.948302 0.499733 0.020139
C48   C     C_R   0.500036 0.051699 0.500267 0.020369
C49   C     C_R   0.657080 0.950566 0.468716 -0.030251
C50   C     C_R   0.342915 0.049436 0.531307 -0.030082
C51   C     C_R   0.342935 0.945940 0.530927 -0.030328
C52   C     C_R   0.657067 0.054057 0.469102 -0.030051
C53   C     C_R   0.588800 0.498016 0.880479 0.402958
C54   C     C_R   0.417708 0.506438 0.119469 0.397458
C55   C     C_R   0.429339 0.505300 0.879488 0.402220
C56   C     C_R   0.502929 0.411217 0.297905 -0.152647
C57   C     C_R   0.577086 0.497107 0.120433 0.406971
C58   C     C_R   0.425428 0.506932 0.938971 0.018793
C59   C     C_R   0.581066 0.496440 0.060949 0.019695
C60   C     C_R   0.505229 0.501242 0.969877 -0.041774
C61   C     C_R   0.501267 0.502523 0.030053 -0.041908
C62   C     C_R   0.588696 0.494161 0.940656 0.023721
C63   C     C_R   0.417785 0.509789 0.059273 0.022496
C64   C     C_R   0.343241 0.515015 0.967727 -0.133519
C65   C     C_R   0.663228 0.488163 0.032176 -0.131452
C66   C     C_R   0.338294 0.518058 0.027088 -0.027856
C67   C     C_R   0.524346 0.414356 0.700797 -0.154938
C68   C     C_R   0.668160 0.485295 0.972799 -0.027338
C69   C     C_R   0.741637 0.899003 0.455489 0.023816
C70   C     C_R   0.753973 0.852203 0.402767 -0.111728
C71   C     C_R   0.834740 0.805978 0.390130 -0.111290
C72   C     C_R   0.903609 0.806777 0.429830 -0.096144
C73   C     C_R   0.891569 0.852994 0.482420 -0.106490
C74   C     C_R   0.810862 0.898954 0.495305 -0.078800
C75   C     C_R   0.258370 0.100994 0.544591 0.023483
C76   C     C_R   0.188951 0.100742 0.504906 -0.078632
C77   C     C_R   0.108228 0.146610 0.517873 -0.106431
C78   C     C_R   0.497202 0.499417 0.328332 -0.009517
C79   C     C_R   0.096374 0.193060 0.570411 -0.096253
C80   C     C_R   0.165439 0.194179 0.609974 -0.111112
C81   C     C_R   0.246213 0.148023 0.597261 -0.111577
C82   C     C_R   0.259665 0.890819 0.546059 0.023573
C83   C     C_R   0.228847 0.888100 0.602687 -0.082436
C84   C     C_R   0.152290 0.833456 0.617155 -0.107761
C85   C     C_R   0.106267 0.781106 0.575285 -0.102641
C86   C     C_R   0.136258 0.783994 0.518789 -0.111822
C87   C     C_R   0.212525 0.838889 0.504057 -0.107506
C88   C     C_R   0.740363 0.109174 0.454032 0.023264
C89   C     C_R   0.505066 0.500488 0.671530 -0.010080
C90   C     C_R   0.787482 0.160994 0.496086 -0.107643
C91   C     C_R   0.863765 0.215915 0.481415 -0.111981
C92   C     C_R   0.893783 0.218938 0.424927 -0.102749
C93   C     C_R   0.847775 0.166699 0.383003 -0.106534
C94   C     C_R   0.771205 0.112028 0.397412 -0.081018
C95   C     C_R   0.248714 0.534008 0.052746 0.082530
C96   C     C_R   0.227708 0.624581 0.077272 -0.053615
C97   C     C_R   0.141979 0.640682 0.099618 -0.118416
C98   C     C_R   0.076684 0.566901 0.097241 -0.112176
C99   C     C_R   0.096935 0.476941 0.072386 -0.113321
C100  C     C_R   0.489066 0.587293 0.298535 -0.152260
C101  C     C_R   0.182589 0.460506 0.049999 -0.075860
C102  C     C_R   0.757415 0.467436 0.947074 0.080747
C103  C     C_R   0.825771 0.538234 0.951383 -0.080158
C104  C     C_R   0.911006 0.519838 0.928901 -0.112877
C105  C     C_R   0.928629 0.430568 0.902393 -0.111718
C106  C     C_R   0.861140 0.359398 0.898490 -0.118582
C107  C     C_R   0.775820 0.377461 0.920919 -0.048420
C108  C     C_1   0.507884 0.319544 0.208126 0.231363
C109  C     C_1   0.546947 0.324561 0.789182 0.214247
C110  C     C_R   0.902907 0.404974 0.650099 0.022851
Cu1   Cu    Cu3+1 0.500000 0.597420 0.500000 0.933716
Cu2   Cu    Cu3+1 0.500000 0.402580 0.500000 0.934684
H1    H     H_    0.281915 0.521133 0.943898 0.160164
H2    H     H_    0.536803 0.347336 0.677534 0.131791
H3    H     H_    0.483949 0.656242 0.320908 0.133070
H4    H     H_    0.475563 0.654204 0.680775 0.134754
H5    H     H_    0.482050 0.655335 0.216773 0.118166
H6    H     H_    0.480637 0.653466 0.784894 0.128836
H7    H     H_    0.778959 0.559292 0.414994 0.107569
H8    H     H_    0.221008 0.440566 0.585089 0.107690
H9    H     H_    0.770877 0.445074 0.583856 0.127793
H10   H     H_    0.228961 0.555092 0.416264 0.128331
H11   H     H_    0.701286 0.851992 0.371565 0.104406
H12   H     H_    0.724478 0.481353 0.056006 0.160943
H13   H     H_    0.844152 0.770002 0.349457 0.109076
H14   H     H_    0.966378 0.771907 0.419783 0.109987
H15   H     H_    0.944863 0.853662 0.513117 0.113705
H16   H     H_    0.802402 0.935051 0.536066 0.107629
H17   H     H_    0.197264 0.064461 0.464188 0.107540
H18   H     H_    0.054777 0.145680 0.487287 0.113772
H19   H     H_    0.033593 0.227858 0.580524 0.110163
H20   H     H_    0.156172 0.230345 0.650604 0.109943
H21   H     H_    0.299048 0.148464 0.628365 0.107383
H22   H     H_    0.264561 0.927526 0.635557 0.110130
H23   H     H_    0.079377 0.413543 0.634397 0.113777
H24   H     H_    0.128923 0.831252 0.660893 0.109981
H25   H     H_    0.047323 0.738367 0.586573 0.112862
H26   H     H_    0.100386 0.743509 0.486531 0.107606
H27   H     H_    0.235498 0.840222 0.460189 0.099574
H28   H     H_    0.764481 0.159559 0.539947 0.099877
H29   H     H_    0.899626 0.256311 0.513715 0.107713
H30   H     H_    0.952738 0.261697 0.413687 0.113161
H31   H     H_    0.871164 0.169011 0.339272 0.111909
H32   H     H_    0.735496 0.072693 0.364503 0.112129
H33   H     H_    0.277681 0.682401 0.079034 0.106878
H34   H     H_    0.920505 0.586282 0.365733 0.113959
H35   H     H_    0.126139 0.710374 0.118757 0.105891
H36   H     H_    0.010384 0.579489 0.114576 0.118469
H37   H     H_    0.046178 0.420052 0.070314 0.116124
H38   H     H_    0.197448 0.390740 0.030538 0.112434
H39   H     H_    0.812961 0.607442 0.972111 0.108599
H40   H     H_    0.963470 0.574666 0.932179 0.115440
H41   H     H_    0.994609 0.416467 0.884983 0.119085
H42   H     H_    0.874955 0.290211 0.878093 0.109192
H43   H     H_    0.724122 0.321633 0.917926 0.125536
H44   H     H_    0.938766 0.534449 0.698020 0.110510
H45   H     H_    0.368492 0.750123 0.531882 0.150445
H46   H     H_    0.852858 0.485532 0.784067 0.154026
H47   H     H_    0.767325 0.329406 0.785388 0.148507
H48   H     H_    0.769478 0.220692 0.700853 0.115511
H49   H     H_    0.855189 0.268307 0.614621 0.093833
H50   H     H_    0.143596 0.732139 0.385412 0.093513
H51   H     H_    0.228052 0.780771 0.298897 0.107364
H52   H     H_    0.230421 0.672166 0.214294 0.136065
H53   H     H_    0.146412 0.515075 0.215891 0.151680
H54   H     H_    0.061596 0.465262 0.302188 0.110888
H55   H     H_    0.631528 0.249870 0.468150 0.150946
H56   H     H_    0.632911 0.753216 0.470269 0.145971
H57   H     H_    0.367070 0.246792 0.529691 0.146140
H58   H     H_    0.508841 0.342735 0.320269 0.133907
N1    N     N_R   0.509954 0.501172 0.851729 -0.393272
N2    N     N_R   0.496464 0.501267 0.148140 -0.394913
N3    N     N_R   0.500000 0.743810 0.500000 -0.246656
N4    N     N_R   0.500000 0.256190 0.500000 -0.246686
N5    N     N_1   0.512830 0.246320 0.183701 -0.290673
N6    N     N_1   0.562410 0.252790 0.812528 -0.314639
O1    O     O_R   0.370260 0.582280 0.500010 -0.510786
O2    O     O_2   0.340232 0.506270 0.149473 -0.510347
O3    O     O_2   0.353084 0.507948 0.849385 -0.510379
O4    O     O_2   0.653196 0.492985 0.150600 -0.507275
O5    O     O_R   0.629740 0.417720 0.499990 -0.511005
O6    O     O_R   0.629740 0.582280 0.499990 -0.506494
O7    O     O_R   0.370260 0.417720 0.500010 -0.506209
O8    O     O_R   0.499980 0.582290 0.417880 -0.501414
O9    O     O_R   0.500020 0.417710 0.582120 -0.501473
O10   O     O_R   0.500020 0.582290 0.582120 -0.495558
O11   O     O_R   0.499980 0.417710 0.417880 -0.496190
O12   O     O_2   0.666362 0.500634 0.850578 -0.512150

loop_
_geom_bond_atom_site_label_1
_geom_bond_atom_site_label_2
_ccdc_geom_bond_type
C105  H41   S    
C41   N4    A    
C1    C21   S    
C93   C94   A    
C80   H20   S    
C97   H35   S    
C73   C74   A    
C6    C7    A    
Cu2   N4    S    
C95   C96   A    
C27   C78   S    
Cu2   O11   S    
C97   C98   A    
C1    O7    A    
C109  N6    T    
C85   C86   A    
C34   C56   A    
C96   H33   S    
C7    H49   S    
C10   H51   S    
C32   C36   A    
C19   C21   A    
C67   H2    S    
C68   C102  S    
C23   O5    A    
C5    C6    A    
C45   C109  S    
C13   H5    S    
C57   C59   A    
C54   C63   A    
C3    C110  A    
C58   C60   A    
C82   C87   A    
C98   C99   A    
C108  N5    T    
C46   C52   A    
C101  H38   S    
C67   C89   A    
C33   C36   A    
C56   C78   A    
C60   C62   A    
C76   H17   S    
C65   H12   S    
C61   C63   A    
C27   O8    A    
Cu1   O8    S    
C83   H22   S    
C16   C34   A    
C1    O1    A    
C70   H11   S    
C7    C110  A    
C4    H46   S    
Cu1   Cu2   S    
C8    C9    A    
C106  H42   S    
C22   C25   A    
C45   C67   A    
C70   C71   A    
C37   H34   S    
C14   H54   S    
C92   H30   S    
C9    C10   A    
C93   H31   S    
C44   C47   A    
C103  H39   S    
C72   C73   A    
C57   N2    A    
C56   H58   S    
C49   C52   A    
C40   C42   A    
C63   C66   A    
C49   C69   S    
C25   C29   A    
C41   C43   A    
C102  C103  A    
C100  H3    S    
C2    H4    S    
C39   N4    A    
C19   C32   A    
C55   N1    A    
C104  C105  A    
Cu2   O7    S    
C46   C48   A    
C77   C79   A    
C13   C16   A    
C58   C64   A    
C88   C94   A    
C59   C61   A    
Cu2   O9    S    
C47   C48   A    
C54   N2    A    
C52   C88   S    
C76   C77   A    
C23   O6    A    
C102  C107  A    
C87   H27   S    
C12   H53   S    
C53   N1    A    
C86   C87   A    
C4    C5    A    
C38   N3    A    
C5    H47   S    
C73   H15   S    
C41   H57   S    
Cu1   O6    S    
C54   O2    S    
C72   H14   S    
C60   C61   A    
C8    C35   S    
C64   C66   A    
C2    C89   A    
C75   C76   A    
C38   C44   A    
C29   C30   A    
C28   O10   A    
C99   H37   S    
C53   C62   A    
C16   N2    S    
C6    H48   S    
C83   C84   A    
C20   C23   S    
C65   C68   A    
C79   H19   S    
C96   C97   A    
C24   H10   S    
C50   C51   A    
C69   C74   A    
C27   O11   A    
C84   C85   A    
C2    C15   A    
C51   C82   S    
C28   C89   S    
C9    H50   S    
C39   C46   A    
C44   C51   A    
C99   C101  A    
C88   C90   A    
C19   H8    S    
C26   C30   A    
C78   C100  A    
C55   C58   A    
C20   C22   A    
C3    C4    A    
C36   H23   S    
C85   H25   S    
C74   H16   S    
C22   H9    S    
C43   C48   A    
C15   C17   A    
C84   H24   S    
Cu1   O10   S    
C8    C14   A    
C64   H1    S    
C35   C37   A    
Cu1   N3    S    
C55   O3    S    
C53   O12   S    
C75   C81   A    
C24   C26   A    
C38   H45   S    
C17   C45   A    
C80   C81   A    
C57   O4    S    
C90   H28   S    
C11   C12   A    
C17   N1    S    
C43   C50   A    
C81   H21   S    
Cu2   O5    S    
C33   C110  S    
C11   H52   S    
C105  C106  A    
C15   H6    S    
C62   C68   A    
C34   C108  S    
C104  H40   S    
C13   C100  A    
C12   C14   A    
C94   H32   S    
C71   C72   A    
C29   C31   A    
C50   C75   S    
C59   C65   A    
C30   C32   A    
C90   C91   A    
C40   N3    A    
C98   H36   S    
C92   C93   A    
C18   C20   A    
C77   H18   S    
C39   H55   S    
C69   C70   A    
C40   H56   S    
C10   C11   A    
C86   H26   S    
C42   C49   A    
C79   C80   A    
C31   C37   A    
C26   C35   A    
C42   C47   A    
C3    H44   S    
C82   C83   A    
C106  C107  A    
C21   C24   A    
C103  C104  A    
Cu1   O1    S    
C71   H13   S    
C18   C31   A    
C28   O9    A    
C18   H7    S    
C107  H43   S    
C91   C92   A    
C95   C101  A    
C25   C33   A    
C66   C95   S    
C91   H29   S    
