data_mof_unit_31721.cif
_audit_creation_date              2013-03-05T16:33:37-0500
_audit_creation_method            fapswitch 2.2
_symmetry_space_group_name_H-M    P1
_symmetry_Int_Tables_number       1
_space_group_crystal_system       triclinic
_cell_length_a                    14.86533
_cell_length_b                    14.123547
_cell_length_c                    27.722485
_cell_angle_alpha                 89.976017
_cell_angle_beta                  89.933345
_cell_angle_gamma                 90.640072
_cell_volume                      5820.00096445

loop_
_atom_site_label
_atom_site_type_symbol
_atom_site_description
_atom_site_fract_x
_atom_site_fract_y
_atom_site_fract_z
_atom_type_partial_charge
O1    O     O_R   0.369060 0.579480 0.500000 -0.594946
O2    O     O_R   0.630940 0.420520 0.500000 -0.575016
O3    O     O_R   0.630940 0.579480 0.500000 -0.587353
O4    O     O_R   0.369060 0.420520 0.500000 -0.572663
C1    C     C_R   0.327179 0.499431 0.502920 0.935431
C2    C     C_R   0.672744 0.500673 0.501486 0.927391
O5    O     O_R   0.500010 0.579470 0.428760 -0.620337
O6    O     O_R   0.499990 0.420530 0.571240 -0.650796
O7    O     O_R   0.499990 0.579470 0.571240 -0.630239
O8    O     O_R   0.500010 0.420530 0.428760 -0.626349
C3    C     C_R   0.499712 0.499938 0.405945 0.877276
C4    C     C_R   0.499255 0.499964 0.594005 0.812143
Zn1   Zn    Zn3+2 0.500000 0.606140 0.500000 0.949050
Zn2   Zn    Zn3+2 0.500000 0.393860 0.500000 0.961951
C5    C     C_R   0.417727 0.470550 0.178460 0.523300
C6    C     C_R   0.572719 0.508262 0.821514 0.522713
O9    O     O_2   0.345492 0.443303 0.204716 -0.514242
O10   O     O_2   0.648729 0.520796 0.795520 -0.537121
N1    N     N_R   0.494751 0.497358 0.201669 -0.363219
N2    N     N_R   0.492440 0.498475 0.798119 -0.359220
C7    C     C_R   0.570720 0.523547 0.177379 0.501694
C8    C     C_R   0.413293 0.486279 0.822299 0.501187
C9    C     C_R   0.511841 0.414122 0.278066 -0.099299
C10   C     C_R   0.478120 0.414913 0.721595 -0.127531
C11   C     C_R   0.513107 0.414679 0.328148 -0.209914
C12   C     C_R   0.480670 0.414902 0.671555 -0.253692
C13   C     C_R   0.481887 0.583313 0.327789 -0.236578
C14   C     C_R   0.509533 0.584683 0.672047 -0.248516
C15   C     C_R   0.480885 0.582530 0.277696 -0.112377
C16   C     C_R   0.507173 0.584364 0.722098 -0.118942
C17   C     C_R   0.495882 0.498010 0.252966 0.322819
C18   C     C_R   0.491710 0.499469 0.746791 0.323775
C19   C     C_R   0.492967 0.496209 0.101800 -0.122381
C20   C     C_R   0.494442 0.493670 0.897984 -0.120311
C21   C     C_R   0.414191 0.471079 0.127723 -0.137004
C22   C     C_R   0.575879 0.505186 0.872177 -0.137779
C23   C     C_R   0.335001 0.447126 0.102385 0.540814
C24   C     C_R   0.657637 0.511842 0.897640 0.511186
C25   C     C_R   0.571617 0.522731 0.127049 0.011069
C26   C     C_R   0.412696 0.483671 0.872641 0.010901
C27   C     C_R   0.498402 0.499421 0.353314 -0.045336
C28   C     C_R   0.496692 0.499827 0.646525 -0.038401
H1    H     H_    0.469646 0.649277 0.346471 0.166933
H2    H     H_    0.521783 0.651018 0.653423 0.164992
H3    H     H_    0.468288 0.647289 0.258023 0.132684
H4    H     H_    0.517664 0.649767 0.741775 0.143277
C29   C     C_R   0.412533 0.476995 0.974434 0.096121
C30   C     C_R   0.574285 0.516103 0.025309 0.094875
C31   C     C_R   0.575942 0.508393 0.974372 -0.024215
C32   C     C_R   0.413555 0.471648 0.025447 -0.021351
C33   C     C_R   0.494397 0.492693 0.949087 0.068941
C34   C     C_R   0.493480 0.494888 0.050699 0.071571
C35   C     C_R   0.331745 0.469320 0.947810 -0.222133
C36   C     C_R   0.650710 0.545555 0.051839 -0.222365
C37   C     C_R   0.332051 0.472382 0.897885 -0.146818
C38   C     C_R   0.649274 0.548532 0.101742 -0.147239
O11   O     O_2   0.335482 0.477341 0.797545 -0.576111
O12   O     O_2   0.645249 0.549606 0.202050 -0.569169
C39   C     C_R   0.336951 0.443403 0.052070 -0.333933
C40   C     C_R   0.656858 0.515006 0.947818 -0.316975
H5    H     H_    0.470127 0.348740 0.652539 0.158517
H6    H     H_    0.525993 0.349098 0.347071 0.151052
H7    H     H_    0.466498 0.349365 0.740959 0.141891
H8    H     H_    0.523405 0.348803 0.258692 0.135186
H9    H     H_    0.268335 0.466310 0.879129 0.186174
H10   H     H_    0.709757 0.571157 0.120448 0.186486
H11   H     H_    0.266413 0.463967 0.964529 0.139373
H12   H     H_    0.712374 0.569279 0.035077 0.145203
H13   H     H_    0.277438 0.415398 0.034832 0.153497
H14   H     H_    0.721773 0.520034 0.964922 0.156646
C41   C     C_R   0.100332 0.579670 0.544066 -0.264973
C42   C     C_R   0.898457 0.435736 0.549237 -0.270756
C43   C     C_R   0.912339 0.582143 0.503790 -0.272029
C44   C     C_R   0.086774 0.419868 0.512818 -0.283475
H15   H     H_    0.069564 0.642679 0.558740 0.162166
H16   H     H_    0.929119 0.379252 0.569732 0.161305
H17   H     H_    0.953713 0.639037 0.489234 0.160657
H18   H     H_    0.044742 0.360718 0.501591 0.158868
C45   C     C_R   0.192611 0.577545 0.537424 0.432448
C46   C     C_R   0.806540 0.433867 0.541295 0.438264
C47   C     C_R   0.821318 0.578464 0.492761 0.406838
C48   C     C_R   0.179395 0.415635 0.506376 0.445181
C49   C     C_R   0.231623 0.498112 0.514610 -0.289517
C50   C     C_R   0.768314 0.503206 0.511023 -0.280801
C51   C     C_R   0.047710 0.501830 0.530906 0.026501
C52   C     C_R   0.951038 0.509000 0.530141 0.031918
C53   C     C_R   0.485101 0.104240 0.457502 0.391031
C54   C     C_R   0.579184 0.895398 0.513974 0.393466
C55   C     C_R   0.520101 0.105104 0.542930 0.404331
C56   C     C_R   0.423879 0.894938 0.486981 0.388269
C57   C     C_R   0.481036 0.203700 0.458820 -0.119141
C58   C     C_R   0.574981 0.795324 0.514910 -0.180018
C59   C     C_R   0.520786 0.205206 0.541258 -0.156320
C60   C     C_R   0.425953 0.795462 0.485445 -0.131979
H19   H     H_    0.464433 0.241986 0.426317 0.171688
H20   H     H_    0.632302 0.755609 0.527113 0.183452
H21   H     H_    0.537266 0.245129 0.573267 0.152962
H22   H     H_    0.367191 0.756438 0.473357 0.189789
N3    N     N_R   0.500000 0.252470 0.500000 -0.134711
N4    N     N_R   0.500000 0.747530 0.500000 -0.141105
C61   C     C_R   0.503221 0.053290 0.500310 -0.052969
C62   C     C_R   0.501875 0.946585 0.500807 -0.048892
O13   O     O_3   0.242984 0.655727 0.551448 -0.650808
C63   C     C_3   0.286070 0.637140 0.595984 0.126147
H23   H     H_    0.349055 0.680188 0.596895 0.178648
H24   H     H_    0.306453 0.561763 0.600300 0.107289
C64   C     C_3   0.226772 0.666931 0.638435 -0.425611
H25   H     H_    0.207822 0.742336 0.634124 0.236580
H26   H     H_    0.164355 0.622981 0.639062 0.224928
C65   C     C_3   0.275805 0.654797 0.686347 -0.874937
H27   H     H_    0.295251 0.579725 0.691491 0.288108
H28   H     H_    0.230891 0.675594 0.716469 0.270986
H29   H     H_    0.337095 0.700466 0.687327 0.254279
O14   O     O_3   0.755882 0.360560 0.560965 -0.620681
C66   C     C_3   0.715205 0.390784 0.604481 0.139650
H30   H     H_    0.651652 0.349731 0.608817 0.170828
H31   H     H_    0.696367 0.467102 0.604213 0.101091
C67   C     C_3   0.775493 0.369777 0.647892 -0.428680
H32   H     H_    0.796537 0.294537 0.646754 0.240537
H33   H     H_    0.836667 0.415563 0.646433 0.220794
C68   C     C_3   0.726342 0.388046 0.695326 -0.866208
H34   H     H_    0.703642 0.462652 0.697055 0.291836
H35   H     H_    0.772333 0.374794 0.726068 0.268560
H36   H     H_    0.667088 0.339889 0.698756 0.257605
O15   O     O_3   0.783653 0.650246 0.465708 -0.615448
C69   C     C_3   0.805359 0.636409 0.416585 0.105669
H37   H     H_    0.774878 0.569017 0.403067 0.132907
H38   H     H_    0.879559 0.633976 0.411105 0.100144
C70   C     C_3   0.770239 0.719090 0.386609 -0.367965
H39   H     H_    0.797585 0.786894 0.401033 0.207771
H40   H     H_    0.794208 0.711525 0.348828 0.189229
C71   C     C_3   0.667724 0.722172 0.386482 -0.767694
H41   H     H_    0.640154 0.656038 0.370505 0.254919
H42   H     H_    0.644975 0.783213 0.364574 0.216347
H43   H     H_    0.641468 0.730162 0.423699 0.286972
O16   O     O_3   0.218651 0.333877 0.488745 -0.612152
C72   C     C_3   0.206775 0.257870 0.521740 0.118371
H44   H     H_    0.229966 0.192715 0.503481 0.155146
H45   H     H_    0.134745 0.244970 0.530741 0.120996
C73   C     C_3   0.262973 0.271287 0.567917 -0.361423
H46   H     H_    0.335643 0.272053 0.558627 0.240284
H47   H     H_    0.246717 0.339620 0.585546 0.211150
C74   C     C_3   0.244294 0.191939 0.604002 -1.005083
H48   H     H_    0.171885 0.189971 0.613930 0.278369
H49   H     H_    0.284345 0.204367 0.637223 0.269270
H50   H     H_    0.263206 0.122706 0.588374 0.254865
O17   O     O_3   0.467125 0.057942 0.414553 -0.597504
C75   C     C_3   0.548600 0.028239 0.393111 0.099915
H51   H     H_    0.533376 0.963606 0.371655 0.169008
H52   H     H_    0.601065 0.007720 0.419808 0.110531
C76   C     C_3   0.585755 0.104893 0.359158 -0.378742
H53   H     H_    0.533414 0.123985 0.332364 0.239012
H54   H     H_    0.603757 0.169281 0.380199 0.211773
C77   C     C_3   0.669332 0.070874 0.332599 -0.936139
H55   H     H_    0.723012 0.052787 0.358778 0.260566
H56   H     H_    0.694838 0.127895 0.308442 0.271372
H57   H     H_    0.652865 0.007559 0.310402 0.265215
O18   O     O_3   0.655731 0.944084 0.529015 -0.593385
C78   C     C_3   0.732317 0.919048 0.501503 0.055400
H58   H     H_    0.759402 0.984857 0.484657 0.162519
H59   H     H_    0.718467 0.868680 0.471329 0.129784
C79   C     C_3   0.804072 0.878226 0.534932 -0.287257
H60   H     H_    0.816352 0.927986 0.565342 0.233722
H61   H     H_    0.779820 0.809757 0.550112 0.221242
C80   C     C_3   0.892640 0.862312 0.508372 -0.947861
H62   H     H_    0.882544 0.812883 0.477728 0.284123
H63   H     H_    0.942378 0.831148 0.533506 0.261733
H64   H     H_    0.920159 0.930579 0.494570 0.259319
O19   O     O_3   0.541788 0.057163 0.584941 -0.591058
C81   C     C_3   0.482838 0.080460 0.623202 0.048757
H65   H     H_    0.449378 0.013931 0.635475 0.163561
H66   H     H_    0.428035 0.129951 0.613159 0.117914
C82   C     C_3   0.537088 0.122230 0.665096 -0.316272
H67   H     H_    0.590080 0.071602 0.675968 0.242200
H68   H     H_    0.570510 0.189207 0.653480 0.204992
C83   C     C_3   0.477000 0.142309 0.708464 -0.980404
H69   H     H_    0.423501 0.192937 0.698482 0.261303
H70   H     H_    0.518077 0.173681 0.737951 0.265213
H71   H     H_    0.445314 0.075646 0.721769 0.272846
O20   O     O_3   0.346797 0.940349 0.472046 -0.596176
C84   C     C_3   0.296652 0.969942 0.512656 0.066146
H72   H     H_    0.253364 0.028847 0.500652 0.170533
H73   H     H_    0.339625 0.998406 0.542359 0.107696
C85   C     C_3   0.236000 0.889580 0.531468 -0.336566
H74   H     H_    0.197780 0.857613 0.501002 0.249800
H75   H     H_    0.278457 0.834366 0.548064 0.243637
C86   C     C_3   0.169854 0.924868 0.569362 -0.970645
H76   H     H_    0.206792 0.952944 0.601186 0.262620
H77   H     H_    0.125748 0.865319 0.581268 0.270494
H78   H     H_    0.126927 0.981351 0.554103 0.267226
O21   O     O_3   0.257476 0.419341 0.126777 -0.589757
C87   C     C_3   0.187556 0.485135 0.118974 0.094278
H79   H     H_    0.122701 0.447819 0.126076 0.171017
H80   H     H_    0.183914 0.511037 0.081070 0.108396
C88   C     C_3   0.195544 0.569062 0.153862 -0.319676
H81   H     H_    0.193773 0.542658 0.191616 0.265763
H82   H     H_    0.260513 0.606975 0.147886 0.210314
C89   C     C_3   0.118857 0.638571 0.146709 -0.959832
H83   H     H_    0.120213 0.667458 0.109434 0.266349
H84   H     H_    0.126377 0.698236 0.172515 0.273722
H85   H     H_    0.053007 0.602886 0.153300 0.268953
O22   O     O_3   0.739209 0.520452 0.873921 -0.596578
C90   C     C_3   0.777513 0.429698 0.869932 0.113230
H86   H     H_    0.729493 0.378530 0.852828 0.142498
H87   H     H_    0.796946 0.402837 0.906209 0.117515
C91   C     C_3   0.861654 0.436742 0.838368 -0.286295
H88   H     H_    0.843428 0.466223 0.802541 0.250851
H89   H     H_    0.911336 0.485461 0.855558 0.222545
C92   C     C_3   0.904498 0.340068 0.831241 -0.984148
H90   H     H_    0.924307 0.309612 0.866567 0.268664
H91   H     H_    0.965543 0.347818 0.808396 0.275222
H92   H     H_    0.856614 0.290929 0.812994 0.266524

loop_
_geom_bond_atom_site_label_1
_geom_bond_atom_site_label_2
_geom_bond_distance
_ccdc_geom_bond_type
C74   H50   1.108619 S    
C16   C18   1.397093 A    
C90   H86   1.116333 S    
C80   H62   1.109060 S    
C53   C57   1.407194 A    
C13   C15   1.388839 A    
O19   C81   1.416270 S    
O17   C75   1.416356 S    
C73   C74   1.524855 S    
C42   H16   1.084127 S    
O3    C2    1.281483 A    
N1    C17   1.422226 S    
C8    O11   1.350355 S    
C63   H24   1.116547 S    
O14   C66   1.416928 S    
Zn2   N3    1.996928 S    
C51   C52   1.441928 S    
C19   C34   1.416779 A    
C30   C36   1.412901 A    
C72   H45   1.112185 S    
C58   N4    1.361393 A    
C20   C33   1.416752 A    
C19   C25   1.410498 A    
C31   C40   1.411678 A    
C53   O17   1.383525 S    
O1    C1    1.287029 A    
C32   C39   1.410048 A    
N1    C7    1.361725 A    
C12   H5    1.083043 S    
C75   H52   1.116339 S    
C70   H39   1.110949 S    
C30   C34   1.420536 A    
C71   H43   1.108911 S    
C1    C49   1.456517 S    
C86   H77   1.110450 S    
C91   H89   1.111631 S    
C84   C85   1.532519 S    
C36   H12   1.077263 S    
C81   H65   1.111282 S    
C60   H22   1.081286 S    
C66   H30   1.109324 S    
C58   H20   1.079961 S    
C92   H92   1.110990 S    
C85   H74   1.111606 S    
C74   H49   1.110200 S    
C76   C77   1.525786 S    
C43   C47   1.387924 A    
C10   C18   1.396609 A    
O7    Zn1   2.010392 S    
C67   H32   1.111537 S    
C56   C62   1.416198 A    
C68   H36   1.110802 S    
C4    C28   1.456425 S    
C65   H28   1.110233 S    
C19   C21   1.415019 A    
C53   C61   1.415294 A    
C83   H71   1.110758 S    
C54   C58   1.414299 A    
C71   H41   1.108519 S    
C66   H31   1.116707 S    
C32   C34   1.415217 A    
C76   H53   1.111614 S    
C78   H59   1.116139 S    
C89   H83   1.110907 S    
C60   N4    1.360206 A    
C59   N3    1.361656 A    
C77   H56   1.110387 S    
O3    Zn1   1.986677 S    
C6    N2    1.364574 A    
C29   C35   1.413499 A    
C88   C89   1.525785 S    
C47   O15   1.384481 S    
C26   C37   1.395004 A    
C83   H70   1.110343 S    
C80   H63   1.110917 S    
C41   C51   1.391201 A    
C48   O16   1.388398 S    
C64   H26   1.110684 S    
C45   O13   1.383371 S    
O2    C2    1.285995 A    
C38   H10   1.083601 S    
C44   C48   1.390123 A    
C35   H11   1.077515 S    
C5    C21   1.407627 A    
C63   H23   1.110987 S    
C37   H9    1.083602 S    
C42   C46   1.384205 A    
C56   C60   1.406311 A    
C29   C32   1.416304 A    
C79   H61   1.110731 S    
C35   C37   1.384695 A    
C89   H84   1.110388 S    
C72   C73   1.540036 S    
C56   O20   1.383133 S    
C2    C50   1.445430 S    
O22   C90   1.412669 S    
C46   C50   1.413900 A    
C86   H78   1.110971 S    
C61   C62   1.507015 S    
C90   C91   1.527956 S    
C75   C76   1.532230 S    
C75   H51   1.111070 S    
C77   H57   1.110917 S    
O8    Zn2   2.010394 S    
C84   H73   1.115116 S    
C11   C27   1.404709 A    
C91   H88   1.111779 S    
O16   C72   1.419444 S    
C29   C33   1.419758 A    
O6    Zn2   2.010702 S    
C69   C70   1.529908 S    
C31   C33   1.416339 A    
C84   H72   1.108688 S    
C57   H19   1.080900 S    
C14   H2    1.083063 S    
C41   C45   1.384508 A    
C65   H27   1.111266 S    
C15   H3    1.082918 S    
C67   C68   1.527058 S    
C9    C17   1.396488 A    
C5    N1    1.364030 A    
C88   H82   1.111261 S    
C87   C88   1.533838 S    
C79   C80   1.526613 S    
C90   H87   1.114253 S    
C13   C27   1.403946 A    
O5    C3    1.289300 A    
C78   H58   1.111276 S    
C7    C25   1.395383 A    
C40   H14   1.077322 S    
O6    C4    1.287602 A    
C66   C67   1.532225 S    
C8    C26   1.396091 A    
C89   H85   1.110891 S    
C92   H90   1.110847 S    
C68   H34   1.111036 S    
C78   C79   1.531208 S    
C25   C38   1.395036 A    
C73   H46   1.110177 S    
C65   H29   1.110778 S    
C77   H55   1.111075 S    
C23   C39   1.396160 A    
C82   H68   1.110959 S    
C39   H13   1.077399 S    
C24   C40   1.391826 A    
C6    O10   1.349382 S    
C83   H69   1.110575 S    
C23   O21   1.388231 S    
C46   O14   1.384753 S    
C10   H7    1.082055 S    
C54   O18   1.387573 S    
C44   H18   1.083600 S    
O18   C78   1.417784 S    
C64   C65   1.526356 S    
C20   C26   1.410125 A    
O1    Zn1   1.978418 S    
C64   H25   1.111080 S    
C59   H21   1.078520 S    
C47   C50   1.409545 A    
O20   C84   1.415344 S    
C12   C28   1.403361 A    
C79   H60   1.111744 S    
N2    C18   1.423072 S    
C82   C83   1.525508 S    
C21   C23   1.409556 A    
O21   C87   1.418652 S    
C5    O9    1.348952 S    
C9    H8    1.082973 S    
C69   H38   1.114159 S    
C14   C28   1.403312 A    
C55   C61   1.411332 A    
C16   H4    1.082838 S    
C10   C12   1.387699 A    
N2    C8    1.362643 A    
O4    C1    1.285195 A    
C54   C62   1.412785 A    
C36   C38   1.384238 A    
C73   H47   1.110853 S    
C42   C52   1.393709 A    
C80   H64   1.110798 S    
C72   H44   1.108579 S    
C85   C86   1.525722 S    
C87   H79   1.110903 S    
C70   C71   1.525028 S    
Zn1   N4    1.996928 S    
C22   C24   1.408445 A    
C55   O19   1.387036 S    
C7    O12   1.350376 S    
C15   C17   1.396766 A    
O4    Zn2   1.986678 S    
C6    C22   1.406020 A    
C41   H15   1.084247 S    
C91   C92   1.525870 S    
O15   C69   1.413318 S    
C81   H66   1.114852 S    
C69   H37   1.114777 S    
C30   C31   1.416551 A    
C14   C16   1.387962 A    
C92   H91   1.110382 S    
C85   H75   1.108832 S    
C3    C27   1.459232 S    
C20   C22   1.413269 A    
C11   H6    1.083318 S    
C76   H54   1.110951 S    
C44   C51   1.394103 A    
C55   C59   1.414469 A    
O2    Zn2   1.978417 S    
O7    C4    1.287804 A    
C67   H33   1.110638 S    
C43   C52   1.394767 A    
C68   H35   1.110332 S    
O8    C3    1.287401 A    
C82   H67   1.111589 S    
C88   H81   1.111128 S    
C45   C49   1.417457 A    
C13   H1    1.083190 S    
O5    Zn1   2.010705 S    
C9    C11   1.388568 A    
C71   H42   1.110408 S    
C48   C49   1.411470 A    
C24   O22   1.382882 S    
O13   C63   1.417332 S    
C43   H17   1.083925 S    
C86   H76   1.110709 S    
C57   N3    1.361710 A    
C63   C64   1.531432 S    
C74   H48   1.110757 S    
C87   H80   1.114096 S    
C70   H40   1.111516 S    
C81   C82   1.529479 S    
