data_mof_unit_43529.cif
_audit_creation_date              2013-03-05T16:13:32-0500
_audit_creation_method            fapswitch 2.2
_symmetry_space_group_name_H-M    P1
_symmetry_Int_Tables_number       1
_space_group_crystal_system       triclinic
_cell_length_a                    10.770314
_cell_length_b                    9.985874
_cell_length_c                    10.687794
_cell_angle_alpha                 92.875442
_cell_angle_beta                  94.286668
_cell_angle_gamma                 93.334674
_cell_volume                      1142.60952832

loop_
_atom_site_label
_atom_site_type_symbol
_atom_site_description
_atom_site_fract_x
_atom_site_fract_y
_atom_site_fract_z
_atom_type_partial_charge
O1    O     O_R   0.316770 0.614620 0.499990 -0.560877
O2    O     O_R   0.683230 0.614620 0.500010 -0.560465
O3    O     O_R   0.316800 0.385290 0.500000 -0.603507
O4    O     O_R   0.683200 0.385290 0.500000 -0.591171
C1    C     C_R   0.260996 0.496874 0.504081 0.922995
C2    C     C_R   0.740338 0.503242 0.498930 0.932591
O5    O     O_R   0.500000 0.614690 0.316780 -0.600001
O6    O     O_R   0.500000 0.614690 0.683220 -0.540951
O7    O     O_R   0.500020 0.385360 0.316780 -0.584225
O8    O     O_R   0.499980 0.385360 0.683220 -0.600664
C3    C     C_R   0.496703 0.496813 0.260757 0.910340
C4    C     C_R   0.502069 0.503292 0.740087 0.910724
Zn1   Zn    Zn3+2 0.500000 0.653120 0.500000 1.126595
Zn2   Zn    Zn3+2 0.500000 0.346880 0.500000 1.085089
C5    C     C_R   0.566300 0.591718 0.077509 0.000140
C6    C     C_R   0.559986 0.608349 0.951425 0.075604
C7    C     C_R   0.494673 0.493280 0.129076 -0.020866
C8    C     C_R   0.492723 0.509264 0.872103 -0.090510
C9    C     C_R   0.411277 0.407339 0.052367 -0.097803
C10   C     C_R   0.412041 0.413619 0.922755 -0.088908
H1    H     H_    0.348652 0.335045 0.091905 0.214649
H2    H     H_    0.352522 0.342228 0.862357 0.189389
C11   C     C_3   0.693912 0.668602 0.963294 0.195050
C12   C     C_3   0.699927 0.640494 0.104550 0.164097
C13   C     C_R   0.054607 0.386826 0.455289 -0.140709
C14   C     C_R   0.927147 0.393386 0.448369 -0.070384
H3    H     H_    0.094073 0.300979 0.411292 0.234153
H4    H     H_    0.869757 0.309850 0.402153 0.211785
C15   C     C_R   0.874398 0.507510 0.498095 -0.182048
C16   C     C_R   0.129798 0.492737 0.515004 -0.193838
C17   C     C_R   0.951065 0.615332 0.556515 0.208378
C18   C     C_R   0.078593 0.603946 0.572233 0.244144
C19   C     C_R   0.562353 0.082532 0.594348 0.225604
C20   C     C_R   0.436341 0.062423 0.405486 0.225313
C21   C     C_R   0.573356 0.941053 0.588062 0.212090
C22   C     C_R   0.431206 0.919027 0.408839 0.230911
N1    N     N_R   0.500000 0.857200 0.500000 -0.203207
N2    N     N_R   0.500000 0.142810 0.500000 -0.220476
N3    N     N_3   0.776794 0.593106 0.886872 -0.386117
H5    H     H_    0.869194 0.620613 0.919209 0.272820
H6    H     H_    0.762140 0.489975 0.897615 0.224712
N4    N     N_3   0.714051 0.757845 0.194226 -0.378578
H7    H     H_    0.801713 0.806645 0.188085 0.266589
H8    H     H_    0.646619 0.826232 0.172948 0.243464
N5    N     N_R   0.703674 0.812908 0.942777 0.260818
O9    O     O_R   0.603988 0.880344 0.929782 -0.276144
O10   O     O_R   0.812513 0.877967 0.955577 -0.257150
N6    N     N_R   0.784993 0.536544 0.141157 0.197836
O11   O     O_R   0.746007 0.410936 0.143963 -0.370686
O12   O     O_R   0.903050 0.569668 0.167307 -0.340575
N7    N     N_R   0.902397 0.737287 0.599185 0.257018
O13   O     O_R   0.872285 0.823111 0.516111 -0.304692
O14   O     O_R   0.928390 0.779702 0.715894 -0.245815
N8    N     N_R   0.156102 0.705883 0.645707 0.251506
O15   O     O_R   0.226510 0.673451 0.742412 -0.356438
O16   O     O_R   0.161147 0.829601 0.612531 -0.262661
N9    N     N_R   0.615867 0.162118 0.702273 0.267305
O17   O     O_R   0.717064 0.238140 0.695471 -0.325362
O18   O     O_R   0.575746 0.141351 0.811901 -0.285004
N10   N     N_R   0.374296 0.122720 0.301997 0.251660
O19   O     O_R   0.269064 0.176998 0.315249 -0.367685
O20   O     O_R   0.414121 0.107538 0.190560 -0.308579
N11   N     N_R   0.673045 0.892719 0.666758 0.277246
O21   O     O_R   0.769283 0.972455 0.706748 -0.207993
O22   O     O_R   0.676091 0.768151 0.691095 -0.313863
N12   N     N_R   0.353532 0.839625 0.315544 0.256300
O23   O     O_R   0.238123 0.808814 0.335982 -0.292841
O24   O     O_R   0.387816 0.825861 0.201713 -0.316126

loop_
_geom_bond_atom_site_label_1
_geom_bond_atom_site_label_2
_geom_bond_distance
_ccdc_geom_bond_type
N6    O11   1.301870 A    
N12   O24   1.300631 A    
O7    Zn2   2.014402 S    
N11   O22   1.285305 A    
O6    Zn1   2.014270 S    
C11   N5    1.467385 S    
Zn2   N2    2.037818 S    
C12   N4    1.469623 S    
C22   N12   1.428849 S    
Zn1   N1    2.037917 S    
C17   C18   1.383219 A    
C20   N10   1.426747 S    
O6    C4    1.294618 A    
C11   C12   1.546680 S    
N6    O12   1.301133 A    
N12   O23   1.300095 A    
N10   O19   1.298521 A    
N3    H6    1.046113 S    
C20   N2    1.373292 A    
N5    O9    1.302571 A    
N10   O20   1.300497 A    
C16   C18   1.401801 A    
O7    C3    1.291025 A    
N9    O17   1.300240 A    
O2    C2    1.301845 A    
O3    Zn2   2.031839 S    
N4    H8    1.045997 S    
C14   C15   1.401311 A    
C11   N3    1.468964 S    
C5    C6    1.363158 A    
O8    C4    1.296088 A    
C18   N8    1.439675 S    
C22   N1    1.372980 A    
C9    H1    1.082234 S    
C10   H2    1.083823 S    
O5    C3    1.290970 A    
C6    C11   1.524048 S    
C20   C22   1.432139 A    
N5    O10   1.301315 A    
O4    Zn2   1.988034 S    
C19   C21   1.423271 A    
N8    O16   1.301534 A    
N9    O18   1.300856 A    
O4    C2    1.297790 A    
C13   H3    1.080974 S    
N4    H7    1.045055 S    
N3    H5    1.045233 S    
C7    C9    1.394659 A    
N7    O13   1.301401 A    
C12   N6    1.472342 S    
O1    C1    1.293126 A    
C2    C15   1.442725 S    
O1    Zn1   1.988465 S    
N7    O14   1.301797 A    
C8    C10   1.409270 A    
C6    C8    1.401135 A    
C1    C16   1.424915 S    
O8    Zn2   1.976575 S    
C4    C8    1.420556 S    
C13   C16   1.391789 A    
C5    C7    1.376527 A    
O2    Zn1   2.032370 S    
N8    O15   1.301217 A    
C5    C12   1.494726 S    
C19   N2    1.355287 A    
C19   N9    1.431670 S    
O5    Zn1   1.976484 S    
C21   N1    1.394264 A    
C13   C14   1.374796 A    
C15   C17   1.408193 A    
C14   H4    1.083937 S    
C21   N11   1.434997 S    
C3    C7    1.404556 S    
C9    C10   1.390432 A    
C17   N7    1.421307 S    
N11   O21   1.301777 A    
O3    C1    1.296791 A    
