data_mof_unit_53871.cif
_audit_creation_date              2013-03-05T15:50:45-0500
_audit_creation_method            fapswitch 2.2
_symmetry_space_group_name_H-M    P1
_symmetry_Int_Tables_number       1
_space_group_crystal_system       triclinic
_cell_length_a                    22.818584
_cell_length_b                    7.225184
_cell_length_c                    20.820545
_cell_angle_alpha                 89.992654
_cell_angle_beta                  93.23457
_cell_angle_gamma                 90.006242
_cell_volume                      3427.1827614

loop_
_atom_site_label
_atom_site_type_symbol
_atom_site_description
_atom_site_fract_x
_atom_site_fract_y
_atom_site_fract_z
_atom_type_partial_charge
O1    O     O_R   0.438030 0.494310 0.439340 -0.590590
O2    O     O_R   0.561970 0.994310 0.560660 -0.590627
O3    O     O_R   0.556900 0.822900 0.435960 -0.585603
O4    O     O_R   0.443100 0.322900 0.564040 -0.585587
C1    C     C_R   0.575861 0.655486 0.421094 0.961521
C2    C     C_R   0.424140 0.155463 0.578905 0.961541
O5    O     O_R   0.438170 0.823950 0.431660 -0.596152
O6    O     O_R   0.561830 0.323950 0.568340 -0.596198
O7    O     O_R   0.442390 0.995390 0.556340 -0.584567
O8    O     O_R   0.557610 0.495390 0.443660 -0.584550
C3    C     C_R   0.418455 0.655287 0.415652 0.930192
C4    C     C_R   0.581545 0.155285 0.584349 0.930235
O9    O     O_3   0.501520 0.661170 0.540910 -0.286982
O10   O     O_3   0.498480 0.161170 0.459090 -0.286956
V1    V     V_3+5 0.499720 0.935580 0.492410 1.153496
V2    V     V_3+5 0.500280 0.435580 0.507590 1.153472
C5    C     C_R   0.829964 0.942533 0.856022 -0.220323
C6    C     C_R   0.170067 0.442644 0.143933 -0.220024
C7    C     C_R   0.871527 0.085951 0.862670 -0.286549
C8    C     C_R   0.128452 0.585929 0.137352 -0.286435
C9    C     C_R   0.865769 0.242357 0.821347 0.292343
C10   C     C_R   0.134137 0.742184 0.178756 0.291996
C11   C     C_R   0.816998 0.256902 0.776301 -0.031076
C12   C     C_R   0.182899 0.756717 0.223828 -0.030958
C13   C     C_R   0.775606 0.111178 0.770738 0.000292
C14   C     C_R   0.224369 0.611170 0.229288 0.000025
C15   C     C_R   0.782683 0.952874 0.810105 0.145904
C16   C     C_R   0.217359 0.453013 0.189834 0.146053
C17   C     C_R   0.809041 0.412267 0.735688 -0.116163
C18   C     C_R   0.190765 0.911839 0.264582 -0.115653
C19   C     C_R   0.760596 0.424954 0.691768 -0.224942
C20   C     C_R   0.239212 0.924539 0.308500 -0.224881
C21   C     C_R   0.719441 0.281339 0.686111 0.148141
C22   C     C_R   0.280456 0.781138 0.314031 0.148230
C23   C     C_R   0.727226 0.122678 0.725160 0.065262
C24   C     C_R   0.272755 0.622674 0.274863 0.064997
C25   C     C_R   0.686851 0.974938 0.718381 0.149329
C26   C     C_R   0.313218 0.475122 0.281524 0.149333
C27   C     C_R   0.694712 0.817922 0.757575 -0.233269
C28   C     C_R   0.305424 0.318255 0.242238 -0.232908
C29   C     C_R   0.741989 0.807431 0.803225 -0.190899
C30   C     C_R   0.258128 0.307732 0.196613 -0.190638
C31   C     C_R   0.671102 0.292858 0.641420 -0.245447
C32   C     C_R   0.328792 0.792651 0.358727 -0.245266
C33   C     C_R   0.631065 0.145337 0.633745 -0.136629
C34   C     C_R   0.368930 0.645346 0.366263 -0.136646
C35   C     C_R   0.639486 0.986367 0.672362 -0.254412
C36   C     C_R   0.360601 0.486578 0.327521 -0.254366
H1    H     H_    0.839937 0.525862 0.737519 0.190167
H2    H     H_    0.159786 0.025211 0.262897 0.190379
H3    H     H_    0.755567 0.547215 0.661801 0.149576
H4    H     H_    0.244164 0.046615 0.338576 0.149452
H5    H     H_    0.665482 0.415030 0.611457 0.141894
H6    H     H_    0.334336 0.914631 0.388803 0.141813
H7    H     H_    0.608827 0.872017 0.667048 0.143757
H8    H     H_    0.391344 0.372411 0.332729 0.143654
H9    H     H_    0.664266 0.702959 0.752931 0.139889
H10   H     H_    0.335942 0.203446 0.246784 0.139757
H11   H     H_    0.746952 0.684629 0.832923 0.139641
H12   H     H_    0.253221 0.185054 0.166840 0.139383
C37   C     C_3   0.251113 0.261847 0.810109 -0.358849
C38   C     C_3   0.748905 0.761831 0.189875 -0.358831
C39   C     C_3   0.242353 0.922119 0.790048 -0.462127
C40   C     C_3   0.757626 0.422104 0.209973 -0.462151
C41   C     C_3   0.291989 0.934342 0.741820 -0.387547
C42   C     C_3   0.707991 0.434368 0.258200 -0.387565
H13   H     H_    0.343569 0.264020 0.786468 0.150050
H14   H     H_    0.656448 0.764060 0.213516 0.150051
H15   H     H_    0.272056 0.231269 0.858526 0.146982
H16   H     H_    0.727958 0.731253 0.141461 0.146996
H17   H     H_    0.212721 0.804401 0.776520 0.208798
H18   H     H_    0.787243 0.304373 0.223515 0.208791
H19   H     H_    0.335200 0.910236 0.767967 0.160594
H20   H     H_    0.664777 0.410278 0.232056 0.160599
C43   C     C_1   0.378387 0.146335 0.624552 -0.269702
C44   C     C_1   0.621614 0.646404 0.375447 -0.269693
C45   C     C_3   0.206807 0.105532 0.790542 0.217444
C46   C     C_3   0.793193 0.605497 0.209460 0.217426
C47   C     C_3   0.299656 0.277680 0.760827 -0.380440
C48   C     C_3   0.700363 0.777705 0.239155 -0.380465
C49   C     C_3   0.291914 0.126297 0.708159 0.357208
C50   C     C_3   0.708087 0.626333 0.291841 0.357218
C51   C     C_3   0.230991 0.154884 0.672550 -0.498915
C52   C     C_3   0.769014 0.654898 0.327445 -0.498920
C53   C     C_3   0.180779 0.138346 0.720332 0.252265
C54   C     C_3   0.819224 0.638315 0.279665 0.252259
C55   C     C_1   0.339682 0.137662 0.662284 -0.061291
C56   C     C_1   0.660319 0.637730 0.337715 -0.061281
C57   C     C_1   0.159572 0.092963 0.837090 -0.019351
C58   C     C_1   0.840427 0.592895 0.162911 -0.019280
C59   C     C_1   0.121187 0.083786 0.875172 -0.195835
C60   C     C_1   0.878812 0.583718 0.124829 -0.195775
H21   H     H_    0.154296 0.013684 0.706123 0.100713
H22   H     H_    0.845692 0.513641 0.293890 0.100715
H23   H     H_    0.228428 0.396740 0.814607 0.197404
H24   H     H_    0.771606 0.896711 0.185362 0.197411
H25   H     H_    0.297715 0.417339 0.738229 0.172573
H26   H     H_    0.702320 0.917369 0.261737 0.172573
H27   H     H_    0.224294 0.048828 0.634057 0.162175
H28   H     H_    0.775699 0.548852 0.365952 0.162181
O11   O     O_R   0.942420 0.735670 0.056390 -0.576793
O12   O     O_R   0.057580 0.235670 0.943610 -0.576952
O13   O     O_R   0.061840 0.404850 0.068350 -0.570686
O14   O     O_R   0.938160 0.904850 0.931650 -0.570510
C61   C     C_R   0.080688 0.574076 0.085474 0.971968
C62   C     C_R   0.919306 0.074081 0.914530 0.971739
O15   O     O_R   0.943100 0.406010 0.064050 -0.590760
O16   O     O_R   0.056900 0.906010 0.935950 -0.590762
O17   O     O_R   0.938020 0.234710 0.939330 -0.571038
O18   O     O_R   0.061980 0.734710 0.060670 -0.571282
C63   C     C_R   0.924302 0.574501 0.078911 0.964760
C64   C     C_R   0.075697 0.074524 0.921089 0.964289
O19   O     O_3   0.998500 0.567790 0.959120 -0.248778
O20   O     O_3   0.001500 0.067790 0.040880 -0.248997
V3    V     V_3+5 0.000280 0.293330 0.007580 1.267121
V4    V     V_3+5 0.999720 0.793330 0.992420 1.267138
H29   H     H_    0.833797 0.823458 0.887640 0.172772
H30   H     H_    0.166261 0.323646 0.112274 0.172230
H31   H     H_    0.261986 0.892206 0.839102 0.173305
H32   H     H_    0.737989 0.392189 0.160923 0.173323
H33   H     H_    0.285804 0.822866 0.705172 0.173506
H34   H     H_    0.714162 0.322899 0.294861 0.173478
N1    N     N_R   0.141558 0.299584 0.715699 0.248936
O21   O     O_R   0.085564 0.275560 0.703207 -0.327169
O22   O     O_R   0.162119 0.467336 0.720512 -0.424835
N2    N     N_R   0.858466 0.799530 0.284281 0.248955
O23   O     O_R   0.914457 0.775474 0.296776 -0.327103
O24   O     O_R   0.837925 0.967293 0.279447 -0.424797
H35   H     H_    0.229852 0.291871 0.648099 0.204351
H36   H     H_    0.770169 0.791892 0.351881 0.204358
N3    N     N_R   0.910688 0.381588 0.823110 0.238081
O25   O     O_R   0.963991 0.338232 0.809752 -0.347239
O26   O     O_R   0.899484 0.547991 0.842795 -0.417237
N4    N     N_R   0.089139 0.881174 0.177062 0.238200
O27   O     O_R   0.100365 0.048157 0.157899 -0.416982
O28   O     O_R   0.035777 0.837184 0.190013 -0.347423

loop_
_geom_bond_atom_site_label_1
_geom_bond_atom_site_label_2
_geom_bond_distance
_ccdc_geom_bond_type
H14   C48   1.112854 S    
C18   C20   1.397339 A    
C61   O18   1.330804 A    
C39   C41   1.557950 S    
N2    O23   1.301060 A    
C38   H24   1.110064 S    
C54   N2    1.468983 S    
O12   C64   1.329850 A    
O1    C3    1.330656 A    
O2    C4    1.330675 A    
C2    O7    1.324421 A    
O14   C62   1.337866 A    
O20   V3    1.770454 S    
C2    C43   1.452417 S    
C27   C29   1.399010 A    
C17   H1    1.081182 S    
C46   C58   1.492376 S    
O5    C3    1.334759 A    
C45   C57   1.492353 S    
C10   N4    1.435315 S    
C11   C17   1.410870 A    
C38   C48   1.555989 S    
C23   C25   1.411846 A    
C12   C14   1.415023 A    
C51   H35   1.112588 S    
N1    O22   1.301465 A    
C37   H15   1.113106 S    
C27   H9    1.083633 S    
C41   H19   1.112818 S    
C38   H16   1.113108 S    
C52   H36   1.112590 S    
C9    N3    1.435075 S    
O12   V3    1.963117 S    
C54   H22   1.115244 S    
C5    C7    1.406201 A    
O14   V4    2.005683 S    
C53   H21   1.115247 S    
C31   H5    1.084280 S    
C20   H4    1.083982 S    
C37   C45   1.554684 S    
C19   C21   1.399936 A    
C41   H33   1.113036 S    
C25   C35   1.405739 A    
C6    H30   1.083931 S    
C5    C15   1.402556 A    
C26   C36   1.405774 A    
C5    H29   1.083776 S    
O19   V4    1.770612 S    
C46   C54   1.564536 S    
O5    V1    2.005613 S    
C18   H2    1.081319 S    
C45   C53   1.564531 S    
O6    V2    2.005604 S    
C51   H27   1.113178 S    
C28   C30   1.399002 A    
C40   C46   1.554118 S    
C49   C51   1.551977 S    
C32   C34   1.407177 A    
C33   C35   1.408909 A    
C34   C36   1.409093 A    
C28   H10   1.083823 S    
C52   H28   1.113174 S    
N1    O21   1.301057 A    
C6    C16   1.402541 A    
C29   H11   1.083691 S    
C48   C50   1.551916 S    
C30   H12   1.083866 S    
C47   C49   1.551922 S    
N4    O28   1.301275 A    
O3    C1    1.327192 A    
O16   C64   1.332998 A    
C20   C22   1.400143 A    
C59   C64   1.451853 S    
O4    V2    1.979691 S    
O13   V3    2.005691 S    
C19   H3    1.083772 S    
C42   C50   1.553823 S    
C39   H31   1.113037 S    
C15   C29   1.404226 A    
C58   C60   1.215993 T    
O6    C4    1.334783 A    
C42   H34   1.113034 S    
H13   C47   1.112855 S    
O13   C61   1.337824 A    
O1    V2    1.997299 S    
O2    V1    1.997310 S    
C31   C33   1.406983 A    
O15   V3    1.980198 S    
C49   C55   1.491512 S    
C13   C23   1.417026 A    
C43   C55   1.216300 T    
C51   C53   1.563755 S    
C39   H17   1.112823 S    
C50   C52   1.551980 S    
C9    C11   1.418243 A    
C10   C12   1.418412 A    
O4    C2    1.327177 A    
C13   C15   1.411008 A    
N3    O25   1.301220 A    
O18   V4    1.997281 S    
O3    V1    1.979933 S    
C35   H7    1.084177 S    
C8    C61   1.492980 S    
C39   C45   1.554122 S    
C14   C24   1.417075 A    
C36   H8    1.084347 S    
C22   C32   1.404861 A    
C44   C56   1.216317 T    
N2    O24   1.301464 A    
C48   H26   1.113146 S    
O10   V1    1.770948 S    
O15   C63   1.333011 A    
C38   C46   1.554689 S    
C8    C10   1.422021 A    
C4    C33   1.486136 S    
N3    O26   1.300327 A    
C37   H23   1.110063 S    
C60   C63   1.451877 S    
C47   H25   1.113144 S    
N4    O27   1.300678 A    
O11   C63   1.329825 A    
C14   C16   1.411218 A    
C40   H32   1.113036 S    
O16   V4    1.979954 S    
C1    C44   1.452439 S    
C24   C26   1.412097 A    
O7    V1    1.966364 S    
C1    O8    1.324399 A    
C17   C19   1.397340 A    
O8    V2    1.966225 S    
C26   C28   1.403225 A    
C37   C47   1.555981 S    
C50   C56   1.491540 S    
C16   C30   1.404472 A    
C21   C23   1.410742 A    
C22   C24   1.410966 A    
C53   N1    1.468982 S    
C6    C8    1.406329 A    
C40   H18   1.112821 S    
C12   C18   1.411174 A    
O17   V3    1.997296 S    
C7    C62   1.492997 S    
C32   H6    1.084455 S    
C11   C13   1.414758 A    
C25   C27   1.403001 A    
C57   C59   1.215980 T    
O9    V2    1.771106 S    
O11   V4    1.962985 S    
C41   C49   1.553811 S    
C52   C54   1.563762 S    
C3    C34   1.486115 S    
C21   C31   1.404839 A    
C40   C42   1.557958 S    
C7    C9    1.421824 A    
C62   O17   1.330808 A    
C42   H20   1.112817 S    
