data_mof_unit_42724.cif
_audit_creation_date              2012-12-10T18:09:36-0500
_audit_creation_method            fapswitch 2.2
_symmetry_space_group_name_H-M    P1
_symmetry_Int_Tables_number       1
_space_group_crystal_system       triclinic
_cell_length_a                    15.269867
_cell_length_b                    15.474341
_cell_length_c                    9.66115
_cell_angle_alpha                 89.65425
_cell_angle_beta                  89.948285
_cell_angle_gamma                 89.985135
_cell_volume                      2282.80147261

loop_
_atom_site_label
_atom_site_type_symbol
_atom_type_description
_atom_site_fract_x
_atom_site_fract_y
_atom_site_fract_z
_atom_type_partial_charge
C1    C     C_R   0.118734 0.379525 0.500511 1.072827
C2    C     C_R   0.118869 0.620590 0.499553 1.084015
C3    C     C_R   0.620117 0.880298 0.500071 1.105624
C4    C     C_R   0.616814 0.122555 0.499765 1.086952
C5    C     C_3   0.066502 0.563898 0.083905 0.496333
C6    C     C_3   0.060469 0.569587 0.914513 0.504310
C7    C     C_3   0.593086 0.987307 0.084462 0.540457
C8    C     C_3   0.593765 0.004782 0.917342 0.508016
C9    C     C_R   0.878243 0.382400 0.500033 1.073378
C10   C     C_R   0.880224 0.619432 0.499658 1.072583
C11   C     C_R   0.376955 0.883631 0.500074 1.077969
C12   C     C_R   0.379598 0.119365 0.500058 1.071164
C13   C     C_3   0.850305 0.222216 0.504752 0.762080
C14   C     C_3   0.749875 0.321192 0.363488 0.741042
C15   C     C_3   0.850247 0.775380 0.558262 0.767137
C16   C     C_3   0.779642 0.708545 0.346538 0.789995
C17   C     C_3   0.346725 0.727375 0.549636 0.754506
C18   C     C_3   0.268164 0.802591 0.349015 0.766871
C19   C     C_3   0.275304 0.205304 0.653087 0.742425
C20   C     C_3   0.347991 0.276843 0.444405 0.749323
C21   C     C_3   0.277375 0.653234 0.540964 0.940331
C22   C     C_3   0.195417 0.732296 0.351049 0.894164
C23   C     C_3   0.210629 0.282847 0.653820 0.978054
C24   C     C_3   0.272314 0.344859 0.430009 0.929348
C25   C     C_3   0.777019 0.151720 0.519311 0.927885
C26   C     C_3   0.683185 0.244674 0.358830 0.967511
C27   C     C_3   0.775425 0.843869 0.571399 0.937166
C28   C     C_3   0.713092 0.784512 0.347727 0.927018
C29   C     C_3   0.744458 0.325781 0.626819 0.842311
C30   C     C_3   0.729674 0.659433 0.586774 0.861173
C31   C     C_3   0.226193 0.840691 0.594485 0.853439
C32   C     C_3   0.228791 0.161159 0.410557 0.829661
C33   C     C_3   0.807342 0.314743 0.499575 -0.773700
C34   C     C_3   0.811409 0.688690 0.498900 -0.821272
C35   C     C_3   0.305819 0.815859 0.499530 -0.776048
C36   C     C_3   0.309663 0.188620 0.500875 -0.770346
C37   C     C_3   0.186592 0.691190 0.498502 -0.796080
C38   C     C_3   0.187278 0.310209 0.501887 -0.851963
C39   C     C_3   0.684542 0.193407 0.499246 -0.843284
C40   C     C_3   0.689633 0.810825 0.499722 -0.822972
C41   C     C_3   0.159988 0.764737 0.600983 0.930481
C42   C     C_3   0.153670 0.228273 0.424139 0.955272
C43   C     C_3   0.667577 0.260471 0.617824 0.952149
C44   C     C_3   0.656026 0.728526 0.577782 0.932583
C45   C     C_3   0.913643 0.525215 0.083450 0.695531
C46   C     C_3   0.911172 0.515264 0.918472 0.622222
C47   C     C_3   0.024257 0.412001 0.082705 0.693507
C48   C     C_3   0.033779 0.415339 0.916106 0.755710
C49   C     C_3   0.469873 0.085334 0.077041 0.793915
C50   C     C_3   0.452708 0.076362 0.914229 0.787437
C51   C     C_3   0.445561 0.929422 0.084133 0.672072
C52   C     C_3   0.459871 0.919507 0.921352 0.674483
Cu1   Cu    Cu3+1 0.000100 0.500000 0.642410 1.254569
Cu2   Cu    Cu3+1 0.000100 0.500000 0.357590 1.277864
Cu3   Cu    Cu3+1 0.500100 0.000000 0.642410 1.224768
Cu4   Cu    Cu3+1 0.500100 0.000000 0.357590 1.219907
N1    N     N_3   0.001260 0.500000 0.143650 -0.363505
N2    N     N_3   0.001260 0.500000 0.856350 -0.355624
N3    N     N_3   0.501260 1.000000 0.143650 -0.436748
N4    N     N_3   0.501260 1.000000 0.856350 -0.415576
O1    O     O_R   0.091250 0.408820 0.620260 -0.471715
O2    O     O_R   0.091250 0.408820 0.379740 -0.463766
O3    O     O_R   0.091250 0.591180 0.620260 -0.475183
O4    O     O_R   0.091250 0.591180 0.379740 -0.472759
O5    O     O_R   0.591250 0.908820 0.620260 -0.485597
O6    O     O_R   0.591250 0.908820 0.379740 -0.467908
O7    O     O_R   0.591250 0.091180 0.620260 -0.471309
O8    O     O_R   0.591250 0.091180 0.379740 -0.468812
O9    O     O_R   0.908940 0.408800 0.620260 -0.517634
O10   O     O_R   0.908940 0.408800 0.379740 -0.483693
O11   O     O_R   0.908940 0.591200 0.620260 -0.486090
O12   O     O_R   0.908940 0.591200 0.379740 -0.473717
O13   O     O_R   0.408940 0.908800 0.620260 -0.519045
O14   O     O_R   0.408940 0.908800 0.379740 -0.529416
O15   O     O_R   0.408940 0.091200 0.620260 -0.547826
O16   O     O_R   0.408940 0.091200 0.379740 -0.548723
O17   O     O_3   0.914824 0.215516 0.608985 -0.532614
H1    H     H_    0.887315 0.206948 0.700559 0.400911
O18   O     O_3   0.709044 0.402799 0.351697 -0.569869
H2    H     H_    0.655276 0.403848 0.408863 0.415348
O19   O     O_3   0.895696 0.762925 0.684070 -0.520701
H3    H     H_    0.854001 0.750200 0.759637 0.414616
O20   O     O_3   0.745235 0.634073 0.282461 -0.570035
H4    H     H_    0.684706 0.623357 0.314805 0.403093
O21   O     O_3   0.382705 0.733982 0.683547 -0.523198
H5    H     H_    0.334765 0.732632 0.752466 0.373525
O22   O     O_3   0.238743 0.880973 0.289521 -0.587048
H6    H     H_    0.178342 0.894932 0.318289 0.431204
O23   O     O_3   0.237011 0.130122 0.710476 -0.572401
H7    H     H_    0.176900 0.122258 0.674779 0.415017
O24   O     O_3   0.395605 0.266760 0.320380 -0.495859
H8    H     H_    0.355026 0.262416 0.241259 0.426953
F1    F     F_    0.894290 0.208484 0.381025 -0.418467
F2    F     F_    0.802701 0.313513 0.248030 -0.470617
F3    F     F_    0.912131 0.807500 0.466259 -0.408834
F4    F     F_    0.850512 0.734253 0.266223 -0.400370
F5    F     F_    0.415889 0.706747 0.462865 -0.403395
F6    F     F_    0.334921 0.773253 0.263995 -0.416272
F7    F     F_    0.344745 0.226736 0.738554 -0.397338
F8    F     F_    0.407975 0.307896 0.539645 -0.406282
F9    F     F_    0.303952 0.593153 0.443572 -0.418056
F10   F     F_    0.218301 0.669918 0.255725 -0.485948
F11   F     F_    0.248917 0.352136 0.721614 -0.408490
F12   F     F_    0.297943 0.421708 0.490917 -0.432550
F13   F     F_    0.790190 0.088338 0.420402 -0.444811
F14   F     F_    0.706543 0.190409 0.251457 -0.452641
F15   F     F_    0.801801 0.921267 0.511613 -0.433171
F16   F     F_    0.750356 0.855002 0.280428 -0.462288
F17   F     F_    0.271224 0.608847 0.665601 -0.529139
F18   F     F_    0.114870 0.765803 0.311540 -0.548607
F19   F     F_    0.135641 0.261074 0.727380 -0.495770
F20   F     F_    0.254828 0.363902 0.292303 -0.507683
F21   F     F_    0.780362 0.110645 0.647292 -0.555555
F22   F     F_    0.599132 0.273853 0.329912 -0.493572
F23   F     F_    0.759755 0.860657 0.709002 -0.562153
F24   F     F_    0.637965 0.761815 0.275680 -0.519339
F25   F     F_    0.788874 0.311984 0.749653 -0.569418
F26   F     F_    0.712536 0.409507 0.633140 -0.499513
F27   F     F_    0.751315 0.646953 0.723991 -0.501854
F28   F     F_    0.698918 0.580247 0.541540 -0.518870
F29   F     F_    0.251836 0.859737 0.726634 -0.547418
F30   F     F_    0.185353 0.915019 0.547620 -0.508691
F31   F     F_    0.199661 0.079544 0.447969 -0.523034
F32   F     F_    0.251147 0.155764 0.273181 -0.561133
F33   F     F_    0.157851 0.732929 0.734926 -0.552378
F34   F     F_    0.076661 0.794620 0.570442 -0.450760
F35   F     F_    0.083720 0.192066 0.495159 -0.504829
F36   F     F_    0.123078 0.249747 0.293432 -0.416385
F37   F     F_    0.659193 0.220145 0.744792 -0.452502
F38   F     F_    0.589593 0.303933 0.593913 -0.471357
F39   F     F_    0.628157 0.749418 0.710158 -0.468155
F40   F     F_    0.584510 0.694521 0.509051 -0.475051
F41   F     F_    0.895923 0.610929 0.112878 -0.487314
F42   F     F_    0.875779 0.590704 0.866004 -0.524473
F43   F     F_    0.104515 0.384989 0.132002 -0.436904
F44   F     F_    0.122345 0.407124 0.888164 -0.447449
F45   F     F_    0.532821 0.148969 0.095359 -0.416311
F46   F     F_    0.480872 0.151456 0.849014 -0.393579
F47   F     F_    0.463931 0.851320 0.148312 -0.455824
F48   F     F_    0.509866 0.847281 0.891241 -0.557787
O25   O     O_3   0.846379 0.477541 0.147148 -0.614750
H9    H     H_    0.789786 0.504472 0.120606 0.418618
O26   O     O_3   0.853775 0.448607 0.880710 -0.663929
H10   H     H_    0.792852 0.470760 0.886393 0.444545
O27   O     O_3   0.966684 0.347328 0.130312 -0.510594
H11   H     H_    0.910432 0.351682 0.081588 0.365309
O28   O     O_3   0.997389 0.344062 0.845839 -0.529607
H12   H     H_    0.939440 0.327446 0.880713 0.367552
O29   O     O_3   0.396455 0.120924 0.141986 -0.589713
H13   H     H_    0.340666 0.098100 0.107375 0.409070
O30   O     O_3   0.361679 0.070855 0.890291 -0.624744
H14   H     H_    0.348698 0.036865 0.807620 0.425793
O31   O     O_3   0.355886 0.945579 0.106927 -0.617258
H15   H     H_    0.348551 0.973917 0.196961 0.391917
O32   O     O_3   0.378253 0.901208 0.865077 -0.574358
H16   H     H_    0.358839 0.845221 0.905860 0.438367
O33   O     O_3   0.049519 0.646099 0.138793 -0.509234
H17   H     H_    0.093294 0.686308 0.098013 0.413315
O34   O     O_3   0.031010 0.651382 0.866382 -0.540585
H18   H     H_    0.987390 0.676991 0.929465 0.413987
O35   O     O_3   0.151530 0.541712 0.131223 -0.521774
H19   H     H_    0.181939 0.502264 0.067302 0.426057
O36   O     O_3   0.145189 0.560074 0.859282 -0.518951
H20   H     H_    0.181111 0.608913 0.893773 0.416302
O37   O     O_3   0.650256 0.046458 0.146746 -0.485532
H21   H     H_    0.711301 0.029717 0.123098 0.417330
O38   O     O_3   0.627269 0.088482 0.894187 -0.478782
H22   H     H_    0.692051 0.087137 0.903917 0.428792
O39   O     O_3   0.627158 0.905561 0.121305 -0.566259
H23   H     H_    0.600204 0.857756 0.071024 0.413980
O40   O     O_3   0.651810 0.949742 0.847034 -0.552420
H24   H     H_    0.649242 0.889852 0.880506 0.423725

loop_
_geom_bond_atom_site_label_1
_geom_bond_atom_site_label_2
_ccdc_geom_bond_type
C16   C28   S    
C45   O25   S    
O22   H6    S    
C47   O27   S    
O33   H17   S    
Cu4   O16   S    
C49   F45   S    
O39   H23   S    
C6    N2    S    
O28   H12   S    
C24   F20   S    
O40   H24   S    
C13   C25   S    
C1    O2    A    
C26   F14   S    
C14   C33   S    
O19   H3    S    
C25   F13   S    
C7    C8    S    
C15   O19   S    
O21   H5    S    
C44   F39   S    
C45   N1    S    
O37   H21   S    
C30   F28   S    
O20   H4    S    
C17   O21   S    
C32   C36   S    
C17   C35   S    
C9    O9    A    
C38   C42   S    
C19   C36   S    
C15   F3    S    
C5    C6    S    
C26   C39   S    
C47   N1    S    
C30   F27   S    
C28   C40   S    
O26   H10   S    
C48   O28   S    
C29   C33   S    
Cu3   O7    S    
C32   F32   S    
C52   N4    S    
C16   C34   S    
Cu1   O1    S    
C50   O30   S    
C23   F11   S    
O34   H18   S    
Cu1   Cu2   S    
C22   F18   S    
Cu2   O10   S    
C24   C38   S    
O30   H14   S    
C12   C36   S    
C28   F24   S    
C18   C35   S    
C15   C34   S    
C8    O40   S    
C42   F36   S    
C21   F9    S    
C10   O11   A    
C7    O37   S    
Cu1   O9    S    
Cu3   N4    S    
C46   N2    S    
C9    C33   S    
C32   F31   S    
C30   C44   S    
C3    O5    A    
C22   F10   S    
C7    N3    S    
Cu3   O5    S    
C2    O4    A    
O35   H19   S    
C20   O24   S    
C13   O17   S    
C16   F4    S    
Cu4   O14   S    
C30   C34   S    
C51   C52   S    
C41   F33   S    
C43   F37   S    
C9    O10   A    
C31   F29   S    
C11   O13   A    
O24   H8    S    
C4    O8    A    
C19   F7    S    
C20   C36   S    
C39   C43   S    
Cu2   O2    S    
C45   C46   S    
C22   C37   S    
C29   F25   S    
C16   O20   S    
C17   C21   S    
C13   F1    S    
C52   O32   S    
C5    O35   S    
C19   C23   S    
C26   F22   S    
C13   C33   S    
C19   O23   S    
C8    O38   S    
C25   F21   S    
C46   F42   S    
C25   C39   S    
C15   C27   S    
C47   C48   S    
C20   F8    S    
C4    C39   S    
C27   F15   S    
C27   C40   S    
Cu3   Cu4   S    
C51   F47   S    
C21   C37   S    
C10   C34   S    
C14   O18   S    
C14   C26   S    
C42   F35   S    
C1    C38   S    
C3    C40   S    
C5    O33   S    
C12   O16   A    
C31   C35   S    
C3    O6    A    
C51   N3    S    
Cu1   O11   S    
O27   H11   S    
O38   H22   S    
C2    O3    A    
C51   O31   S    
C31   C41   S    
C47   F43   S    
C18   C22   S    
C41   F34   S    
C48   F44   S    
C43   F38   S    
C31   F30   S    
C6    O34   S    
C11   O14   A    
C1    O1    A    
C4    O7    A    
C21   F17   S    
Cu1   N2    S    
C50   F46   S    
C48   N2    S    
C46   O26   S    
C49   O29   S    
C44   F40   S    
C23   C38   S    
C23   F19   S    
C29   F26   S    
C45   F41   S    
C18   O22   S    
C49   N3    S    
Cu4   N3    S    
C5    N1    S    
C50   N4    S    
C7    O39   S    
O31   H15   S    
Cu3   O15   S    
Cu4   O8    S    
O29   H13   S    
C8    N4    S    
Cu1   O3    S    
C2    C37   S    
Cu2   O4    S    
C28   F16   S    
Cu4   O6    S    
C11   C35   S    
C52   F48   S    
C14   F2    S    
C37   C41   S    
O36   H20   S    
O18   H2    S    
Cu3   O13   S    
C40   C44   S    
Cu2   O12   S    
C6    O36   S    
C49   C50   S    
C12   O15   A    
O32   H16   S    
C32   C42   S    
O17   H1    S    
C18   F6    S    
C24   F12   S    
O23   H7    S    
O25   H9    S    
C17   F5    S    
C20   C24   S    
C29   C43   S    
C10   O12   A    
Cu2   N1    S    
C27   F23   S    
