data_mof_unit_68012.cif
_audit_creation_date              2013-03-05T15:40:29-0500
_audit_creation_method            fapswitch 2.2
_symmetry_space_group_name_H-M    P1
_symmetry_Int_Tables_number       1
_space_group_crystal_system       triclinic
_cell_length_a                    7.09716
_cell_length_b                    11.401331
_cell_length_c                    18.899896
_cell_angle_alpha                 90.001663
_cell_angle_beta                  92.741916
_cell_angle_gamma                 89.999788
_cell_volume                      1527.57335992

loop_
_atom_site_label
_atom_site_type_symbol
_atom_site_description
_atom_site_fract_x
_atom_site_fract_y
_atom_site_fract_z
_atom_type_partial_charge
O1    O     O_R   0.330540 0.606360 0.598870 -0.507109
O2    O     O_R   0.669460 0.106360 0.401130 -0.507197
O3    O     O_R   0.026770 0.620470 0.750430 -0.524567
O4    O     O_R   0.973230 0.120470 0.249570 -0.524546
O5    O     O_R   0.856460 0.393640 0.750930 -0.496325
O6    O     O_R   0.143540 0.893640 0.249070 -0.496347
C1    C     C_R   0.199096 0.644846 0.775688 0.709762
C2    C     C_R   0.800904 0.144846 0.224313 0.709791
O7    O     O_R   0.000920 0.620350 0.599420 -0.547848
O8    O     O_R   0.999080 0.120350 0.400580 -0.547904
O9    O     O_R   0.830430 0.393520 0.598850 -0.567199
O10   O     O_R   0.169570 0.893520 0.401150 -0.567256
C3    C     C_R   0.166934 0.645803 0.574217 0.711518
C4    C     C_R   0.833064 0.145759 0.425806 0.710959
O11   O     O_R   0.356570 0.606480 0.750960 -0.540175
O12   O     O_R   0.643430 0.106480 0.249040 -0.540188
O13   O     O_3   0.176990 0.425580 0.674890 -0.363875
O14   O     O_3   0.823010 0.925580 0.325110 -0.363661
V1    V     V_3+5 0.902170 0.513810 0.674910 1.725935
V2    V     V_3+5 0.097830 0.013810 0.325090 1.725755
O15   O     O_R   0.500800 0.379530 0.599380 -0.521072
O16   O     O_R   0.499200 0.879530 0.400620 -0.520851
C5    C     C_R   0.667274 0.351750 0.575464 0.728883
C6    C     C_R   0.332723 0.851763 0.424542 0.728327
O17   O     O_R   0.526650 0.379650 0.750390 -0.521176
O18   O     O_R   0.473350 0.879650 0.249610 -0.521127
C7    C     C_R   0.697356 0.356038 0.775757 0.835450
C8    C     C_R   0.302644 0.856038 0.224243 0.835436
V3    V     V_3+5 0.402160 0.486190 0.674900 1.761718
V4    V     V_3+5 0.597840 0.986190 0.325100 1.761970
O19   O     O_3   0.677210 0.574420 0.674910 -0.366928
O20   O     O_3   0.322790 0.074420 0.325090 -0.366997
C9    C     C_R   0.747671 0.069569 0.872939 0.297417
C10   C     C_R   0.252323 0.569570 0.127057 0.297438
C11   C     C_R   0.711245 0.269818 0.833413 -0.159719
C12   C     C_R   0.288754 0.769819 0.166586 -0.159748
C13   C     C_R   0.759627 0.347210 0.182336 -0.052980
C14   C     C_R   0.240370 0.847211 0.817668 -0.052834
C15   C     C_R   0.741101 0.432375 0.128441 0.017704
C16   C     C_R   0.258892 0.932376 0.871566 0.017682
C17   C     C_R   0.749188 0.398427 0.055921 0.039702
C18   C     C_R   0.250804 0.898428 0.944084 0.039679
C19   C     C_R   0.748962 0.274860 0.035215 0.136106
C20   C     C_R   0.251033 0.774861 0.964786 0.136103
C21   C     C_R   0.766537 0.190282 0.091176 -0.035130
C22   C     C_R   0.233460 0.690283 0.908823 -0.035146
C23   C     C_R   0.730962 0.231303 0.961980 0.099084
C24   C     C_R   0.269033 0.731303 0.038020 0.099083
C25   C     C_R   0.746474 0.107793 0.946114 -0.169797
C26   C     C_R   0.253520 0.607794 0.053883 -0.169795
C27   C     C_R   0.757925 0.027859 0.003507 0.294601
C28   C     C_R   0.242071 0.527860 0.996488 0.294599
C29   C     C_R   0.769669 0.068931 0.073415 0.241136
C30   C     C_R   0.230328 0.568932 0.926581 0.241143
C31   C     C_R   0.691258 0.305817 0.903147 -0.069894
C32   C     C_R   0.308735 0.805818 0.096855 -0.069872
C33   C     C_R   0.742671 0.152816 0.818132 0.272818
C34   C     C_R   0.257327 0.652818 0.181865 0.272806
C35   C     C_R   0.779938 0.228255 0.164121 -0.077849
C36   C     C_R   0.220060 0.728255 0.835881 -0.077841
H1    H     H_    0.638553 0.392764 0.908271 0.146306
H2    H     H_    0.361434 0.892765 0.091733 0.146305
C37   C     C_2   0.831917 0.223460 0.489072 -0.338599
C38   C     C_2   0.168024 0.723702 0.511044 -0.338654
C39   C     C_2   0.669018 0.268054 0.515162 0.252950
C40   C     C_2   0.330964 0.768024 0.484819 0.252439
N1    N     N_R   0.761763 0.116950 0.745830 0.134364
O21   O     O_R   0.631215 0.141929 0.697496 -0.346856
O22   O     O_R   0.907912 0.056715 0.728447 -0.323569
N2    N     N_R   0.238238 0.616957 0.254167 0.134272
O23   O     O_R   0.368810 0.641913 0.302497 -0.346576
O24   O     O_R   0.092032 0.556785 0.271558 -0.323717
N3    N     N_R   0.488977 0.239176 0.482413 0.076316
O25   O     O_R   0.404044 0.143252 0.500249 -0.360281
O26   O     O_R   0.419097 0.302873 0.430412 -0.363754
N4    N     N_R   0.511105 0.738715 0.517357 0.076822
O27   O     O_R   0.595598 0.642809 0.499189 -0.358889
O28   O     O_R   0.580970 0.801599 0.569745 -0.364283
N5    N     N_R   0.761142 0.902311 0.993356 0.170199
O29   O     O_R   0.894447 0.837890 0.022258 -0.330917
O30   O     O_R   0.616907 0.848736 0.964456 -0.348231
N6    N     N_R   0.238853 0.402312 0.006635 0.170198
O31   O     O_R   0.105544 0.337891 0.977733 -0.330911
O32   O     O_R   0.383088 0.348736 0.035533 -0.348234
N7    N     N_R   0.745365 0.948223 0.851419 0.136464
O33   O     O_R   0.883601 0.879043 0.869569 -0.366612
O34   O     O_R   0.629618 0.913648 0.800387 -0.344226
N8    N     N_R   0.254624 0.448225 0.148575 0.136462
O35   O     O_R   0.116391 0.379045 0.130420 -0.366613
O36   O     O_R   0.370364 0.413652 0.199609 -0.344184
C41   C     C_2   0.781329 0.381575 0.259120 0.569110
H3    H     H_    0.880232 0.334896 0.294445 0.027938
O37   O     O_2   0.687375 0.459186 0.284453 -0.451352
C42   C     C_2   0.218671 0.881573 0.740884 0.569004
H4    H     H_    0.119789 0.834886 0.705556 0.027755
O38   O     O_2   0.312604 0.959193 0.715555 -0.451579
C43   C     C_2   0.763311 0.496036 0.004615 0.422985
H5    H     H_    0.873260 0.496972 0.968105 0.119465
O39   O     O_2   0.649502 0.576235 0.002014 -0.497273
C44   C     C_2   0.236683 0.996038 0.995394 0.422984
H6    H     H_    0.126732 0.996977 0.031903 0.119457
O40   O     O_2   0.350494 0.076235 0.997997 -0.497272
C45   C     C_2   0.734550 0.558939 0.149353 0.548891
H7    H     H_    0.635169 0.588983 0.186907 0.110862
O41   O     O_2   0.842570 0.630715 0.125835 -0.477845
C46   C     C_2   0.265442 0.058940 0.850658 0.548927
H8    H     H_    0.364825 0.088984 0.813106 0.110837
O42   O     O_2   0.157421 0.130715 0.874177 -0.477845
N9    N     N_R   0.813609 0.983399 0.126136 0.075513
O43   O     O_R   0.990349 0.963942 0.140439 -0.400761
O44   O     O_R   0.692157 0.902880 0.140545 -0.355112
N10   N     N_R   0.186371 0.483401 0.873859 0.075515
O45   O     O_R   0.009627 0.463952 0.859562 -0.400765
O46   O     O_R   0.307812 0.402876 0.859445 -0.355103
C47   C     C_2   0.018274 0.244436 0.525014 0.509605
H9    H     H_    0.117741 0.302368 0.501043 0.106224
O47   O     O_2   0.060227 0.196774 0.581449 -0.451963
C48   C     C_2   0.981411 0.745349 0.475418 0.510896
H10   H     H_    0.882884 0.803817 0.499530 0.104870
O48   O     O_2   0.938183 0.697640 0.419091 -0.451607

loop_
_geom_bond_atom_site_label_1
_geom_bond_atom_site_label_2
_geom_bond_distance
_ccdc_geom_bond_type
V4    O20   2.196010 S    
C37   C39   1.375788 D    
N3    O26   1.301027 A    
N3    O25   1.300980 A    
O4    C2    1.321006 A    
V1    O19   1.739707 S    
N10   O46   1.297069 A    
C43   H5    1.066154 S    
C39   N3    1.431282 S    
C23   C25   1.445037 A    
N7    O33   1.292334 A    
O9    V1    2.033840 S    
O16   C6    1.323529 A    
C23   C31   1.416919 A    
N4    O28   1.301238 A    
O3    C1    1.321002 A    
N9    O44   1.297066 A    
C2    C35   1.484766 S    
C46   H8    1.080033 S    
C9    C25   1.450432 A    
C47   H9    1.081890 S    
C38   C48   1.477526 S    
O9    C5    1.309202 A    
O7    C3    1.324026 A    
C48   H10   1.082346 S    
C9    N7    1.441912 S    
O13   V1    2.194583 S    
O5    C7    1.315196 A    
O7    V1    2.024369 S    
O6    C8    1.315185 A    
C20   C22   1.432300 A    
C25   C27   1.416120 A    
C26   C28   1.416109 A    
O3    V1    2.043819 S    
N2    O23   1.301189 A    
O14   V4    1.741066 S    
C19   C23   1.470318 A    
C6    C40   1.486921 S    
C32   H2    1.065566 S    
C37   C47   1.477143 S    
C24   C26   1.445042 A    
C21   C29   1.424117 A    
C2    O12   1.307213 A    
C17   C19   1.462134 A    
C22   C30   1.424122 A    
C18   C20   1.462141 A    
C33   N1    1.438949 S    
C44   O40   1.219473 D    
N10   O45   1.289661 A    
C43   O39   1.219473 D    
C28   C30   1.400490 A    
O11   V3    2.023975 S    
C27   N5    1.444542 S    
N7    O34   1.297945 A    
O17   V3    2.042356 S    
C10   C26   1.450438 A    
C13   C41   1.503933 S    
C11   C31   1.394068 A    
N1    O21   1.301185 A    
N4    O27   1.301080 A    
C15   C17   1.428004 A    
O8    C4    1.324091 A    
O8    V2    2.024316 S    
C41   H3    1.084830 S    
N5    O30   1.290669 A    
C34   N2    1.438944 S    
C1    O11   1.307207 A    
C47   O47   1.221168 D    
O15   V3    2.025249 S    
C27   C29   1.400493 A    
C38   C40   1.375930 D    
C42   O38   1.219562 D    
C12   C32   1.394052 A    
C18   C44   1.482623 S    
C41   O37   1.219588 D    
C40   N4    1.431493 S    
O10   V2    2.033891 S    
O1    V3    2.032392 S    
C30   N10   1.418235 S    
C45   O41   1.219670 D    
C10   N8    1.441913 S    
C28   N6    1.444542 S    
C19   C21   1.432312 A    
C13   C35   1.408349 A    
C14   C36   1.408351 A    
N8    O36   1.297948 A    
O18   V4    2.042311 S    
N6    O32   1.290667 A    
O15   C5    1.323494 A    
C17   C43   1.482624 S    
O1    C3    1.309889 A    
C1    C36   1.484745 S    
C16   C46   1.497449 S    
V2    O20   1.739711 S    
C29   N9    1.418244 S    
C24   C32   1.416901 A    
C21   C35   1.443799 A    
C9    C33   1.404149 A    
O16   V4    2.025304 S    
C22   C36   1.443793 A    
O18   C8    1.309402 A    
C15   C45   1.497448 S    
O5    V1    2.022729 S    
O17   C7    1.309410 A    
O6    V2    2.022671 S    
O10   C6    1.309173 A    
C12   C34   1.385200 A    
O2    V4    2.032340 S    
C11   C33   1.385213 A    
C7    C11   1.467408 S    
C5    C39   1.486923 S    
V3    O19   2.196016 S    
O13   V3    1.741071 S    
C14   C16   1.408870 A    
C3    C38   1.488408 S    
C46   O42   1.219666 D    
C4    C37   1.488454 S    
C31   H1    1.065572 S    
C16   C18   1.428004 A    
C44   H6    1.066154 S    
C14   C42   1.503944 S    
O14   V2    2.194590 S    
C42   H4    1.084809 S    
O2    C4    1.309845 A    
C48   O48   1.221488 D    
N5    O29   1.297506 A    
O4    V2    2.043867 S    
N8    O35   1.292333 A    
C8    C12   1.467373 S    
C13   C15   1.408872 A    
N6    O31   1.297506 A    
C45   H7    1.080038 S    
C10   C34   1.404139 A    
N2    O24   1.299244 A    
N1    O22   1.299244 A    
N9    O43   1.289662 A    
O12   V4    2.024034 S    
C20   C24   1.470314 A    
