data_mof_unit_16779.cif
_audit_creation_date              2012-12-11T17:01:18-0500
_audit_creation_method            fapswitch 2.2
_symmetry_space_group_name_H-M    P1
_symmetry_Int_Tables_number       1
_space_group_crystal_system       triclinic
_cell_length_a                    19.391163
_cell_length_b                    7.110594
_cell_length_c                    17.592765
_cell_angle_alpha                 90.005078
_cell_angle_beta                  108.57062
_cell_angle_gamma                 89.989418
_cell_volume                      2299.43397662

loop_
_atom_site_label
_atom_site_type_symbol
_atom_type_description
_atom_site_fract_x
_atom_site_fract_y
_atom_site_fract_z
_atom_type_partial_charge
O1    O     O_R   0.413720 0.494330 0.415730 -0.536030
O2    O     O_R   0.586280 0.994330 0.584270 -0.535138
O3    O     O_R   0.560210 0.819300 0.430070 -0.542321
O4    O     O_R   0.439790 0.319300 0.569930 -0.543694
C1    C     C_R   0.581503 0.655288 0.414504 0.713190
C2    C     C_R   0.418189 0.155459 0.585119 0.712066
O5    O     O_R   0.412670 0.823730 0.406310 -0.543003
O6    O     O_R   0.587330 0.323730 0.593690 -0.543345
O7    O     O_R   0.437690 0.998790 0.560340 -0.538313
O8    O     O_R   0.562310 0.498790 0.439660 -0.540330
C3    C     C_R   0.385430 0.655219 0.383388 0.691835
C4    C     C_R   0.614570 0.155209 0.616611 0.691384
O9    O     O_3   0.508380 0.662350 0.550560 -0.375134
O10   O     O_3   0.491620 0.162350 0.449440 -0.375053
V1    V     V_3+5 0.498450 0.935370 0.490620 1.392896
V2    V     V_3+5 0.501550 0.435370 0.509380 1.388020
C5    C     C_R   0.699077 0.989464 0.737213 0.108467
C6    C     C_R   0.300895 0.489347 0.262858 0.108832
C7    C     C_R   0.681790 0.147039 0.686863 -0.108932
C8    C     C_R   0.318213 0.647048 0.313132 -0.111000
C9    C     C_R   0.730184 0.300532 0.706942 -0.182302
C10   C     C_R   0.269842 0.800611 0.292990 -0.180664
H1    H     H_    0.719214 0.425567 0.670191 0.138556
H2    H     H_    0.280828 0.925717 0.329694 0.140115
C11   C     C_R   0.795899 0.289008 0.771134 -0.178086
C12   C     C_R   0.204126 0.789072 0.228803 -0.179141
H3    H     H_    0.833108 0.406678 0.782382 0.136798
H4    H     H_    0.166933 0.906814 0.217510 0.137566
C13   C     C_R   0.815497 0.123045 0.816916 -0.106816
C14   C     C_R   0.184500 0.623019 0.183090 -0.108192
C15   C     C_R   0.764097 0.977771 0.800492 0.105150
C16   C     C_R   0.235872 0.477634 0.199583 0.106747
C17   C     C_3   0.772716 0.774173 0.785722 -0.421680
C18   C     C_3   0.227208 0.274139 0.214469 -0.421971
C19   C     C_3   0.701697 0.786903 0.716815 -0.402319
C20   C     C_3   0.298227 0.286893 0.283371 -0.402880
H5    H     H_    0.768751 0.684997 0.836060 0.173343
H6    H     H_    0.231158 0.184734 0.164182 0.173516
H7    H     H_    0.820683 0.746250 0.765737 0.175098
H8    H     H_    0.179233 0.246478 0.234466 0.174324
H9    H     H_    0.656764 0.705199 0.727455 0.175038
H10   H     H_    0.343144 0.204972 0.272779 0.175397
H11   H     H_    0.708526 0.765986 0.656967 0.171493
H12   H     H_    0.291390 0.266262 0.343230 0.169744
C21   C     C_R   0.321708 0.302262 0.632503 -0.218507
C22   C     C_R   0.675376 0.488278 0.368733 -0.217684
C23   C     C_R   0.367528 0.148364 0.632976 -0.082996
C24   C     C_R   0.631447 0.647386 0.365777 -0.086510
C25   C     C_R   0.364322 0.988644 0.678590 -0.201055
C26   C     C_R   0.636522 0.800874 0.317576 -0.190580
C27   C     C_R   0.317495 0.983741 0.725088 0.140107
C28   C     C_R   0.683830 0.795575 0.271797 0.142063
C29   C     C_R   0.270881 0.137744 0.723638 0.014708
C30   C     C_R   0.728798 0.636893 0.275991 0.012652
C31   C     C_R   0.271227 0.296863 0.675257 -0.011207
C32   C     C_R   0.726140 0.483029 0.326288 -0.010132
C33   C     C_R   0.316817 0.827249 0.773436 -0.130563
C34   C     C_R   0.686792 0.946933 0.221727 -0.134477
C35   C     C_R   0.270173 0.821832 0.819756 -0.190148
C36   C     C_R   0.734086 0.942512 0.176188 -0.201737
C37   C     C_R   0.223487 0.973064 0.818811 0.111314
C38   C     C_R   0.779082 0.786297 0.179616 0.111008
C39   C     C_R   0.224122 0.132272 0.771061 0.054718
C40   C     C_R   0.776222 0.632430 0.229370 0.054611
C41   C     C_R   0.178303 0.286108 0.771129 0.011491
C42   C     C_R   0.820423 0.473877 0.232042 0.010541
C43   C     C_R   0.177919 0.441674 0.722247 -0.190249
C44   C     C_R   0.818471 0.323279 0.282570 -0.187433
C45   C     C_R   0.221988 0.447093 0.672798 0.343595
C46   C     C_R   0.773589 0.327491 0.331106 0.340837
C47   C     C_R   0.176320 0.967808 0.864983 -0.217708
C48   C     C_R   0.826526 0.780980 0.133727 -0.217255
C49   C     C_R   0.130781 0.121494 0.865803 -0.076483
C50   C     C_R   0.870254 0.622074 0.135446 -0.078158
C51   C     C_R   0.132648 0.280936 0.819173 -0.195557
C52   C     C_R   0.866565 0.468838 0.184695 -0.195456
H13   H     H_    0.326233 0.425515 0.598450 0.129199
H14   H     H_    0.669341 0.369857 0.404589 0.130451
H15   H     H_    0.399623 0.869813 0.679450 0.121601
H16   H     H_    0.602706 0.923874 0.314642 0.123358
H17   H     H_    0.352215 0.708253 0.775155 0.119778
H18   H     H_    0.652647 0.069506 0.218022 0.121464
H19   H     H_    0.270535 0.698878 0.856275 0.123232
H20   H     H_    0.735495 0.061619 0.138280 0.125594
H21   H     H_    0.175857 0.844841 0.901270 0.122782
H22   H     H_    0.828393 0.899335 0.095575 0.124407
H23   H     H_    0.097459 0.399581 0.818992 0.127839
H24   H     H_    0.900302 0.345996 0.186986 0.129284
H25   H     H_    0.141857 0.559049 0.720963 0.154351
H26   H     H_    0.853242 0.202111 0.285753 0.155089
O11   O     O_R   0.937800 0.775460 0.060470 -0.537331
O12   O     O_R   0.062200 0.275460 0.939530 -0.538219
O13   O     O_R   0.087350 0.441340 0.093710 -0.538407
O14   O     O_R   0.912650 0.941340 0.906290 -0.538423
C53   C     C_R   0.114697 0.610308 0.116431 0.691675
C54   C     C_R   0.885302 0.110319 0.883571 0.691143
O15   O     O_R   0.939820 0.446010 0.069950 -0.543772
O16   O     O_R   0.060180 0.946010 0.930050 -0.541915
O17   O     O_R   0.913690 0.271230 0.915700 -0.539288
O18   O     O_R   0.086310 0.771230 0.084300 -0.539636
C55   C     C_R   0.918872 0.614361 0.085183 0.702416
C56   C     C_R   0.081438 0.114258 0.915200 0.702117
O19   O     O_3   0.991670 0.603050 0.949510 -0.374614
O20   O     O_3   0.008330 0.103050 0.050490 -0.374473
V3    V     V_3+5 0.001550 0.329940 0.009370 1.393234
V4    V     V_3+5 0.998450 0.829940 0.990630 1.395182
O21   O     O_3   0.214753 0.601617 0.623433 -0.639642
H27   H     H_    0.223726 0.562317 0.573504 0.282831
O22   O     O_3   0.778155 0.176648 0.381801 -0.640624
H28   H     H_    0.769528 0.221631 0.431171 0.282335

loop_
_geom_bond_atom_site_label_1
_geom_bond_atom_site_label_2
_ccdc_geom_bond_type
C42   C44   A    
C39   C41   A    
C36   H20   S    
C20   H10   S    
O1    C3    A    
O2    C4    A    
C2    O7    A    
O20   V4    S    
C45   O21   S    
C23   C25   A    
O5    C3    A    
C17   H7    S    
C50   C52   A    
C18   H8    S    
C7    C9    A    
C35   H19   S    
C34   H18   S    
C17   C19   S    
C33   C35   A    
C34   C36   A    
C54   O17   A    
C43   H25   S    
C36   C38   A    
C21   C23   A    
C37   C39   A    
C38   C40   A    
O13   V3    S    
C47   H21   S    
C41   C43   A    
C26   C28   A    
O21   H27   S    
C15   C17   S    
C27   C33   A    
C19   H11   S    
C52   H24   S    
C18   C20   S    
O12   C56   A    
O15   V3    S    
C37   C47   A    
C24   C26   A    
O6    V2    S    
C49   C51   A    
O11   V4    S    
O11   C55   A    
O20   V3    S    
C28   C30   A    
C22   C24   A    
C29   C31   A    
C11   C13   A    
O17   V3    S    
C1    C24   S    
C30   C32   A    
C3    C8    S    
C35   C37   A    
C2    C23   S    
C48   C50   A    
C22   H14   S    
C53   O18   A    
C25   C27   A    
O16   C56   A    
C17   H5    S    
C25   H15   S    
C27   C29   A    
C40   C42   A    
O4    V2    S    
C14   C53   S    
C46   O22   S    
C44   H26   S    
O6    C4    A    
C42   C52   A    
C38   C48   A    
O19   V3    S    
O1    V2    S    
O14   C54   A    
O2    V1    S    
C31   C45   A    
C28   C34   A    
C50   C55   S    
C51   H23   S    
C49   C56   S    
C8    C10   A    
C12   C14   A    
C32   C46   A    
C9    H1    S    
C5    C15   A    
C10   H2    S    
C20   H12   S    
O4    C2    A    
C6    C16   A    
O3    V1    S    
C47   C49   A    
C9    C11   A    
O14   V4    S    
C18   H6    S    
O18   V4    S    
O3    C1    A    
C26   H16   S    
C13   C54   S    
C48   H22   S    
C11   H3    S    
C12   H4    S    
O16   V4    S    
O7    V1    S    
C1    O8    A    
C13   C15   A    
O8    V2    S    
O22   H28   S    
C14   C16   A    
C29   C39   A    
C30   C40   A    
C4    C7    S    
O5    V1    S    
C5    C7    A    
O19   V4    S    
C6    C8    A    
C19   H9    S    
C33   H17   S    
O12   V3    S    
C21   C31   A    
O13   C53   A    
C10   C12   A    
O9    V2    S    
C22   C32   A    
C44   C46   A    
O10   V1    S    
C21   H13   S    
C5    C19   S    
C43   C45   A    
C6    C20   S    
O15   C55   A    
C41   C51   A    
C16   C18   S    
