data_mof_unit_37588.cif
_audit_creation_date              2012-12-10T19:08:07-0500
_audit_creation_method            fapswitch 2.2
_symmetry_space_group_name_H-M    P1
_symmetry_Int_Tables_number       1
_space_group_crystal_system       triclinic
_cell_length_a                    9.067986
_cell_length_b                    10.864711
_cell_length_c                    9.637947
_cell_angle_alpha                 90.183319
_cell_angle_beta                  89.107919
_cell_angle_gamma                 90.932632
_cell_volume                      949.29564406

loop_
_atom_site_label
_atom_site_type_symbol
_atom_type_description
_atom_site_fract_x
_atom_site_fract_y
_atom_site_fract_z
_atom_type_partial_charge
C1    C     C_R   0.503320 0.262984 0.499379 0.818818
C2    C     C_R   0.591530 0.937168 0.387688 0.097004
C3    C     C_R   0.520871 0.870906 0.497946 -0.163982
C4    C     C_R   0.447796 0.935547 0.602745 0.067618
C5    C     C_3   0.472749 0.936342 0.756906 0.131109
C6    C     C_3   0.450448 0.075066 0.753149 -0.469391
C7    C     C_R   0.626892 0.481212 0.070955 0.257190
C8    C     C_R   0.372417 0.500173 0.077718 -0.117328
C9    C     C_R   0.371352 0.492789 0.931117 0.013381
C10   C     C_R   0.626923 0.485580 0.924909 0.228109
C11   C     C_3   0.765645 0.560090 0.917871 -0.521983
C12   C     C_R   0.220987 0.500303 0.500602 0.849089
C13   C     C_3   0.770353 0.550656 0.075726 -0.297492
C14   C     C_R   0.509377 0.737120 0.499715 0.792202
C15   C     C_R   0.779021 0.500382 0.499394 0.826306
C16   C     C_1   0.065613 0.500668 0.500870 -0.151954
C17   C     C_1   0.934373 0.500685 0.499214 -0.165428
C18   C     C_R   0.437149 0.062045 0.599256 0.039115
C19   C     C_R   0.509319 0.129659 0.495475 -0.161801
C20   C     C_R   0.585072 0.067223 0.387107 -0.068413
Cu1   Cu    Cu3+1 0.499990 0.499980 0.640670 0.954795
Cu2   Cu    Cu3+1 0.500010 0.500020 0.359330 0.955154
H1    H     H_    0.746483 0.654740 0.880537 0.217485
H2    H     H_    0.764809 0.639278 0.131747 0.165851
H3    H     H_    0.345548 0.106156 0.801915 0.200888
H4    H     H_    0.548249 0.131606 0.783821 0.199417
H5    H     H_    0.269042 0.499808 0.134718 0.176998
H6    H     H_    0.854443 0.510974 0.861330 0.233638
N1    N     N_R   0.500920 0.500930 0.147930 -0.203749
N2    N     N_R   0.500930 0.500890 0.852020 -0.213749
O1    O     O_R   0.500000 0.319640 0.618810 -0.578505
O2    O     O_R   0.500020 0.319680 0.381230 -0.567957
O3    O     O_R   0.288380 0.499980 0.618770 -0.571815
O4    O     O_R   0.288400 0.500020 0.381190 -0.585040
O5    O     O_R   0.499980 0.680320 0.618770 -0.581286
O6    O     O_R   0.500000 0.680360 0.381190 -0.578826
O7    O     O_R   0.711600 0.499980 0.618810 -0.576777
O8    O     O_R   0.711620 0.500020 0.381230 -0.586371
C21   C     C_1   0.665603 0.135996 0.280424 0.273509
N3    N     N_1   0.729773 0.190367 0.195182 -0.273688
C22   C     C_1   0.890115 0.472086 0.123078 0.344457
N4    N     N_1   0.983927 0.409938 0.160415 -0.287264
C23   C     C_3   0.681725 0.872710 0.275488 -0.363807
C24   C     C_3   0.593433 0.860742 0.142363 -0.787356
H7    H     H_    0.490470 0.806121 0.160084 0.261817
H8    H     H_    0.660287 0.814319 0.061676 0.239827
H9    H     H_    0.564392 0.952923 0.102890 0.245888
H10   H     H_    0.785886 0.924655 0.253238 0.196979
H11   H     H_    0.720087 0.781679 0.309786 0.195941
C25   C     C_3   0.358321 0.862983 0.846405 -0.398358
C26   C     C_3   0.202612 0.856309 0.786979 -0.770554
H12   H     H_    0.159156 0.949875 0.770076 0.254224
H13   H     H_    0.202756 0.804510 0.687438 0.246339
H14   H     H_    0.127714 0.807103 0.861144 0.242941
H15   H     H_    0.396583 0.767180 0.860157 0.221796
H16   H     H_    0.351605 0.905473 0.951210 0.199012
C27   C     C_1   0.627179 0.907686 0.789782 0.215853
N5    N     N_1   0.749071 0.887193 0.813355 -0.321672
C28   C     C_1   0.230983 0.457684 0.875490 0.309791
N6    N     N_1   0.116827 0.427008 0.834537 -0.307995

loop_
_geom_bond_atom_site_label_1
_geom_bond_atom_site_label_2
_ccdc_geom_bond_type
C7    C10   A    
C23   C24   S    
C15   O8    A    
C7    N1    A    
Cu2   N1    S    
Cu1   O1    S    
C22   N4    T    
C10   N2    A    
C25   H15   S    
C24   H9    S    
C5    C27   S    
C2    C23   S    
C26   H14   S    
C4    C18   A    
C13   C22   S    
C2    C3    A    
C20   C21   S    
Cu1   O7    S    
C28   N6    T    
C15   O7    A    
Cu1   Cu2   S    
C11   C13   S    
C27   N5    T    
C6    H4    S    
C3    C14   S    
Cu2   O2    S    
C11   H6    S    
Cu1   O5    S    
C8    N1    A    
C9    N2    A    
C11   H1    S    
C24   H8    S    
C25   C26   S    
C14   O6    A    
C5    C6    S    
Cu2   O4    S    
C6    C18   S    
C25   H16   S    
C5    C25   S    
C1    C19   S    
C6    H3    S    
Cu1   O3    S    
C10   C11   S    
C12   O4    A    
C26   H12   S    
Cu2   O8    S    
C16   C17   T    
C12   C16   S    
C1    O1    A    
Cu2   O6    S    
C24   H7    S    
C18   C19   A    
Cu1   N2    S    
C21   N3    T    
C15   C17   S    
C8    H5    S    
C23   H10   S    
C4    C5    S    
C7    C13   S    
C26   H13   S    
C12   O3    A    
C2    C20   A    
C14   O5    A    
C1    O2    A    
C23   H11   S    
C3    C4    A    
C19   C20   A    
C13   H2    S    
C8    C9    A    
C9    C28   S    
