data_mof_unit_27110.cif
_audit_creation_date              2012-12-11T14:58:44-0500
_audit_creation_method            fapswitch 2.2
_symmetry_space_group_name_H-M    P1
_symmetry_Int_Tables_number       1
_space_group_crystal_system       triclinic
_cell_length_a                    11.002694
_cell_length_b                    11.077691
_cell_length_c                    18.738038
_cell_angle_alpha                 90.192862
_cell_angle_beta                  90.231777
_cell_angle_gamma                 58.899305
_cell_volume                      1955.57480264

loop_
_atom_site_label
_atom_site_type_symbol
_atom_type_description
_atom_site_fract_x
_atom_site_fract_y
_atom_site_fract_z
_atom_type_partial_charge
Br1   Br    Br    0.576153 0.472061 0.138386 -0.466980
Br2   Br    Br    0.252993 0.654054 0.253119 -0.543568
C1    C     C_R   0.358003 0.776187 0.398884 0.558779
C2    C     C_R   0.184394 0.405897 0.217512 0.029015
C3    C     C_R   0.199247 0.417698 0.292540 0.016595
C4    C     C_R   0.376582 0.347947 0.393086 0.553105
C5    C     C_R   0.898756 0.810853 0.389160 -0.151337
C6    C     C_R   0.905115 0.687434 0.411448 -0.125660
C7    C     C_R   0.006039 0.557542 0.382077 -0.116569
C8    C     C_R   0.100364 0.551418 0.329925 0.065388
C9    C     C_R   0.321342 0.314053 0.328739 -0.012551
C10   C     C_R   0.951588 0.288928 0.307121 -0.189760
C11   C     C_R   0.980412 0.278655 0.234923 -0.183325
C12   C     C_R   0.570585 0.099581 0.194485 0.066246
C13   C     C_R   0.870072 0.332974 0.184798 0.035767
C14   C     C_R   0.728594 0.401750 0.206281 0.112924
C15   C     C_R   0.699489 0.415186 0.278939 -0.120915
C16   C     C_R   0.775489 0.379574 0.402773 0.534327
C17   C     C_R   0.811216 0.357536 0.328752 -0.001205
C18   C     C_R   0.474184 0.785857 0.288359 -0.104597
C19   C     C_R   0.462593 0.807755 0.214903 -0.108955
C20   C     C_R   0.328122 0.888579 0.184628 0.065594
C21   C     C_R   0.208738 0.957862 0.228966 -0.108641
C22   C     C_R   0.220347 0.941031 0.302295 -0.125327
C23   C     C_R   0.303463 0.286382 0.180482 0.026176
C24   C     C_R   0.350731 0.843535 0.331117 0.055247
C25   C     C_R   0.379075 0.200175 0.692504 -0.137797
C26   C     C_R   0.368984 0.186384 0.764789 -0.125266
C27   C     C_R   0.298082 0.306734 0.808498 0.029795
C28   C     C_R   0.344356 0.768565 0.604658 0.543692
C29   C     C_R   0.226464 0.441106 0.778715 -0.155787
C30   C     C_R   0.235721 0.455100 0.705826 -0.135126
C31   C     C_R   0.318491 0.334466 0.663400 0.031309
C32   C     C_R   0.907036 0.392533 0.707173 -0.128546
C33   C     C_R   0.943934 0.374346 0.778584 -0.131656
C34   C     C_R   0.412690 0.187346 0.295088 -0.171559
C35   C     C_R   0.921174 0.283837 0.820708 0.024597
C36   C     C_R   0.871575 0.202247 0.789061 -0.129910
C37   C     C_R   0.831982 0.222228 0.717267 -0.135254
C38   C     C_R   0.843367 0.322718 0.676989 0.027246
C39   C     C_R   0.196780 0.844582 0.712196 -0.137890
C40   C     C_R   0.367727 0.350801 0.595039 0.542053
C41   C     C_R   0.188054 0.854999 0.785514 -0.137751
C42   C     C_R   0.301723 0.843517 0.825282 0.036972
C43   C     C_R   0.426082 0.816943 0.791070 -0.137940
C44   C     C_R   0.435367 0.805317 0.717589 -0.139923
C45   C     C_R   0.421027 0.182271 0.221323 -0.045550
C46   C     C_R   0.321235 0.817521 0.677814 0.032079
C47   C     C_R   0.909911 0.316588 0.111197 0.598998
C48   C     C_R   0.300349 0.260142 0.102591 0.569103
C49   C     C_R   0.303433 0.907981 0.107987 0.572451
C50   C     C_R   0.947857 0.280443 0.897266 0.568284
C51   C     C_R   0.293112 0.285161 0.883912 0.562080
C52   C     C_R   0.767966 0.373778 0.609149 0.546062
C53   C     C_R   0.276296 0.893587 0.898132 0.554943
C54   C     C_R   0.859153 0.943392 0.155297 -0.095212
C55   C     C_R   0.810415 0.057494 0.201788 -0.096179
C56   C     C_R   0.102263 0.673225 0.312667 0.205323
C57   C     C_R   0.667540 0.135775 0.220373 -0.055011
C58   C     C_3   0.054572 0.536537 0.180100 -0.226253
C59   C     C_3   0.906401 0.598927 0.214369 -0.448678
C60   C     C_R   0.997429 0.803743 0.339973 -0.071220
C61   C     C_R   0.623324 0.978380 0.151913 -0.069544
C62   C     C_R   0.765040 0.904288 0.129920 -0.130472
Cr1   Cr    Cr6+3 0.601770 0.606860 0.505860 0.990943
Cr2   Cr    Cr6+3 0.291380 0.601660 0.495070 1.030900
Cr3   Cr    Cr6+3 0.606880 0.291510 0.499120 1.006030
Cr4   Cr    Cr6+3 0.062440 0.063090 0.008210 1.028730
Cr5   Cr    Cr6+3 0.062880 0.375170 0.998920 0.999822
Cr6   Cr    Cr6+3 0.374700 0.061720 0.992470 1.013192
H1    H     H_    0.501958 0.105060 0.324783 0.139813
H2    H     H_    0.104764 0.017320 0.205798 0.131698
H3    H     H_    0.802703 0.814052 0.094900 0.106004
H4    H     H_    0.126494 0.990819 0.335236 0.105023
H5    H     H_    0.441580 0.106591 0.660274 0.121520
H6    H     H_    0.419750 0.080983 0.786735 0.136883
H7    H     H_    0.167883 0.534113 0.811791 0.122164
H8    H     H_    0.187692 0.560396 0.683883 0.138520
H9    H     H_    0.919593 0.468598 0.676944 0.131127
H10   H     H_    0.983971 0.436529 0.801856 0.134840
H11   H     H_    0.855971 0.129395 0.820375 0.133210
H12   H     H_    0.818511 0.911812 0.410623 0.115531
H13   H     H_    0.783929 0.166382 0.694847 0.132433
H14   H     H_    0.107813 0.852827 0.682778 0.127091
H15   H     H_    0.991606 0.899425 0.323371 0.115505
H16   H     H_    0.089748 0.878093 0.810564 0.128724
H17   H     H_    0.514224 0.809673 0.820875 0.131078
H18   H     H_    0.533613 0.782003 0.692361 0.134480
H19   H     H_    0.969938 0.883592 0.140340 0.154514
H20   H     H_    0.882640 0.085005 0.224622 0.111525
H21   H     H_    0.632298 0.222525 0.257259 0.146307
H22   H     H_    0.555348 0.942436 0.134610 0.143284
H23   H     H_    0.830531 0.692813 0.450657 0.136029
H24   H     H_    0.903751 0.534067 0.257676 0.181413
H25   H     H_    0.870390 0.704581 0.237174 0.149833
H26   H     H_    0.825518 0.613787 0.174140 0.158682
H27   H     H_    0.076186 0.622487 0.176026 0.173631
H28   H     H_    0.035056 0.530772 0.124222 0.207544
H29   H     H_    0.008942 0.462747 0.398627 0.116634
H30   H     H_    0.037495 0.247605 0.345607 0.107128
H31   H     H_    0.089162 0.230742 0.217671 0.111779
H32   H     H_    0.590141 0.468896 0.296742 0.174486
H33   H     H_    0.577955 0.712562 0.310304 0.138585
H34   H     H_    0.556262 0.753203 0.181872 0.126729
O1    O     O_R   0.748800 0.497470 0.428000 -0.534321
O2    O     O_R   0.417600 0.174890 0.067840 -0.483040
O3    O     O_R   0.375320 0.946260 0.070860 -0.543656
O4    O     O_R   0.476420 0.724060 0.429470 -0.520212
O5    O     O_R   0.160600 0.919630 0.926660 -0.524053
O6    O     O_R   0.933060 0.190520 0.936020 -0.488296
O7    O     O_R   0.908880 0.403460 0.925020 -0.504824
O8    O     O_R   0.179600 0.361450 0.918490 -0.519879
O9    O     O_R   0.391510 0.170860 0.907530 -0.511985
O10   O     O_R   0.351130 0.942530 0.922260 -0.509953
O11   O     O_3   0.166667 0.166667 0.999870 -0.311153
O12   O     O_R   0.300070 0.471040 0.567100 -0.513802
O13   O     O_R   0.264580 0.744340 0.416750 -0.487150
O14   O     O_R   0.309380 0.472470 0.418200 -0.476663
O15   O     O_R   0.501710 0.260430 0.414300 -0.535588
O16   O     O_R   0.728090 0.305600 0.428960 -0.501444
O17   O     O_R   0.738760 0.495930 0.588610 -0.527405
O18   O     O_R   0.467110 0.722640 0.578360 -0.508030
O19   O     O_R   0.254530 0.742800 0.577360 -0.531765
O20   O     O_R   0.491670 0.258900 0.574910 -0.523723
O21   O     O_R   0.718780 0.304180 0.577850 -0.504077
O22   O     O_3   0.500010 0.500010 0.500020 -0.242147
O23   O     O_R   0.186690 0.923650 0.086970 -0.504254
O24   O     O_R   0.957250 0.194250 0.084630 -0.497304
O25   O     O_R   0.934970 0.407490 0.085330 -0.541430
O26   O     O_R   0.203780 0.365190 0.067090 -0.509443

loop_
_geom_bond_atom_site_label_1
_geom_bond_atom_site_label_2
_ccdc_geom_bond_type
C56   C60   A    
C15   H32   S    
Cr3   O20   S    
C2    C23   A    
C59   H26   S    
C40   O20   A    
C5    C6    A    
C18   H33   S    
C43   C44   A    
Cr6   O10   S    
C12   C57   A    
Cr2   O12   S    
C32   C38   A    
C31   C40   S    
C28   C46   S    
C26   C27   A    
C8    C56   A    
C22   C24   A    
C3    C9    A    
C58   H28   S    
Cr6   O3    S    
Cr3   O21   S    
C36   C37   A    
C32   C33   A    
Cr5   O8    S    
C55   C57   A    
C13   C14   A    
C33   H10   S    
C54   C55   A    
C34   C45   A    
C16   C17   S    
C23   C48   S    
C48   O26   A    
C19   H34   S    
Cr5   O11   S    
C28   O18   A    
C14   C15   A    
Cr2   O13   S    
C61   H22   S    
C21   C22   A    
C54   C62   A    
Cr1   O17   S    
C1    O13   A    
Cr3   O16   S    
Cr4   O24   S    
Cr1   O4    S    
C34   H1    S    
C7    H29   S    
C19   C20   A    
C53   O5    A    
C39   C41   A    
C25   H5    S    
Cr1   O1    S    
C60   H15   S    
C51   O9    A    
C29   H7    S    
C44   H18   S    
Cr6   O9    S    
C52   O21   A    
C44   C46   A    
C55   H20   S    
C58   H27   S    
Cr6   O2    S    
Cr3   O22   S    
C4    C9    S    
C35   C50   S    
C59   H24   S    
C6    C7    A    
Cr4   O6    S    
C50   O7    A    
C39   H14   S    
C47   O25   A    
C25   C31   A    
Cr2   O22   S    
C58   C59   S    
C27   C51   S    
C41   C42   A    
C5    C60   A    
C35   C36   A    
C32   H9    S    
C29   C30   A    
C50   O6    A    
C62   H3    S    
C2    C58   S    
C59   H25   S    
Br1   C14   S    
C57   H21   S    
Cr1   O18   S    
C28   O19   A    
Cr4   O23   S    
C51   O8    A    
C40   O12   A    
C54   H19   S    
C52   O17   A    
C38   C52   S    
C11   C13   A    
C36   H11   S    
Cr6   O11   S    
C11   H31   S    
C26   H6    S    
C16   O16   A    
C4    O15   A    
C37   C38   A    
C42   C43   A    
C33   C35   A    
C7    C8    A    
Cr5   O26   S    
C47   O24   A    
C23   C45   A    
C9    C34   A    
C43   H17   S    
C18   C19   A    
Cr2   O19   S    
C41   H16   S    
C21   H2    S    
C1    C24   S    
C6    H23   S    
C2    C3    A    
Br2   C56   S    
C12   C45   S    
C53   O10   A    
C1    O4    A    
C49   O23   A    
Cr1   O22   S    
C16   O1    A    
C37   H13   S    
C3    C8    S    
C27   C29   A    
C30   C31   A    
Cr5   O7    S    
C42   C53   S    
C22   H4    S    
C18   C24   A    
Cr5   O25   S    
C12   C61   A    
C10   C17   A    
C15   C17   A    
C39   C46   A    
Cr4   O5    S    
C13   C47   S    
C10   H30   S    
Cr4   O11   S    
C30   H8    S    
C61   C62   A    
C5    H12   S    
C10   C11   A    
C49   O3    A    
Cr2   O14   S    
C25   C26   A    
C48   O2    A    
C20   C21   A    
Cr3   O15   S    
C4    O14   A    
C20   C49   S    
