data_mof_unit_18566.cif
_audit_creation_date              2012-12-11T15:06:40-0500
_audit_creation_method            fapswitch 2.2
_symmetry_space_group_name_H-M    P1
_symmetry_Int_Tables_number       1
_space_group_crystal_system       triclinic
_cell_length_a                    7.224041
_cell_length_b                    15.082061
_cell_length_c                    22.442473
_cell_angle_alpha                 89.958624
_cell_angle_beta                  89.999622
_cell_angle_gamma                 89.999829
_cell_volume                      2445.1837067

loop_
_atom_site_label
_atom_site_type_symbol
_atom_type_description
_atom_site_fract_x
_atom_site_fract_y
_atom_site_fract_z
_atom_type_partial_charge
O1    O     O_R   0.390810 0.844810 0.447340 -0.547842
O2    O     O_R   0.109190 0.155190 0.947340 -0.541368
O3    O     O_R   0.890810 0.655190 0.552660 -0.547838
O4    O     O_R   0.609190 0.344810 0.052660 -0.541368
O5    O     O_R   0.720550 0.655820 0.440420 -0.534663
O6    O     O_R   0.779450 0.344180 0.940420 -0.540931
O7    O     O_R   0.220550 0.844180 0.559580 -0.534674
O8    O     O_R   0.279450 0.155820 0.059580 -0.540931
C1    C     C_R   0.552124 0.627727 0.425911 0.727514
C2    C     C_R   0.948434 0.374486 0.927249 0.741125
C3    C     C_R   0.052124 0.872274 0.574088 0.727516
C4    C     C_R   0.448434 0.125514 0.072751 0.741127
O9    O     O_R   0.720530 0.844130 0.440420 -0.525319
O10   O     O_R   0.779470 0.155870 0.940420 -0.534469
O11   O     O_R   0.220530 0.655870 0.559580 -0.525277
O12   O     O_R   0.279470 0.344130 0.059580 -0.534470
O13   O     O_R   0.890830 0.844810 0.552660 -0.542561
O14   O     O_R   0.609170 0.155190 0.052660 -0.536948
O15   O     O_R   0.390830 0.655190 0.447340 -0.542563
O16   O     O_R   0.109170 0.344810 0.947340 -0.536948
C5    C     C_R   0.551435 0.871173 0.424956 0.793935
C6    C     C_R   0.947226 0.126698 0.926370 0.802023
C7    C     C_R   0.051434 0.628826 0.575043 0.793984
C8    C     C_R   0.447225 0.373301 0.073630 0.802021
O17   O     O_3   0.557310 0.749980 0.536820 -0.390114
O18   O     O_3   0.942690 0.250020 0.036820 -0.387289
O19   O     O_3   0.057310 0.750020 0.463180 -0.390133
O20   O     O_3   0.442690 0.249980 0.963180 -0.387288
V1    V     V_3+5 0.832160 0.749980 0.493170 1.409872
V2    V     V_3+5 0.667840 0.250020 0.993170 1.421433
V3    V     V_3+5 0.332160 0.750020 0.506830 1.409902
V4    V     V_3+5 0.167840 0.249980 0.006830 1.421432
C9    C     C_R   0.082241 0.599019 0.869547 -0.113222
C10   C     C_R   0.543528 0.397263 0.364270 -0.129987
C11   C     C_R   0.582227 0.900978 0.130453 -0.113229
C12   C     C_R   0.043528 0.102739 0.635729 -0.129983
H1    H     H_    0.057264 0.539387 0.955828 0.097019
H2    H     H_    0.581913 0.454733 0.450564 0.091880
H3    H     H_    0.557254 0.960610 0.044172 0.097029
H4    H     H_    0.081904 0.045269 0.549434 0.091877
H5    H     H_    0.174512 0.716974 0.788931 0.143736
H6    H     H_    0.479704 0.273956 0.284660 0.159376
H7    H     H_    0.674515 0.783023 0.211073 0.143771
H8    H     H_    0.979708 0.226046 0.715339 0.159373
H9    H     H_    0.138415 0.659762 0.887918 0.154301
H10   H     H_    0.552776 0.330349 0.381682 0.155822
H11   H     H_    0.638396 0.840234 0.112082 0.154301
H12   H     H_    0.052772 0.169653 0.618317 0.155821
C13   C     C_R   0.964889 0.450904 0.886439 -0.047436
C14   C     C_R   0.543593 0.554638 0.382922 -0.035200
C15   C     C_R   0.464887 0.049096 0.113561 -0.047444
C16   C     C_R   0.043592 0.945364 0.617076 -0.035199
C17   C     C_R   0.971185 0.475573 0.595258 -0.285951
C18   C     C_R   0.442618 0.533220 0.092514 -0.295477
C19   C     C_R   0.471180 0.024427 0.404743 -0.285942
C20   C     C_R   0.942624 0.966780 0.907486 -0.295496
C21   C     C_R   0.905922 0.408038 0.632447 0.463593
C22   C     C_R   0.436690 0.607772 0.129572 0.466592
C23   C     C_R   0.405914 0.091963 0.367554 0.463593
C24   C     C_R   0.936717 0.892228 0.870428 0.466628
C25   C     C_R   0.913042 0.419620 0.693922 -0.204009
C26   C     C_R   0.461596 0.597439 0.190994 -0.209523
C27   C     C_R   0.413035 0.080381 0.306079 -0.204006
C28   C     C_R   0.961633 0.902562 0.809006 -0.209534
C29   C     C_R   0.985494 0.497460 0.720288 -0.041558
C30   C     C_R   0.475092 0.512421 0.217474 -0.043279
C31   C     C_R   0.485489 0.002541 0.279713 -0.041543
C32   C     C_R   0.975115 0.987580 0.782525 -0.043292
C33   C     C_R   0.048792 0.567306 0.681854 -0.024593
C34   C     C_R   0.457527 0.436514 0.179561 -0.023628
C35   C     C_R   0.548791 0.932695 0.318146 -0.024628
C36   C     C_R   0.957540 0.063487 0.820439 -0.023629
C37   C     C_R   0.995199 0.507776 0.783784 0.079828
C38   C     C_R   0.500629 0.500138 0.280471 0.081968
C39   C     C_R   0.495192 0.992224 0.216217 0.079832
C40   C     C_R   0.000644 0.999864 0.719528 0.081967
C41   C     C_R   0.064976 0.587924 0.807665 0.084838
C42   C     C_R   0.511620 0.412505 0.303427 0.078014
C43   C     C_R   0.564963 0.912074 0.192335 0.084827
C44   C     C_R   0.011628 0.087497 0.696572 0.078014
C45   C     C_R   0.123168 0.655694 0.769938 -0.278304
C46   C     C_R   0.481761 0.340216 0.266260 -0.271273
C47   C     C_R   0.623154 0.844304 0.230063 -0.278262
C48   C     C_R   0.981769 0.159785 0.733740 -0.271281
C49   C     C_R   0.122720 0.645548 0.707925 0.391321
C50   C     C_R   0.441878 0.351847 0.206063 0.405401
C51   C     C_R   0.622717 0.854454 0.292074 0.391260
C52   C     C_R   0.941887 0.148154 0.793937 0.405405
C53   C     C_R   0.943348 0.440202 0.824721 -0.211563
C54   C     C_R   0.515202 0.571079 0.321876 -0.197875
C55   C     C_R   0.443348 0.059799 0.175279 -0.211570
C56   C     C_R   0.015211 0.928922 0.678123 -0.197912
C57   C     C_R   0.034820 0.530747 0.908438 -0.194329
C58   C     C_R   0.559989 0.467839 0.403615 -0.190141
C59   C     C_R   0.534811 0.969251 0.091562 -0.194332
C60   C     C_R   0.059985 0.032163 0.596384 -0.190141
C61   C     C_R   0.035358 0.555821 0.618643 -0.128096
C62   C     C_R   0.451010 0.447907 0.116461 -0.131095
C63   C     C_R   0.535358 0.944179 0.381358 -0.128130
C64   C     C_R   0.951016 0.052093 0.883539 -0.131087
H13   H     H_    0.895468 0.377091 0.809997 0.157948
H14   H     H_    0.503201 0.639327 0.308389 0.139272
H15   H     H_    0.395475 0.122911 0.190004 0.157951
H16   H     H_    0.003211 0.860675 0.691611 0.139281
H17   H     H_    0.966743 0.467157 0.547357 0.103611
H18   H     H_    0.437197 0.541631 0.044588 0.107654
H19   H     H_    0.466741 0.032841 0.452644 0.103599
H20   H     H_    0.937185 0.958367 0.955411 0.107641
H21   H     H_    0.855856 0.366416 0.719823 0.126938
H22   H     H_    0.464341 0.657364 0.216961 0.130998
H23   H     H_    0.355848 0.133584 0.280178 0.126940
H24   H     H_    0.964392 0.842638 0.783039 0.130996
O21   O     O_3   0.842082 0.327383 0.610713 -0.566360
C65   C     C_3   0.709196 0.339718 0.565187 0.075771
H25   H     H_    0.778908 0.353807 0.522075 0.122148
H26   H     H_    0.610591 0.394366 0.575952 0.118368
C66   C     C_3   0.598028 0.254781 0.557777 -0.710820
H27   H     H_    0.523868 0.238909 0.599810 0.224470
H28   H     H_    0.495131 0.263382 0.521485 0.185701
H29   H     H_    0.691519 0.198884 0.546234 0.221748
O22   O     O_3   0.417614 0.692499 0.106372 -0.564608
C67   C     C_3   0.246317 0.699628 0.076080 0.081867
H30   H     H_    0.129729 0.674676 0.104057 0.118904
H31   H     H_    0.249784 0.662480 0.033309 0.115808
C68   C     C_3   0.208181 0.796386 0.061430 -0.702452
H32   H     H_    0.319530 0.822899 0.032321 0.218246
H33   H     H_    0.073889 0.802260 0.037633 0.184524
H34   H     H_    0.201306 0.835995 0.103071 0.229429
O23   O     O_3   0.342081 0.172621 0.389286 -0.566356
C69   C     C_3   0.209255 0.160298 0.434833 0.075775
H35   H     H_    0.279025 0.146214 0.477935 0.122149
H36   H     H_    0.110631 0.105651 0.424085 0.118354
C70   C     C_3   0.098109 0.245240 0.442254 -0.710828
H37   H     H_    0.023858 0.261097 0.400234 0.224462
H38   H     H_    0.995290 0.236657 0.478571 0.185722
H39   H     H_    0.191629 0.301140 0.453765 0.221753
O24   O     O_3   0.917631 0.807501 0.893627 -0.564612
C71   C     C_3   0.746356 0.800377 0.923934 0.081793
H40   H     H_    0.629760 0.825423 0.895998 0.118886
H41   H     H_    0.749946 0.837437 0.966738 0.115839
C72   C     C_3   0.708094 0.703603 0.938498 -0.702391
H42   H     H_    0.819381 0.677009 0.967598 0.218245
H43   H     H_    0.573767 0.697719 0.962274 0.184498
H44   H     H_    0.701225 0.664073 0.896822 0.229446
O25   O     O_3   0.188857 0.714261 0.673049 -0.576425
C73   C     C_3   0.382668 0.720972 0.680249 -0.196545
H45   H     H_    0.452975 0.657211 0.669534 0.131415
H46   H     H_    0.420667 0.743430 0.725775 0.113634
H47   H     H_    0.435476 0.771827 0.648920 0.178710
O26   O     O_3   0.375363 0.280435 0.174351 -0.579368
C74   C     C_3   0.183115 0.273619 0.185462 -0.255581
H48   H     H_    0.108517 0.335259 0.172337 0.147956
H49   H     H_    0.154861 0.257654 0.233024 0.132509
H50   H     H_    0.125789 0.218694 0.158371 0.172948
O27   O     O_3   0.688892 0.785743 0.326940 -0.576443
C75   C     C_3   0.882748 0.779166 0.319809 -0.196392
H51   H     H_    0.952834 0.842919 0.330692 0.131509
H52   H     H_    0.921010 0.756959 0.274248 0.113566
H53   H     H_    0.935529 0.728189 0.351052 0.178647
O28   O     O_3   0.875367 0.219565 0.825650 -0.579367
C76   C     C_3   0.683121 0.226382 0.814537 -0.255581
H54   H     H_    0.608522 0.164740 0.827657 0.147951
H55   H     H_    0.654873 0.242352 0.766976 0.132504
H56   H     H_    0.625789 0.281303 0.841631 0.172951

loop_
_geom_bond_atom_site_label_1
_geom_bond_atom_site_label_2
_ccdc_geom_bond_type
C22   C26   A    
C47   C51   A    
O1    C5    A    
C19   C23   A    
O19   V1    S    
H7    C47   S    
O3    C7    A    
H6    C46   S    
C44   C48   A    
C25   H21   S    
C76   H56   S    
C36   C64   A    
O25   C73   S    
C29   C37   A    
C30   C34   A    
O7    C3    A    
C76   H55   S    
C8    C62   S    
C28   C32   A    
O9    V1    S    
C75   H51   S    
O10   V2    S    
O23   C69   S    
C66   H28   S    
C18   C22   A    
O4    C8    A    
C29   C33   A    
C28   H24   S    
C31   C35   A    
C30   C38   A    
O1    V3    S    
O13   V1    S    
O2    V4    S    
C74   H50   S    
C11   C43   A    
O3    V1    S    
C12   C60   A    
C54   H14   S    
C3    C16   S    
C15   C55   A    
C14   C54   A    
C20   H20   S    
C2    O16   A    
O2    C6    A    
C70   H39   S    
C74   H48   S    
C16   C60   A    
O14   V2    S    
O5    V1    S    
C39   C55   A    
C24   O24   S    
C53   H13   S    
O11   C7    A    
O15   V3    S    
O12   C8    A    
C74   H49   S    
H4    C60   S    
C36   C52   A    
C1    O15   A    
C65   H25   S    
C73   H46   S    
C27   C31   A    
C6    C64   S    
C18   H18   S    
H1    C57   S    
O8    V4    S    
C40   C44   A    
O7    V3    S    
C12   C44   A    
C66   H29   S    
C55   H15   S    
C26   C30   A    
O18   V4    S    
C14   C58   A    
C21   O21   S    
C17   C61   A    
C46   C50   A    
C35   C63   A    
C20   C24   A    
C19   H19   S    
C32   C36   A    
C19   C63   A    
C69   H36   S    
O5    C1    A    
C9    H9    S    
C25   C29   A    
C68   H34   S    
C73   H47   S    
C42   C46   A    
C26   H22   S    
C41   C45   A    
O8    C4    A    
H5    C45   S    
H2    C58   S    
O9    C5    A    
O11   V3    S    
C50   O26   S    
H3    C59   S    
O22   C67   S    
C73   H45   S    
C71   H41   S    
C40   C56   A    
C10   H10   S    
C7    C61   S    
C10   C58   A    
C70   H37   S    
C35   C51   A    
C72   H44   S    
C69   C70   S    
O12   V4    S    
C20   C64   A    
C67   H31   S    
C34   C50   A    
C4    C15   S    
C33   C49   A    
C68   H33   S    
O21   C65   S    
O16   V4    S    
C23   O23   S    
C22   O22   S    
C17   C21   A    
O6    V2    S    
O17   V3    S    
C3    O13   A    
C75   H53   S    
C1    C14   S    
C48   C52   A    
C13   C53   A    
H8    C48   S    
C71   C72   S    
C9    C57   A    
O6    C2    A    
C65   H26   S    
C21   C25   A    
C11   C59   A    
C32   C40   A    
O24   C71   S    
C23   C27   A    
C24   C28   A    
O28   C76   S    
O10   C6    A    
C67   C68   S    
C72   H43   S    
C69   H35   S    
C67   H30   S    
C37   C53   A    
O20   V2    S    
C76   H54   S    
C66   H27   S    
C10   C42   A    
C43   C47   A    
C9    C41   A    
C68   H32   S    
C5    C63   S    
C38   C54   A    
C49   O25   S    
C75   H52   S    
C12   H12   S    
C51   O27   S    
C52   O28   S    
C27   H23   S    
O4    V2    S    
C65   C66   S    
C16   C56   A    
C71   H40   S    
C56   H16   S    
C17   H17   S    
C31   C39   A    
C38   C42   A    
C4    O14   A    
O27   C75   S    
C70   H38   S    
C37   C41   A    
O26   C74   S    
C18   C62   A    
C13   C57   A    
C11   H11   S    
C72   H42   S    
C2    C13   S    
C39   C43   A    
C45   C49   A    
C34   C62   A    
C15   C59   A    
C33   C61   A    
