data_mof_unit_23905.cif
_audit_creation_date              2012-12-10T16:45:21-0500
_audit_creation_method            fapswitch 2.2
_symmetry_space_group_name_H-M    P1
_symmetry_Int_Tables_number       1
_space_group_crystal_system       triclinic
_cell_length_a                    7.416504
_cell_length_b                    8.69706
_cell_length_c                    15.831877
_cell_angle_alpha                 94.293071
_cell_angle_beta                  74.287099
_cell_angle_gamma                 103.287555
_cell_volume                      956.619986352

loop_
_atom_site_label
_atom_site_type_symbol
_atom_type_description
_atom_site_fract_x
_atom_site_fract_y
_atom_site_fract_z
_atom_type_partial_charge
C1    C     C_R   0.545191 0.800243 0.502605 0.878070
C2    C     C_R   0.454809 0.199757 0.497395 0.878070
C3    C     C_R   0.285439 0.384157 0.078695 -0.199378
C4    C     C_R   0.714561 0.615843 0.921305 -0.199378
C5    C     C_R   0.153373 0.348091 0.028930 -0.209567
C6    C     C_R   0.846627 0.651908 0.971070 -0.209567
C7    C     C_2   0.570573 0.968161 0.503941 -0.358865
C8    C     C_2   0.429427 0.031839 0.496059 -0.358864
C9    C     C_R   0.381526 0.488240 0.666903 0.794842
C10   C     C_R   0.618474 0.511760 0.333097 0.794841
C11   C     C_R   0.305335 0.471666 0.763500 -0.141483
C12   C     C_R   0.694665 0.528333 0.236500 -0.141483
C13   C     C_R   0.066787 0.357374 0.893802 -0.225553
C14   C     C_R   0.933213 0.642626 0.106198 -0.225553
C15   C     C_R   0.113311 0.397619 0.805436 -0.016864
C16   C     C_R   0.886689 0.602380 0.194564 -0.016864
C17   C     C_R   0.438451 0.517251 0.814033 -0.235965
C18   C     C_R   0.561549 0.482749 0.185967 -0.235966
C19   C     C_R   0.391508 0.482056 0.903780 0.085625
C20   C     C_R   0.608492 0.517944 0.096220 0.085625
C21   C     C_R   0.203688 0.396243 0.942306 0.123386
C22   C     C_R   0.796312 0.603757 0.057694 0.123386
C23   C     C_R   0.527063 0.524818 0.955469 0.066045
C24   C     C_R   0.472937 0.475182 0.044531 0.066045
Cu1   Cu    Cu3+1 0.322120 0.483240 0.490330 0.996713
Cu2   Cu    Cu3+1 0.677880 0.516760 0.509670 0.996713
H1    H     H_    0.010398 0.280312 0.058532 0.159050
H2    H     H_    0.989602 0.719688 0.941468 0.159050
H3    H     H_    0.418770 0.424148 0.219654 0.186169
H4    H     H_    0.581229 0.575852 0.780346 0.186169
H5    H     H_    0.921441 0.296417 0.925441 0.167374
H6    H     H_    0.078559 0.703583 0.074559 0.167375
H7    H     H_    0.234566 0.337026 0.143844 0.170877
H8    H     H_    0.765434 0.662974 0.856156 0.170877
H9    H     H_    0.706496 0.039727 0.511444 0.181997
H10   H     H_    0.293504 0.960273 0.488556 0.181997
H11   H     H_    0.005833 0.618633 0.566769 0.250040
H12   H     H_    0.994167 0.381367 0.433231 0.250040
N1    N     N_2   0.945180 0.542040 0.524240 -0.189469
N2    N     N_2   0.054820 0.457960 0.475760 -0.189469
O1    O     O_R   0.384450 0.714270 0.493720 -0.586534
O2    O     O_R   0.615550 0.285730 0.506280 -0.586534
O3    O     O_R   0.684880 0.742590 0.510050 -0.585376
O4    O     O_R   0.315120 0.257410 0.489950 -0.585376
O5    O     O_R   0.265540 0.477900 0.617090 -0.558832
O6    O     O_R   0.734460 0.522100 0.382910 -0.558831
O7    O     O_R   0.565970 0.506210 0.633420 -0.563446
O8    O     O_R   0.434030 0.493790 0.366580 -0.563446
C25   C     C_2   0.043438 0.641849 0.239040 0.854255
O9    O     O_2   0.076470 0.540120 0.278278 -0.610671
O10   O     O_R   0.162203 0.793100 0.230764 -0.767248
H13   H     H_    0.267350 0.804786 0.262020 0.334805
C26   C     C_2   0.956562 0.358150 0.760960 0.854257
O11   O     O_2   0.923529 0.459879 0.721723 -0.610672
O12   O     O_R   0.837800 0.206899 0.769235 -0.767248
H14   H     H_    0.732653 0.195212 0.737978 0.334805

loop_
_geom_bond_atom_site_label_1
_geom_bond_atom_site_label_2
_ccdc_geom_bond_type
C10   O6    A    
C19   C23   A    
C23   C24   A    
C9    O5    A    
C14   C16   A    
C6    H2    S    
C1    O3    A    
O12   H14   S    
C14   C22   A    
C26   O12   S    
C2    O4    A    
C3    C5    A    
C13   C21   A    
C7    C8    D    
H11   N1    S    
C18   H3    S    
C1    C7    S    
C26   O11   D    
H12   N2    S    
C17   H4    S    
C9    C11   S    
Cu1   O8    S    
C3    C24   A    
C10   C12   S    
Cu2   O7    S    
C2    O2    A    
C15   C26   S    
Cu1   O4    S    
C1    O1    A    
C19   C21   A    
C20   C22   A    
Cu2   O3    S    
C9    O7    A    
C18   C20   A    
C13   C15   A    
Cu1   N2    S    
C10   O8    A    
C20   C24   A    
C4    H8    S    
Cu2   N1    S    
C3    H7    S    
Cu1   O1    S    
O10   H13   S    
C6    C22   A    
Cu1   O5    S    
C7    H9    S    
C5    C21   A    
C16   C25   S    
Cu2   O2    S    
C4    C6    A    
C25   O9    D    
C8    H10   S    
C12   C18   A    
N1    N2    D    
C4    C23   A    
Cu2   O6    S    
C11   C17   A    
C17   C19   A    
Cu1   Cu2   S    
C5    H1    S    
C11   C15   A    
C13   H5    S    
C2    C8    S    
C12   C16   A    
C14   H6    S    
C25   O10   S    
