data_mof_unit_62268.cif
_audit_creation_date              2012-12-10T17:06:40-0500
_audit_creation_method            fapswitch 2.2
_symmetry_space_group_name_H-M    P1
_symmetry_Int_Tables_number       1
_space_group_crystal_system       triclinic
_cell_length_a                    14.157021
_cell_length_b                    10.758916
_cell_length_c                    10.030379
_cell_angle_alpha                 90.1053
_cell_angle_beta                  90.103623
_cell_angle_gamma                 90.134591
_cell_volume                      1527.75984475

loop_
_atom_site_label
_atom_site_type_symbol
_atom_type_description
_atom_site_fract_x
_atom_site_fract_y
_atom_site_fract_z
_atom_type_partial_charge
C1    C     C_R   0.502062 0.262681 0.499784 0.927901
C2    C     C_R   0.498232 0.737342 0.500019 0.931871
C3    C     C_R   0.670811 0.500121 0.500096 0.893367
C4    C     C_1   0.227705 0.500050 0.499725 -0.199022
C5    C     C_1   0.142469 0.500159 0.499778 -0.006911
C6    C     C_1   0.042600 0.500272 0.499983 0.011665
C7    C     C_1   0.957370 0.500328 0.500180 0.012416
C8    C     C_1   0.857504 0.500327 0.500342 -0.003560
C9    C     C_1   0.617897 0.657650 0.861410 0.258632
C10   C     C_1   0.772272 0.500257 0.500334 -0.192988
C11   C     C_2   0.503864 0.932878 0.387854 -0.155999
C12   C     C_2   0.490037 0.868830 0.500063 -0.324037
C13   C     C_2   0.498189 0.066670 0.387526 -0.155524
C14   C     C_2   0.511240 0.131308 0.499743 -0.329199
C15   C     C_2   0.555464 0.570428 0.925437 0.004295
C16   C     C_2   0.559712 0.563469 0.075500 -0.170836
C17   C     C_R   0.329181 0.499936 0.499913 0.890152
H1    H     H_    0.518347 0.886987 0.293486 0.174602
H2    H     H_    0.469920 0.911580 0.593685 0.152562
H3    H     H_    0.483916 0.112002 0.292900 0.174722
H4    H     H_    0.531299 0.089048 0.593589 0.154897
H5    H     H_    0.460862 0.434168 0.897674 0.153348
H6    H     H_    0.614523 0.616258 0.126199 0.164796
H7    H     H_    0.445386 0.457348 0.101752 0.162795
N1    N     N_2   0.500930 0.501330 0.852150 -0.206363
N2    N     N_2   0.500950 0.501360 0.147810 -0.188394
N3    N     N_1   0.668194 0.727834 0.810358 -0.219567
O1    O     O_R   0.499990 0.319060 0.613040 -0.614398
O2    O     O_R   0.500010 0.319100 0.386900 -0.606950
O3    O     O_R   0.373700 0.499980 0.613090 -0.594998
O4    O     O_R   0.373730 0.500020 0.386960 -0.595217
O5    O     O_R   0.499990 0.680900 0.613100 -0.606141
O6    O     O_R   0.500010 0.680940 0.386960 -0.608108
O7    O     O_R   0.626270 0.499980 0.613040 -0.588643
O8    O     O_R   0.626300 0.500020 0.386910 -0.594399
Zn1   Zn    Zn3+2 0.499980 0.499970 0.650990 0.951827
Zn2   Zn    Zn3+2 0.500020 0.500030 0.349010 0.941406

loop_
_geom_bond_atom_site_label_1
_geom_bond_atom_site_label_2
_ccdc_geom_bond_type
C1    O1    A    
C12   H2    S    
C11   C12   D    
N2    Zn2   S    
C6    C7    T    
O3    Zn1   S    
C3    O7    A    
C3    O8    A    
C2    C12   S    
C1    O2    A    
C9    C15   S    
C7    C8    S    
C11   H1    S    
C3    C10   S    
C13   C14   D    
C17   O3    A    
C11   C13   S    
C9    N3    T    
C4    C17   S    
O5    Zn1   S    
C2    O6    A    
C8    C10   T    
O8    Zn2   S    
H7    N2    S    
C16   H6    S    
O7    Zn1   S    
C16   N2    D    
C5    C6    S    
C17   O4    A    
C15   N1    D    
N1    Zn1   S    
C14   H4    S    
C15   C16   S    
O1    Zn1   S    
C2    O5    A    
O2    Zn2   S    
C1    C14   S    
C13   H3    S    
O6    Zn2   S    
O4    Zn2   S    
C4    C5    T    
H5    N1    S    
