data_mof_unit_8632.cif
_audit_creation_date              2012-12-10T18:57:09-0500
_audit_creation_method            fapswitch 2.2
_symmetry_space_group_name_H-M    P1
_symmetry_Int_Tables_number       1
_space_group_crystal_system       triclinic
_cell_length_a                    8.734446
_cell_length_b                    10.836531
_cell_length_c                    9.54799
_cell_angle_alpha                 90.053516
_cell_angle_beta                  97.689737
_cell_angle_gamma                 90.272849
_cell_volume                      895.589369192

loop_
_atom_site_label
_atom_site_type_symbol
_atom_type_description
_atom_site_fract_x
_atom_site_fract_y
_atom_site_fract_z
_atom_type_partial_charge
C1    C     C_R   0.503412 0.262261 0.500132 0.846973
C2    C     C_R   0.538788 0.934778 0.378111 -0.182753
C3    C     C_R   0.518041 0.870585 0.501991 -0.265964
C4    C     C_R   0.520340 0.936549 0.627753 -0.014688
C5    C     C_3   0.413456 0.930427 0.737303 0.469194
C6    C     C_3   0.415171 0.070634 0.737560 0.471645
C7    C     C_R   0.567061 0.594967 0.081761 0.221150
C8    C     C_R   0.419442 0.413811 0.064475 -0.000109
C9    C     C_R   0.418984 0.414095 0.915535 -0.004253
C10   C     C_R   0.567308 0.594699 0.934431 0.249279
C11   C     C_3   0.731995 0.634460 0.947179 -0.491119
C12   C     C_R   0.204027 0.498834 0.464069 0.861227
C13   C     C_3   0.732551 0.633793 0.106095 0.420374
C14   C     C_R   0.502630 0.737613 0.500349 0.862342
C15   C     C_R   0.796113 0.499932 0.536127 0.888917
C16   C     C_2   0.038537 0.495574 0.444681 -0.322679
C17   C     C_2   0.961904 0.501000 0.556308 -0.351997
C18   C     C_R   0.521185 0.063709 0.627328 -0.056041
C19   C     C_R   0.519505 0.129068 0.501088 -0.301980
C20   C     C_R   0.540018 0.063356 0.377204 0.633494
Cu1   Cu    Cu3+1 0.499990 0.499980 0.640670 0.987988
Cu2   Cu    Cu3+1 0.500010 0.500020 0.359330 1.010192
H1    H     H_    0.808415 0.562869 0.910768 0.162428
H2    H     H_    0.745105 0.728009 0.902513 0.267794
H3    H     H_    0.810177 0.563712 0.161280 0.080848
H4    H     H_    0.546483 0.886236 0.280164 0.257056
H5    H     H_    0.356629 0.342621 0.112428 0.182653
N1    N     N_R   0.500980 0.500930 0.148050 -0.245736
N2    N     N_R   0.500990 0.500890 0.852140 -0.210478
O1    O     O_R   0.500000 0.319640 0.618810 -0.571140
O2    O     O_R   0.500020 0.319680 0.381230 -0.529712
O3    O     O_R   0.274830 0.499980 0.591380 -0.590682
O4    O     O_R   0.274850 0.500020 0.353800 -0.590849
O5    O     O_R   0.499980 0.680320 0.618770 -0.563639
O6    O     O_R   0.500000 0.680360 0.381190 -0.564342
O7    O     O_R   0.725150 0.499980 0.646200 -0.589524
O8    O     O_R   0.725170 0.500020 0.408620 -0.578570
H6    H     H_    0.979739 0.487676 0.337733 0.169659
H7    H     H_    0.355144 0.343585 0.851865 0.172394
F1    F     F_    0.750371 0.750768 0.164303 -0.613768
H8    H     H_    0.021170 0.507221 0.663756 0.173798
F2    F     F_    0.552660 0.121820 0.253506 -0.596549
H9    H     H_    0.299192 0.888354 0.698798 0.007378
F3    F     F_    0.485209 0.880561 0.862442 -0.581115
H10   H     H_    0.301769 0.113643 0.700055 -0.014231
F4    F     F_    0.489407 0.119831 0.862558 -0.564869

loop_
_geom_bond_atom_site_label_1
_geom_bond_atom_site_label_2
_ccdc_geom_bond_type
C14   O5    A    
C7    C10   A    
C20   F2    S    
C6    H10   S    
Cu1   O1    S    
C15   O7    A    
C19   C20   A    
C9    N2    A    
C4    C18   A    
C7    C13   S    
C2    C3    A    
C5    H9    S    
C2    H4    S    
Cu1   O7    S    
Cu2   N1    S    
Cu1   Cu2   S    
C12   O3    A    
Cu2   O6    S    
C11   C13   S    
C10   N2    A    
C13   H3    S    
C3    C14   S    
C8    N1    A    
C4    C5    S    
C11   H1    S    
C1    O1    A    
C5    F3    S    
C1    O2    A    
C5    C6    S    
C6    C18   S    
Cu1   O3    S    
C17   H8    S    
C1    C19   S    
C10   C11   S    
C2    C20   A    
C3    C4    A    
C11   H2    S    
C9    H7    S    
C8    C9    A    
C18   C19   A    
Cu2   O2    S    
C14   O6    A    
C15   C17   S    
Cu2   O4    S    
C8    H5    S    
C13   F1    S    
Cu1   O5    S    
C6    F4    S    
C12   O4    A    
Cu2   O8    S    
Cu1   N2    S    
C15   O8    A    
C7    N1    A    
C12   C16   S    
C16   H6    S    
C16   C17   D    
