data_mof_unit_18245.cif
_audit_creation_date              2012-12-10T17:47:15-0500
_audit_creation_method            fapswitch 2.2
_symmetry_space_group_name_H-M    P1
_symmetry_Int_Tables_number       1
_space_group_crystal_system       triclinic
_cell_length_a                    11.704362
_cell_length_b                    14.718906
_cell_length_c                    14.509656
_cell_angle_alpha                 65.618124
_cell_angle_beta                  103.330429
_cell_angle_gamma                 102.443271
_cell_volume                      2194.87992054

loop_
_atom_site_label
_atom_site_type_symbol
_atom_type_description
_atom_site_fract_x
_atom_site_fract_y
_atom_site_fract_z
_atom_type_partial_charge
C1    C     C_R   0.482639 0.119155 0.311061 0.847608
C2    C     C_R   0.520413 0.880644 0.689257 0.843951
C3    C     C_R   0.443942 0.323293 0.994375 -0.053123
C4    C     C_R   0.546518 0.674371 0.006409 -0.061858
C5    C     C_R   0.486581 0.464613 0.051743 0.013031
C6    C     C_R   0.472766 0.533545 0.948104 0.016609
C7    C     C_R   0.437897 0.494254 0.870144 -0.258468
C8    C     C_R   0.530466 0.502567 0.129911 -0.264102
C9    C     C_R   0.423179 0.391308 0.891809 0.436231
C10   C     C_R   0.560773 0.604995 0.109057 0.431128
C11   C     C_R   0.716893 0.296506 0.648791 -0.212688
C12   C     C_R   0.289000 0.709083 0.342492 -0.200610
C13   C     C_R   0.681262 0.213684 0.621376 0.154471
C14   C     C_R   0.326788 0.793006 0.368054 0.141043
C15   C     C_R   0.507098 0.279903 0.518743 0.061287
C16   C     C_R   0.486345 0.715971 0.488126 0.035602
C17   C     C_R   0.540805 0.369372 0.539854 0.007132
C18   C     C_R   0.450855 0.626146 0.467878 0.007331
C19   C     C_R   0.645422 0.373844 0.611666 0.147066
C20   C     C_R   0.348202 0.623362 0.393529 0.135476
C21   C     C_R   0.475576 0.453960 0.491694 0.107680
C22   C     C_R   0.513989 0.540361 0.518120 0.107732
C23   C     C_R   0.284129 0.000417 0.500027 0.811475
C24   C     C_R   0.715864 0.999593 0.499957 0.852676
C25   C     C_R   0.613532 0.537979 0.594968 -0.265774
C26   C     C_R   0.374378 0.455376 0.416632 -0.258308
C27   C     C_R   0.677805 0.456543 0.642454 0.016518
C28   C     C_R   0.309160 0.536299 0.370140 0.009404
C29   C     C_1   0.162649 0.000972 0.500182 -0.145487
C30   C     C_1   0.837321 0.999070 0.499750 -0.133033
C31   C     C_1   0.060025 0.000510 0.500066 0.031148
C32   C     C_1   0.939936 0.999551 0.499837 0.033721
C33   C     C_R   0.472195 0.185658 0.200730 -0.173520
C34   C     C_R   0.530288 0.813876 0.800112 -0.178324
C35   C     C_R   0.446896 0.220698 0.018978 -0.139522
C36   C     C_R   0.582427 0.777932 0.982534 -0.144407
C37   C     C_R   0.468300 0.152873 0.120659 0.390721
C38   C     C_R   0.581712 0.846967 0.881513 0.399616
C39   C     C_R   0.467685 0.287631 0.175572 -0.263980
C40   C     C_R   0.486069 0.711609 0.824333 -0.270030
C41   C     C_R   0.465751 0.359041 0.074475 0.072815
C42   C     C_R   0.500081 0.639362 0.925626 0.073292
Cu1   Cu    Cu3+1 0.469550 0.918260 0.475690 0.995285
Cu2   Cu    Cu3+1 0.530450 0.081740 0.524310 1.018362
H1    H     H_    0.642480 0.598105 0.622468 0.119122
H2    H     H_    0.341771 0.392892 0.393011 0.115067
H3    H     H_    0.440924 0.690175 0.761589 0.177349
H4    H     H_    0.463471 0.309944 0.236541 0.165589
H5    H     H_    0.438131 0.193032 0.959129 0.247775
H6    H     H_    0.616780 0.806008 0.042698 0.252767
H7    H     H_    0.425989 0.541880 0.790330 0.192895
H8    H     H_    0.549695 0.453217 0.208780 0.201344
H9    H     H_    0.562981 0.725397 0.542306 0.126395
H10   H     H_    0.427170 0.268021 0.468735 0.118313
H11   H     H_    0.278406 0.857038 0.330663 0.162656
H12   H     H_    0.738600 0.156751 0.647850 0.167366
H13   H     H_    0.802246 0.300143 0.696315 0.191226
H14   H     H_    0.214233 0.713456 0.281996 0.205849
N1    N     N_R   0.576230 0.204580 0.560790 -0.184047
N2    N     N_R   0.423770 0.795420 0.439210 -0.194607
O1    O     O_R   0.459870 0.022090 0.338120 -0.519353
O2    O     O_R   0.540130 0.977910 0.661880 -0.497100
O3    O     O_R   0.511290 0.160150 0.379180 -0.602663
O4    O     O_R   0.488710 0.839850 0.620820 -0.606051
O5    O     O_R   0.311490 0.930960 0.479480 -0.586277
O6    O     O_R   0.688510 0.069040 0.520520 -0.581340
O7    O     O_R   0.362910 0.069020 0.520540 -0.575704
O8    O     O_R   0.637090 0.930980 0.479460 -0.569788
S1    S     S_3+6 0.375302 0.350834 0.787729 -0.001406
O9    O     O_2   0.474738 0.310016 0.774272 -0.264271
O10   O     O_2   0.271466 0.269113 0.810686 -0.273153
O11   O     O_3   0.334044 0.446770 0.678593 -0.557143
H15   H     H_    0.296508 0.415227 0.628469 0.378989
S2    S     S_3+6 0.623358 0.641921 0.214524 -0.006809
O12   O     O_2   0.743862 0.701337 0.198284 -0.256458
O13   O     O_2   0.544634 0.706371 0.221580 -0.296247
O14   O     O_3   0.637824 0.540942 0.325148 -0.559722
H16   H     H_    0.685153 0.568107 0.376461 0.375778
S3    S     S_3+6 0.657662 0.969661 0.863588 0.050214
O15   O     O_2   0.572561 0.045961 0.811533 -0.219687
O16   O     O_2   0.716667 0.976457 0.964709 -0.233037
O17   O     O_3   0.762149 0.993624 0.791073 -0.569360
H17   H     H_    0.828018 0.037926 0.814552 0.373700
S4    S     S_3+6 0.492716 0.030572 0.141048 0.057234
O18   O     O_2   0.381558 0.958850 0.166859 -0.304633
O19   O     O_2   0.522128 0.030095 0.045716 -0.198913
O20   O     O_3   0.605810 0.993038 0.237205 -0.507995
H18   H     H_    0.600395 0.919792 0.254932 0.394444
C43   C     C_2   0.775699 0.461068 0.727042 0.388839
H19   H     H_    0.824824 0.533414 0.724424 0.068722
O21   O     O_2   0.797308 0.385927 0.803163 -0.488343
C44   C     C_2   0.199516 0.524080 0.298138 0.375854
H20   H     H_    0.197487 0.482810 0.250547 0.083187
O22   O     O_2   0.108593 0.553202 0.296200 -0.511742

loop_
_geom_bond_atom_site_label_1
_geom_bond_atom_site_label_2
_ccdc_geom_bond_type
C40   H3    S    
C21   C26   A    
C4    C36   A    
C10   S2    S    
Cu2   O6    S    
S4    O20   S    
O20   H18   S    
C1    C33   S    
C39   C41   A    
O14   H16   S    
C11   C19   A    
C33   C39   A    
S2    O13   D    
C34   C40   A    
C23   C29   S    
C35   C37   A    
C9    S1    S    
C5    C6    A    
C38   S3    S    
Cu2   N1    S    
C7    C9    A    
C16   N2    A    
C23   O7    A    
S1    O10   D    
C16   H9    S    
Cu1   O8    S    
C22   C25   A    
C35   H5    S    
C37   S4    S    
C43   O21   D    
C19   C27   A    
C8    H8    S    
C24   O6    A    
C13   H12   S    
C12   H14   S    
C2    C34   S    
C40   C42   A    
C14   H11   S    
C34   C38   A    
C21   C22   A    
C1    O3    A    
C2    O4    A    
Cu1   O4    S    
Cu2   O3    S    
S2    O12   D    
C15   H10   S    
S4    O18   D    
S3    O16   D    
C26   H2    S    
C20   C28   A    
Cu2   O2    S    
S2    O14   S    
C33   C37   A    
S1    O11   S    
Cu1   Cu2   S    
C3    C9    A    
C5    C8    A    
C31   C32   S    
C3    C35   A    
Cu1   O5    S    
C12   C20   A    
C44   O22   D    
C28   C44   S    
Cu1   N2    S    
C16   C18   A    
C12   C14   A    
C4    C10   A    
C25   H1    S    
C36   H6    S    
Cu1   O1    S    
C15   C17   A    
C5    C41   A    
C3    C41   A    
C18   C22   A    
C15   N1    A    
S4    O19   D    
O11   H15   S    
C1    O1    A    
S3    O17   S    
C6    C7    A    
C13   N1    A    
C25   C27   A    
C14   N2    A    
C26   C28   A    
C23   O5    A    
C36   C38   A    
C7    H7    S    
C29   C31   T    
C30   C32   T    
C11   C13   A    
C4    C42   A    
C44   H20   S    
C17   C19   A    
C27   C43   S    
C18   C20   A    
S1    O9    D    
C24   C30   S    
C24   O8    A    
S3    O15   D    
C8    C10   A    
O17   H17   S    
C6    C42   A    
Cu2   O7    S    
C43   H19   S    
C11   H13   S    
C2    O2    A    
C39   H4    S    
C17   C21   A    
