data_mof_unit_14390.cif
_audit_creation_date              2012-12-11T15:37:06-0500
_audit_creation_method            fapswitch 2.2
_symmetry_space_group_name_H-M    P1
_symmetry_Int_Tables_number       1
_space_group_crystal_system       triclinic
_cell_length_a                    15.054424
_cell_length_b                    15.077007
_cell_length_c                    34.826686
_cell_angle_alpha                 91.321307
_cell_angle_beta                  91.76293
_cell_angle_gamma                 60.117141
_cell_volume                      6850.31582426

loop_
_atom_site_label
_atom_site_type_symbol
_atom_type_description
_atom_site_fract_x
_atom_site_fract_y
_atom_site_fract_z
_atom_type_partial_charge
Br1   Br    Br    0.292131 0.495575 0.163893 -0.504879
Br2   Br    Br    0.087742 0.516737 0.654404 -0.543739
Br3   Br    Br    0.816072 0.246715 0.606407 -0.522500
C1    C     C_R   0.610683 0.302695 0.444017 0.542175
C2    C     C_R   0.588338 0.099871 0.763361 -0.109812
C3    C     C_R   0.085018 0.770276 0.884593 -0.122332
C4    C     C_R   0.111195 0.758894 0.846131 -0.122387
C5    C     C_R   0.118162 0.676071 0.824580 0.030534
C6    C     C_R   0.105772 0.600860 0.842686 -0.118217
C7    C     C_R   0.079640 0.612143 0.881222 -0.122115
C8    C     C_R   0.197629 0.579841 0.764439 -0.111910
C9    C     C_R   0.206692 0.576217 0.724726 -0.075523
C10   C     C_R   0.148055 0.664599 0.702870 0.057497
C11   C     C_R   0.081554 0.757130 0.721067 -0.106670
C12   C     C_R   0.072465 0.760871 0.760815 -0.113978
C13   C     C_R   0.591601 0.171833 0.788994 0.028799
C14   C     C_R   0.654500 0.764456 0.164411 -0.116563
C15   C     C_R   0.130566 0.672244 0.782773 0.025951
C16   C     C_R   0.203926 0.719233 0.646794 -0.151487
C17   C     C_R   0.240523 0.701639 0.609593 -0.133606
C18   C     C_R   0.188670 0.573849 0.600184 -0.089731
C19   C     C_R   0.151527 0.591484 0.637378 0.166861
C20   C     C_R   0.163763 0.661066 0.661459 0.035642
C21   C     C_R   0.237660 0.625241 0.586713 -0.009930
C22   C     C_R   0.672817 0.079035 0.906115 0.023001
C23   C     C_R   0.595335 0.067277 0.887302 -0.126195
C24   C     C_R   0.537861 0.205123 0.640964 -0.127414
C25   C     C_R   0.564308 0.102317 0.849749 -0.119767
C26   C     C_2   0.215381 0.537345 0.076237 0.626637
C27   C     C_R   0.827062 0.620161 0.160914 -0.119923
C28   C     C_R   0.542869 0.228641 0.602879 -0.149769
C29   C     C_R   0.699233 0.233434 0.618071 0.159259
C30   C     C_R   0.692326 0.211413 0.656223 -0.087041
C31   C     C_R   0.609876 0.201290 0.668118 -0.007821
C32   C     C_R   0.620283 0.248348 0.591181 0.028931
C33   C     C_R   0.046537 0.738667 0.048259 0.569195
C34   C     C_R   0.742110 0.686636 0.182772 0.027744
C35   C     C_R   0.747350 0.746696 0.064083 0.542766
C36   C     C_R   0.751094 0.040568 0.050621 0.541563
C37   C     C_R   0.016910 0.722482 0.939706 0.554265
C38   C     C_R   0.717204 0.730040 0.954922 0.541721
C39   C     C_R   0.826560 0.635352 0.121495 -0.122510
C40   C     C_R   0.721384 0.024371 0.942042 0.544087
C41   C     C_R   0.775952 0.581793 0.241461 -0.111096
C42   C     C_R   0.766983 0.575145 0.280879 -0.111049
C43   C     C_R   0.727137 0.663491 0.304217 0.029390
C44   C     C_R   0.701646 0.757578 0.287753 -0.117032
C45   C     C_R   0.609875 0.150113 0.830623 0.031283
C46   C     C_R   0.710001 0.764268 0.248336 -0.117516
C47   C     C_R   0.744483 0.676929 0.224794 0.026763
C48   C     C_R   0.606402 0.733722 0.358648 -0.117790
C49   C     C_R   0.593421 0.610153 0.449428 0.543035
C50   C     C_R   0.573650 0.721008 0.394036 -0.124577
C51   C     C_R   0.733228 0.561681 0.402765 -0.123890
C52   C     C_R   0.766100 0.574608 0.367416 -0.120316
C53   C     C_R   0.701502 0.658936 0.344451 0.032424
C54   C     C_R   0.635222 0.633013 0.415763 0.022253
C55   C     C_R   0.105227 0.728362 0.084361 -0.026998
C56   C     C_R   0.682260 0.167751 0.850558 -0.116909
C57   C     C_R   0.173001 0.631226 0.100543 0.062301
C58   C     C_R   0.198592 0.624944 0.140194 0.163890
C59   C     C_R   0.157348 0.714793 0.162857 0.012197
C60   C     C_R   0.100664 0.810346 0.145616 -0.166640
C61   C     C_R   0.303990 0.591335 0.442336 0.543266
C62   C     C_R   0.075365 0.817167 0.106699 -0.161260
C63   C     C_R   0.222787 0.742072 0.226093 -0.098768
C64   C     C_R   0.229281 0.734507 0.266084 -0.111657
C65   C     C_R   0.175216 0.695769 0.285448 0.027940
C66   C     C_R   0.112636 0.667190 0.264064 -0.110779
C67   C     C_R   0.713275 0.132702 0.887869 -0.121311
C68   C     C_R   0.106963 0.673953 0.224134 -0.077848
C69   C     C_R   0.163268 0.709827 0.204986 0.061196
C70   C     C_R   0.202318 0.587039 0.342606 -0.116759
C71   C     C_R   0.231751 0.562420 0.380986 -0.125556
C72   C     C_R   0.232085 0.721943 0.390336 -0.124937
C73   C     C_R   0.605589 0.300783 0.554005 0.561194
C74   C     C_R   0.202121 0.746792 0.351953 -0.122032
C75   C     C_R   0.190523 0.677895 0.327372 0.032662
C76   C     C_R   0.250734 0.627813 0.404852 0.021872
C77   C     C_R   0.723759 0.099164 0.086869 0.023294
C78   C     C_R   0.590382 0.258298 0.774148 -0.117079
C79   C     C_R   0.798612 0.109460 0.108376 -0.126679
C80   C     C_R   0.782764 0.138696 0.146930 -0.119575
C81   C     C_R   0.691496 0.159159 0.164314 0.030661
C82   C     C_R   0.612792 0.158735 0.141840 -0.101104
C83   C     C_R   0.628896 0.128704 0.103389 -0.110485
C84   C     C_R   0.591859 0.244543 0.223067 -0.108090
C85   C     C_R   0.587620 0.606572 0.559043 0.541825
C86   C     C_R   0.582649 0.250396 0.262869 -0.109052
C87   C     C_R   0.663907 0.180847 0.286568 0.025933
C88   C     C_R   0.754340 0.105163 0.269767 -0.117934
C89   C     C_R   0.593569 0.268751 0.734680 -0.114723
C90   C     C_R   0.763683 0.099609 0.230005 -0.116109
C91   C     C_R   0.682698 0.169498 0.206366 0.022597
C92   C     C_R   0.738860 0.186411 0.350766 -0.118518
C93   C     C_R   0.726545 0.214376 0.389449 -0.122404
C94   C     C_R   0.551974 0.246414 0.385455 -0.127098
C95   C     C_R   0.564361 0.218416 0.346724 -0.122935
C96   C     C_R   0.656524 0.192244 0.328716 0.030847
C97   C     C_R   0.297942 0.589184 0.551679 0.546476
C98   C     C_R   0.631555 0.248971 0.406695 0.022283
C99   C     C_R   0.691908 0.689492 0.919863 0.022007
C100  C     C_R   0.596231 0.193935 0.709318 0.027405
C101  C     C_R   0.766463 0.596965 0.903400 -0.124992
C102  C     C_R   0.754782 0.572081 0.865465 -0.122127
C103  C     C_R   0.668341 0.639137 0.843378 0.031207
C104  C     C_R   0.589368 0.726570 0.861018 -0.118564
C105  C     C_R   0.600910 0.751396 0.898967 -0.124456
C106  C     C_R   0.573602 0.648984 0.781802 -0.118509
C107  C     C_R   0.568644 0.648536 0.741762 -0.116316
C108  C     C_R   0.655747 0.624154 0.720413 0.024786
C109  C     C_R   0.740787 0.716940 0.103438 0.019116
C110  C     C_R   0.748838 0.596654 0.739753 -0.109090
C111  C     C_R   0.589980 0.111265 0.723718 -0.106575
C112  C     C_R   0.753727 0.597566 0.779829 -0.109934
C113  C     C_R   0.665741 0.625270 0.801244 0.027443
C114  C     C_R   0.721907 0.547004 0.655865 -0.093679
C115  C     C_R   0.706863 0.544259 0.616182 -0.096927
C116  C     C_R   0.549600 0.707293 0.620048 -0.124896
C117  C     C_R   0.564459 0.709769 0.659646 -0.120853
C118  C     C_R   0.648528 0.627807 0.678057 0.024423
C119  C     C_R   0.618225 0.622294 0.598150 0.014640
C120  C     C_R   0.065311 0.698981 0.902058 0.026977
C121  C     C_R   0.653641 0.779288 0.125096 -0.120149
Cr1   Cr    Cr6+3 0.426010 0.422500 0.497000 1.018080
Cr2   Cr    Cr6+3 0.651300 0.426310 0.501970 1.057680
Cr3   Cr    Cr6+3 0.422670 0.651170 0.501050 1.019141
Cr4   Cr    Cr6+3 0.905130 0.911420 0.992650 1.019279
Cr5   Cr    Cr6+3 0.911860 0.682710 0.002320 1.041580
Cr6   Cr    Cr6+3 0.682710 0.906840 0.004710 1.018472
H1    H     H_    0.586259 0.842547 0.112040 0.133995
H2    H     H_    0.895042 0.586321 0.105591 0.145229
H3    H     H_    0.059166 0.650575 0.208054 0.127290
H4    H     H_    0.194855 0.531893 0.324354 0.109344
H5    H     H_    0.245685 0.489205 0.391245 0.127521
H6    H     H_    0.069783 0.879695 0.162878 0.116077
H7    H     H_    0.245437 0.774263 0.408093 0.125690
H8    H     H_    0.872333 0.087513 0.096353 0.124251
H9    H     H_    0.569633 0.122100 0.087345 0.130317
H10   H     H_    0.500468 0.221408 0.330445 0.105222
H11   H     H_    0.512865 0.310856 0.275149 0.121213
H12   H     H_    0.497808 0.777319 0.403315 0.128754
H13   H     H_    0.528564 0.299242 0.205343 0.154636
H14   H     H_    0.840459 0.516758 0.357388 0.103931
H15   H     H_    0.843756 0.140370 0.163679 0.106091
H16   H     H_    0.817634 0.050087 0.287384 0.105512
H17   H     H_    0.833576 0.039435 0.217663 0.105752
H18   H     H_    0.810667 0.166781 0.337575 0.104201
H19   H     H_    0.789454 0.215024 0.405148 0.131727
H20   H     H_    0.541717 0.174318 0.154651 0.126686
H21   H     H_    0.478028 0.272148 0.398021 0.126942
H22   H     H_    0.837053 0.547096 0.918894 0.125765
H23   H     H_    0.895281 0.559414 0.174593 0.116784
H24   H     H_    0.541960 0.823103 0.910829 0.127387
H25   H     H_    0.508152 0.774096 0.676121 0.108344
H26   H     H_    0.785921 0.501823 0.292696 0.107110
H27   H     H_    0.496498 0.667655 0.727422 0.106843
H28   H     H_    0.505039 0.669312 0.797571 0.105135
H29   H     H_    0.815754 0.503027 0.852786 0.104234
H30   H     H_    0.816878 0.577838 0.723883 0.135880
H31   H     H_    0.825397 0.580748 0.794008 0.112035
H32   H     H_    0.787657 0.483129 0.669438 0.141031
H33   H     H_    0.761392 0.478074 0.600041 0.176942
H34   H     H_    0.782865 0.493575 0.419109 0.128133
H35   H     H_    0.521993 0.779967 0.844685 0.103292
H36   H     H_    0.480834 0.768992 0.607051 0.132243
H37   H     H_    0.075595 0.837405 0.900117 0.126754
H38   H     H_    0.802529 0.513614 0.223752 0.111038
H39   H     H_    0.064801 0.556075 0.893966 0.130286
H40   H     H_    0.260581 0.504834 0.711029 0.139214
H41   H     H_    0.243885 0.510962 0.780872 0.109581
H42   H     H_    0.122638 0.816610 0.832858 0.104568
H43   H     H_    0.036868 0.826086 0.704490 0.119658
H44   H     H_    0.019114 0.832678 0.774362 0.111149
H45   H     H_    0.024071 0.892191 0.094993 0.141823
H46   H     H_    0.213441 0.773261 0.665030 0.115510
H47   H     H_    0.277578 0.742633 0.599846 0.139627
H48   H     H_    0.110524 0.536448 0.826524 0.111479
H49   H     H_    0.587278 0.815137 0.180677 0.110018
H50   H     H_    0.183582 0.516385 0.582526 0.161890
H51   H     H_    0.562972 0.025957 0.900708 0.125683
H52   H     H_    0.772814 0.143238 0.901732 0.129130
H53   H     H_    0.750065 0.205206 0.677071 0.143389
H54   H     H_    0.596236 0.334217 0.723899 0.115938
H55   H     H_    0.590692 0.316051 0.793137 0.107421
H56   H     H_    0.191439 0.818343 0.341174 0.100612
H57   H     H_    0.507456 0.088825 0.835204 0.104641
H58   H     H_    0.591552 0.053124 0.704430 0.114595
H59   H     H_    0.590379 0.031890 0.773930 0.107782
H60   H     H_    0.474320 0.196172 0.649673 0.130041
H61   H     H_    0.672426 0.826444 0.305198 0.106950
H62   H     H_    0.482120 0.237484 0.583089 0.140070
H63   H     H_    0.719900 0.203073 0.836551 0.106756
H64   H     H_    0.687394 0.838114 0.236058 0.110510
H65   H     H_    0.554477 0.798999 0.341394 0.104134
H66   H     H_    0.246448 0.391390 0.069808 0.336798
H67   H     H_    0.279308 0.755714 0.281704 0.105571
H68   H     H_    0.265941 0.770649 0.211553 0.114763
H69   H     H_    0.068855 0.638696 0.278183 0.106531
O1    O     O_R   0.324990 0.503440 0.453910 -0.519322
O2    O     O_R   0.675430 0.831160 0.051290 -0.516668
O3    O     O_R   0.698870 0.998880 0.039560 -0.500713
O4    O     O_R   0.522030 0.339050 0.458320 -0.504768
O5    O     O_R   0.811290 0.006780 0.950620 -0.517257
O6    O     O_R   0.980960 0.812920 0.953200 -0.502277
O7    O     O_R   0.001480 0.656720 0.955830 -0.510054
O8    O     O_R   0.809240 0.683250 0.968050 -0.503215
O9    O     O_R   0.652500 0.818540 0.967340 -0.518510
O10   O     O_R   0.677620 0.987170 0.961730 -0.500633
O11   O     O_3   0.833240 0.833660 0.999890 -0.245397
O12   O     O_R   0.639980 0.519500 0.542640 -0.489517
O13   O     O_R   0.676180 0.324490 0.458320 -0.514734
O14   O     O_R   0.643570 0.521510 0.464260 -0.502170
O15   O     O_R   0.504630 0.675350 0.460920 -0.518617
O16   O     O_R   0.339850 0.642450 0.459830 -0.500843
O17   O     O_R   0.321120 0.501280 0.538470 -0.515355
O18   O     O_R   0.518440 0.337050 0.536710 -0.512425
O19   O     O_R   0.672300 0.322330 0.542880 -0.452273
O20   O     O_2   0.247912 0.537367 0.044486 -0.513292
O21   O     O_R   0.216050 0.449868 0.089104 -0.653851
O22   O     O_R   0.500750 0.673190 0.545480 -0.520306
O23   O     O_R   0.336260 0.640450 0.538210 -0.499611
O24   O     O_3   0.499990 0.499990 0.500010 -0.245319
O25   O     O_R   0.834210 0.019400 0.034570 -0.520891
O26   O     O_R   0.002210 0.824620 0.031030 -0.504145
O27   O     O_R   0.024400 0.669340 0.039790 -0.485782
O28   O     O_R   0.830490 0.694950 0.045870 -0.502557

loop_
_geom_bond_atom_site_label_1
_geom_bond_atom_site_label_2
_ccdc_geom_bond_type
C12   C15   A    
C52   C53   A    
C60   C62   A    
C8    C15   A    
C8    H41   S    
C90   C91   A    
Cr5   O7    S    
C2    C111  A    
C108  C118  S    
C114  C115  A    
C70   C71   A    
Cr4   O5    S    
C61   O16   A    
C92   C93   A    
C82   H20   S    
C13   C45   S    
C104  H35   S    
C94   C95   A    
C4    C5    A    
C44   C46   A    
C74   C75   A    
C56   H63   S    
C7    H39   S    
C33   O26   A    
C48   C53   A    
C11   H43   S    
C33   C55   S    
Cr2   O12   S    
C115  C119  A    
Cr5   O8    S    
Cr1   O17   S    
C92   C96   A    
C103  C104  A    
C37   O6    A    
C55   C57   A    
C112  C113  A    
C84   C91   A    
C111  H58   S    
C38   C99   S    
C10   C20   S    
C50   H12   S    
C43   C44   A    
C66   C68   A    
C114  C118  A    
C16   H46   S    
C13   C78   A    
C2    C13   A    
C77   C83   A    
C55   C62   A    
C89   C100  A    
Cr4   O11   S    
C80   H15   S    
C78   C89   A    
C67   H52   S    
C26   O21   S    
C63   C69   A    
C17   C21   A    
Cr1   O1    S    
C73   O19   A    
Cr4   O26   S    
C85   O12   A    
C39   H2    S    
Cr5   O27   S    
C30   H53   S    
C17   H47   S    
C70   C75   A    
C99   C105  A    
C24   H60   S    
Cr6   O2    S    
C6    C7    A    
C27   H23   S    
C46   C47   A    
Cr6   O3    S    
Cr3   O24   S    
C14   H49   S    
Cr1   O24   S    
C63   C64   A    
C117  C118  A    
C10   C11   A    
C62   H45   S    
C74   H56   S    
Cr4   O25   S    
C58   C59   A    
C3    C120  A    
C71   H5    S    
C106  H28   S    
C78   H55   S    
C101  C102  A    
H66   O21   S    
Cr1   O4    S    
C18   H50   S    
C24   C31   A    
C65   C75   S    
C32   C73   S    
C37   O7    A    
C115  H33   S    
C106  C113  A    
C36   O3    A    
C24   C28   A    
C64   C65   A    
C29   C32   A    
C100  C111  A    
C93   C98   A    
C81   C82   A    
C85   C119  S    
C7    C120  A    
C72   H7    S    
C25   H57   S    
C50   C54   A    
Cr2   O24   S    
C5    C6    A    
C1    O4    A    
C39   C109  A    
C22   C23   A    
C42   C43   A    
C28   H62   S    
C35   O2    A    
C117  H25   S    
C5    C15   S    
C107  C108  A    
C121  H1    S    
C103  C113  S    
C57   C58   A    
C48   C50   A    
C41   H38   S    
C112  H31   S    
C16   C20   A    
Br2   C19   S    
C59   C60   A    
Cr2   O14   S    
C88   C90   A    
C14   C121  A    
C80   C81   A    
C11   C12   A    
C26   C57   S    
C97   O23   A    
C73   O18   A    
C104  C105  A    
C1    C98   S    
Cr5   O28   S    
C4    H42   S    
C49   O15   A    
C30   C31   A    
C94   H21   S    
C59   C69   S    
C108  C110  A    
C42   H26   S    
C81   C91   S    
C9    C10   A    
C116  C117  A    
C99   C101  A    
C72   C74   A    
C116  H36   S    
C82   C83   A    
C63   H68   S    
C107  H27   S    
C83   H9    S    
C77   C79   A    
C22   C40   S    
C79   C80   A    
C3    H37   S    
C71   C76   A    
C61   O1    A    
C89   H54   S    
C61   C76   S    
C28   C32   A    
C36   O25   A    
Cr6   O11   S    
Cr4   O6    S    
C14   C34   A    
C35   C109  S    
C87   C96   S    
C41   C42   A    
C45   C56   A    
C116  C119  A    
C41   C47   A    
C37   C120  S    
C51   C52   A    
C97   O17   A    
C33   O27   A    
C52   H14   S    
C12   H44   S    
C21   C97   S    
C65   C66   A    
C19   C20   A    
C92   H18   S    
C64   H67   S    
Br1   C58   S    
C68   H3    S    
C9    H40   S    
C8    C9    A    
Cr3   O15   S    
C109  C121  A    
C3    C4    A    
C22   C67   A    
C114  H32   S    
C102  C103  A    
Cr6   O10   S    
C23   C25   A    
C31   C100  S    
C1    O13   A    
C51   H34   S    
C29   C30   A    
C101  H22   S    
C16   C17   A    
C84   C86   A    
C86   C87   A    
C2    H59   S    
C68   C69   A    
C79   H8    S    
C48   H65   S    
C106  C107  A    
C36   C77   S    
C34   C47   S    
Cr3   O16   S    
C87   C88   A    
C102  H29   S    
C38   O9    A    
C86   H11   S    
C93   H19   S    
C49   O14   A    
C25   C45   A    
C90   H17   S    
C110  H30   S    
C44   H61   S    
Br3   C29   S    
C40   O10   A    
Cr3   O23   S    
Cr6   O9    S    
C49   C54   S    
Cr3   O22   S    
C56   C67   A    
C23   H51   S    
C26   O20   D    
C105  H24   S    
C70   H4    S    
C27   C34   A    
C95   C96   A    
C46   H64   S    
C18   C21   A    
C43   C53   S    
C40   O5    A    
C66   H69   S    
C95   H10   S    
C85   O22   A    
C27   C39   A    
C60   H6    S    
Cr2   O13   S    
C38   O8    A    
C84   H13   S    
Cr5   O11   S    
C18   C19   A    
C72   C76   A    
C88   H16   S    
C94   C98   A    
C6    H48   S    
Cr2   O19   S    
C35   O28   A    
C110  C112  A    
C51   C54   A    
Cr1   O18   S    
