data_mof_unit_44210.cif
_audit_creation_date              2012-12-10T17:26:20-0500
_audit_creation_method            fapswitch 2.2
_symmetry_space_group_name_H-M    P1
_symmetry_Int_Tables_number       1
_space_group_crystal_system       triclinic
_cell_length_a                    37.363916
_cell_length_b                    21.924022
_cell_length_c                    22.044164
_cell_angle_alpha                 90.002951
_cell_angle_beta                  121.756598
_cell_angle_gamma                 89.859667
_cell_volume                      15354.3836205

loop_
_atom_site_label
_atom_site_type_symbol
_atom_type_description
_atom_site_fract_x
_atom_site_fract_y
_atom_site_fract_z
_atom_type_partial_charge
C1    C     C_R   0.002880 0.000791 0.622907 0.913044
C2    C     C_R   0.997185 0.000764 0.377128 0.912631
C3    C     C_R   0.502880 0.500791 0.622907 0.913044
C4    C     C_R   0.497185 0.500764 0.377128 0.912631
C5    C     C_3   0.708294 0.012127 0.202155 0.016482
C6    C     C_3   0.291613 0.011945 0.797836 0.015395
C7    C     C_3   0.208294 0.512127 0.202155 0.016482
C8    C     C_3   0.791613 0.511945 0.797836 0.015395
C9    C     C_3   0.766257 0.985142 0.208260 -0.405129
C10   C     C_3   0.233915 0.984665 0.792104 -0.403979
C11   C     C_3   0.266257 0.485142 0.208260 -0.405129
C12   C     C_3   0.733915 0.484665 0.792104 -0.403979
C13   C     C_3   0.735309 0.954148 0.224819 0.389437
C14   C     C_3   0.264738 0.954027 0.774828 0.389999
C15   C     C_3   0.235309 0.454148 0.224819 0.389437
C16   C     C_3   0.764738 0.454027 0.774828 0.389999
C17   C     C_1   0.836302 0.004675 0.333746 0.026266
C18   C     C_1   0.163621 0.004634 0.666840 0.026886
C19   C     C_1   0.336302 0.504675 0.333746 0.026266
C20   C     C_1   0.663621 0.504634 0.666840 0.026886
C21   C     C_1   0.662890 0.009814 0.156126 0.067228
C22   C     C_1   0.337041 0.009575 0.843764 0.068141
C23   C     C_1   0.162890 0.509814 0.156126 0.067228
C24   C     C_1   0.837041 0.509575 0.843764 0.068141
C25   C     C_R   0.946578 0.925545 0.638869 -0.316792
C26   C     C_R   0.052651 0.923370 0.360005 -0.318424
C27   C     C_R   0.446578 0.425545 0.638869 -0.316792
C28   C     C_R   0.552651 0.423370 0.360005 -0.318424
C29   C     C_R   0.923018 0.879765 0.643983 0.346400
C30   C     C_R   0.075528 0.876739 0.353863 0.346644
C31   C     C_R   0.423017 0.379765 0.643983 0.346400
C32   C     C_R   0.575528 0.376739 0.353863 0.346644
C33   C     C_R   0.919140 0.876727 0.703907 0.391671
C34   C     C_R   0.079272 0.874001 0.293840 0.391749
C35   C     C_R   0.419140 0.376727 0.703907 0.391672
C36   C     C_R   0.579272 0.374001 0.293840 0.391749
C37   C     C_R   0.942762 0.917381 0.760280 0.179165
C38   C     C_R   0.056449 0.916030 0.238625 0.177007
C39   C     C_R   0.442762 0.417381 0.760280 0.179165
C40   C     C_R   0.556449 0.416030 0.238625 0.177007
C41   C     C_R   0.973255 0.959762 0.759382 -0.067166
C42   C     C_R   0.026395 0.959135 0.240184 -0.065476
C43   C     C_R   0.473255 0.459762 0.759382 -0.067166
C44   C     C_R   0.526395 0.459135 0.240184 -0.065476
C45   C     C_R   0.918734 0.000254 0.418458 0.902436
C46   C     C_R   0.081258 0.000128 0.581630 0.903290
C47   C     C_R   0.418734 0.500254 0.418458 0.902436
C48   C     C_R   0.581258 0.500128 0.581630 0.903290
C49   C     C_R   0.975081 0.962544 0.696912 -0.027559
C50   C     C_R   0.024563 0.961651 0.302626 -0.026848
C51   C     C_R   0.475081 0.462544 0.696912 -0.027559
C52   C     C_R   0.524563 0.461651 0.302626 -0.026848
C53   C     C_R   0.001128 0.999659 0.815985 -0.082467
C54   C     C_R   0.998802 0.999644 0.183932 -0.081580
C55   C     C_R   0.501128 0.499659 0.815985 -0.082467
C56   C     C_R   0.498802 0.499644 0.183932 -0.081580
C57   C     C_R   0.026756 0.044529 0.809395 0.022627
C58   C     C_R   0.973201 0.044690 0.190598 0.023200
C59   C     C_R   0.526756 0.544529 0.809395 0.022627
C60   C     C_R   0.473200 0.544690 0.190598 0.023200
C61   C     C_R   0.029365 0.047835 0.747280 -0.031810
C62   C     C_R   0.970630 0.048007 0.252754 -0.031606
C63   C     C_R   0.529365 0.547835 0.747280 -0.031810
C64   C     C_R   0.470630 0.548007 0.252754 -0.031606
C65   C     C_R   0.003497 0.003546 0.691058 -0.115705
C66   C     C_R   0.996459 0.003361 0.308885 -0.116885
C67   C     C_R   0.503497 0.503546 0.691058 -0.115705
C68   C     C_R   0.496459 0.503361 0.308885 -0.116885
C69   C     C_R   0.048085 0.088935 0.863577 -0.228524
C70   C     C_R   0.951793 0.089198 0.136374 -0.228625
C71   C     C_R   0.548085 0.588935 0.863577 -0.228524
C72   C     C_R   0.451793 0.589198 0.136374 -0.228625
C73   C     C_R   0.073814 0.132222 0.861776 -0.186751
C74   C     C_R   0.926000 0.132616 0.138136 -0.186790
C75   C     C_R   0.573814 0.632222 0.861776 -0.186751
C76   C     C_R   0.426000 0.632616 0.138136 -0.186790
C77   C     C_R   0.076880 0.139069 0.802738 0.183005
C78   C     C_R   0.923032 0.139601 0.197269 0.183460
C79   C     C_R   0.576880 0.639069 0.802738 0.183005
C80   C     C_R   0.423032 0.639601 0.197269 0.183460
C81   C     C_R   0.055086 0.097295 0.743070 0.413341
C82   C     C_R   0.944941 0.097733 0.257003 0.413069
C83   C     C_R   0.555086 0.597295 0.743070 0.413341
C84   C     C_R   0.444941 0.597733 0.257003 0.413069
C85   C     C_R   0.500049 0.118967 0.000043 0.849727
C86   C     C_R   0.000049 0.618967 0.000043 0.849727
C87   C     C_3   0.732326 0.036549 0.279280 -0.368388
C88   C     C_3   0.267323 0.037058 0.720942 -0.366107
C89   C     C_3   0.232326 0.536549 0.279280 -0.368388
C90   C     C_3   0.767323 0.537058 0.720942 -0.366107
C91   C     C_R   0.581004 0.001341 0.078984 0.870353
C92   C     C_R   0.418980 0.001292 0.920995 0.869698
C93   C     C_R   0.081004 0.501341 0.078984 0.870353
C94   C     C_R   0.918980 0.501292 0.920995 0.869698
C95   C     C_R   0.500108 0.880432 0.000143 0.855955
C96   C     C_R   0.000108 0.380432 0.000143 0.855955
C97   C     C_R   0.999899 0.120266 0.999659 0.811578
C98   C     C_R   0.499899 0.620266 0.999659 0.811578
C99   C     C_R   0.000799 0.998350 0.880863 0.921612
C100  C     C_R   0.999187 0.998418 0.119109 0.921431
C101  C     C_R   0.500799 0.498350 0.880863 0.921612
C102  C     C_R   0.499187 0.498418 0.119109 0.921431
C103  C     C_R   0.000040 0.878779 0.000061 1.000072
C104  C     C_R   0.500040 0.378778 0.000061 1.000072
C105  C     C_R   0.566395 0.180191 0.001344 -0.143689
C106  C     C_R   0.433707 0.180699 0.998704 -0.143395
C107  C     C_R   0.066395 0.680191 0.001344 -0.143689
C108  C     C_R   0.933707 0.680699 0.998704 -0.143395
C109  C     C_R   0.597212 0.208692 0.995158 -0.201448
C110  C     C_R   0.402925 0.209417 0.004996 -0.201845
C111  C     C_R   0.097212 0.708692 0.995158 -0.201448
C112  C     C_R   0.902925 0.709417 0.004996 -0.201845
C113  C     C_R   0.096112 0.770828 0.988605 -0.139881
C114  C     C_R   0.904039 0.771529 0.011656 -0.139825
C115  C     C_R   0.596112 0.270828 0.988605 -0.139881
C116  C     C_R   0.404039 0.271529 0.011656 -0.139825
C117  C     C_R   0.064713 0.805138 0.987707 0.290948
C118  C     C_R   0.935443 0.805583 0.012557 0.291656
C119  C     C_R   0.564713 0.305138 0.987707 0.290948
C120  C     C_R   0.435442 0.305583 0.012557 0.291656
C121  C     C_R   0.032568 0.778083 0.996691 0.020344
C122  C     C_R   0.967593 0.778315 0.003569 0.020408
C123  C     C_R   0.532568 0.278083 0.996691 0.020344
C124  C     C_R   0.467593 0.278315 0.003569 0.020408
C125  C     C_3   0.758950 0.977867 0.301564 0.489356
C126  C     C_3   0.240819 0.978502 0.698328 0.488949
C127  C     C_3   0.258950 0.477868 0.301564 0.489356
C128  C     C_3   0.740819 0.478502 0.698328 0.488949
C129  C     C_R   0.533100 0.213844 0.999885 0.041808
C130  C     C_R   0.467027 0.214095 0.000248 0.041649
C131  C     C_R   0.033100 0.713844 0.999885 0.041807
C132  C     C_R   0.967027 0.714095 0.000248 0.041649
C133  C     C_R   0.000092 0.811109 0.000159 -0.180646
C134  C     C_R   0.500092 0.311109 0.000159 -0.180646
C135  C     C_R   0.500058 0.183720 0.000052 -0.139526
C136  C     C_R   0.000058 0.683720 0.000052 -0.139526
C137  C     C_R   0.439318 0.813963 0.875511 -0.197780
C138  C     C_R   0.558636 0.812639 0.126109 -0.198265
C139  C     C_R   0.939318 0.313963 0.875511 -0.197780
C140  C     C_R   0.058636 0.312640 0.126109 -0.198265
C141  C     C_R   0.411788 0.783087 0.813061 -0.286604
C142  C     C_R   0.584071 0.781221 0.189299 -0.288574
C143  C     C_R   0.911788 0.283087 0.813061 -0.286604
C144  C     C_R   0.084071 0.281221 0.189299 -0.288574
C145  C     C_R   0.914579 0.219388 0.809393 0.559333
C146  C     C_R   0.080258 0.217642 0.192319 0.559979
C147  C     C_R   0.414579 0.719388 0.809393 0.559333
C148  C     C_R   0.580258 0.717642 0.192319 0.559979
C149  C     C_R   0.945414 0.188708 0.870143 -0.202880
C150  C     C_R   0.051069 0.187508 0.130162 -0.199589
C151  C     C_R   0.445414 0.688708 0.870143 -0.202880
C152  C     C_R   0.551069 0.687508 0.130162 -0.199589
C153  C     C_R   0.971921 0.218819 0.935927 -0.002750
C154  C     C_R   0.026324 0.218257 0.064239 -0.003145
C155  C     C_R   0.471921 0.718819 0.935927 -0.002750
C156  C     C_R   0.526324 0.718257 0.064239 -0.003145
C157  C     C_R   0.470504 0.782789 0.937264 0.080923
C158  C     C_R   0.528228 0.782185 0.063354 0.080722
C159  C     C_R   0.970504 0.282790 0.937264 0.080923
C160  C     C_R   0.028228 0.282185 0.063354 0.080722
C161  C     C_R   0.999507 0.186653 0.999835 -0.143719
C162  C     C_R   0.499507 0.686653 0.999835 -0.143719
C163  C     C_1   0.873945 0.001689 0.372385 -0.192344
C164  C     C_1   0.126019 0.001425 0.627992 -0.191689
C165  C     C_1   0.373945 0.501689 0.372385 -0.192344
C166  C     C_1   0.626019 0.501425 0.627992 -0.191689
C167  C     C_R   0.499809 0.814169 0.000143 -0.154108
C168  C     C_R   0.999809 0.314169 0.000143 -0.154108
C169  C     C_1   0.625445 0.005928 0.119645 -0.167262
C170  C     C_1   0.374506 0.005755 0.880277 -0.167249
C171  C     C_1   0.125445 0.505928 0.119645 -0.167262
C172  C     C_1   0.874506 0.505755 0.880277 -0.167249
C173  C     C_3   0.764262 0.068080 0.264674 -0.296874
C174  C     C_3   0.235453 0.068221 0.736153 -0.297604
C175  C     C_3   0.264262 0.568080 0.264674 -0.296874
C176  C     C_3   0.735453 0.568221 0.736153 -0.297604
C177  C     C_3   0.790560 0.008549 0.286676 0.003538
C178  C     C_3   0.209325 0.008755 0.713920 0.003730
C179  C     C_3   0.290560 0.508549 0.286676 0.003538
C180  C     C_3   0.709326 0.508754 0.713920 0.003730
C181  C     C_3   0.739367 0.044087 0.187126 0.553584
C182  C     C_3   0.260624 0.043579 0.813488 0.553175
C183  C     C_3   0.239367 0.544087 0.187126 0.553584
C184  C     C_3   0.760624 0.543579 0.813488 0.553175
H1    H     H_    0.044241 0.093447 0.908530 0.173217
H2    H     H_    0.955574 0.093604 0.091345 0.173006
H3    H     H_    0.544241 0.593447 0.908530 0.173217
H4    H     H_    0.455574 0.593604 0.091345 0.173006
H5    H     H_    0.089205 0.164006 0.906116 0.201399
H6    H     H_    0.910500 0.164430 0.093723 0.201450
H7    H     H_    0.589205 0.664006 0.906116 0.201399
H8    H     H_    0.410500 0.664430 0.093723 0.201450
H9    H     H_    0.378695 0.183208 0.006468 0.166433
H10   H     H_    0.621429 0.182305 0.993661 0.166968
H11   H     H_    0.878695 0.683208 0.006468 0.166433
H12   H     H_    0.121429 0.682305 0.993661 0.166968
H13   H     H_    0.569193 0.131295 0.007188 0.161763
H14   H     H_    0.430863 0.131838 0.992683 0.161705
H15   H     H_    0.069193 0.631295 0.007188 0.161763
H16   H     H_    0.930863 0.631838 0.992683 0.161705
H17   H     H_    0.119544 0.792534 0.980617 0.174458
H18   H     H_    0.880608 0.793409 0.019640 0.174521
H19   H     H_    0.619544 0.292534 0.980617 0.174458
H20   H     H_    0.380608 0.293409 0.019640 0.174521
H21   H     H_    0.606469 0.807988 0.234653 0.138154
H22   H     H_    0.388505 0.810305 0.768867 0.139057
H23   H     H_    0.106469 0.307988 0.234653 0.138154
H24   H     H_    0.888505 0.310305 0.768867 0.139057
H25   H     H_    0.717809 0.060656 0.305075 0.164157
H26   H     H_    0.281736 0.061301 0.695129 0.164203
H27   H     H_    0.217809 0.560656 0.305075 0.164157
H28   H     H_    0.781736 0.561301 0.695129 0.164203
H29   H     H_    0.434505 0.862556 0.874852 0.177918
H30   H     H_    0.564210 0.861034 0.127440 0.178635
H31   H     H_    0.934505 0.362556 0.874852 0.177918
H32   H     H_    0.064211 0.361034 0.127440 0.178635
H33   H     H_    0.948310 0.140644 0.863322 0.183424
H34   H     H_    0.047533 0.139414 0.136000 0.180349
H35   H     H_    0.448310 0.640644 0.863322 0.183424
H36   H     H_    0.547533 0.639414 0.136000 0.180349
H37   H     H_    0.781860 0.967123 0.180980 0.158462
H38   H     H_    0.218677 0.966537 0.819859 0.157705
H39   H     H_    0.281860 0.467123 0.180980 0.158462
H40   H     H_    0.718677 0.466537 0.819859 0.157705
H41   H     H_    0.779358 0.112593 0.286896 0.155448
H42   H     H_    0.220145 0.112799 0.714266 0.155450
H43   H     H_    0.279358 0.612593 0.286896 0.155448
H44   H     H_    0.720145 0.612799 0.714266 0.155450
H45   H     H_    0.940626 0.931098 0.585989 0.214670
H46   H     H_    0.058544 0.928079 0.412836 0.217196
H47   H     H_    0.440626 0.431098 0.585989 0.214670
H48   H     H_    0.558544 0.428079 0.412836 0.217196
O1    O     O_R   0.000000 0.051720 0.591600 -0.548604
O2    O     O_R   0.000000 0.051720 0.408400 -0.548177
O3    O     O_R   0.500000 0.551720 0.591600 -0.548604
O4    O     O_R   0.500000 0.551720 0.408400 -0.548177
O5    O     O_R   0.034790 0.999980 0.943120 -0.590415
O6    O     O_R   0.965210 0.999980 0.056880 -0.590234
O7    O     O_R   0.534790 0.499980 0.943120 -0.590415
O8    O     O_R   0.465210 0.499980 0.056880 -0.590234
O9    O     O_R   0.965230 0.000010 0.873570 -0.595851
O10   O     O_R   0.034770 0.000010 0.126430 -0.595201
O11   O     O_R   0.465230 0.500010 0.873570 -0.595851
O12   O     O_R   0.534770 0.500010 0.126430 -0.595201
O13   O     O_R   0.034780 0.908380 0.034660 -0.546588
O14   O     O_R   0.965220 0.908380 0.965340 -0.547290
O15   O     O_R   0.534780 0.408380 0.034660 -0.546588
O16   O     O_R   0.465220 0.408380 0.965340 -0.547290
O17   O     O_R   0.000010 0.948300 0.591530 -0.654625
O18   O     O_R   0.999990 0.948300 0.408470 -0.652926
O19   O     O_R   0.500010 0.448300 0.591530 -0.654625
O20   O     O_R   0.499990 0.448300 0.408470 -0.652926
O21   O     O_R   0.938390 0.051710 0.438380 -0.633993
O22   O     O_R   0.061610 0.051710 0.561620 -0.634004
O23   O     O_R   0.438390 0.551710 0.438380 -0.633993
O24   O     O_R   0.561610 0.551710 0.561620 -0.634004
O25   O     O_R   0.938400 0.948290 0.438320 -0.616727
O26   O     O_R   0.061600 0.948290 0.561680 -0.614952
O27   O     O_R   0.438400 0.448290 0.438320 -0.616727
O28   O     O_R   0.561600 0.448290 0.561680 -0.614952
O29   O     O_R   0.500000 0.091730 0.051650 -0.624880
O30   O     O_R   0.500000 0.091730 0.948350 -0.625185
O31   O     O_R   0.000000 0.591730 0.051650 -0.624880
O32   O     O_R   0.000000 0.591730 0.948350 -0.625185
O33   O     O_R   0.561620 0.000120 0.113280 -0.623862
O34   O     O_R   0.438380 0.000120 0.886720 -0.623621
O35   O     O_R   0.061620 0.500120 0.113280 -0.623862
O36   O     O_R   0.938380 0.500120 0.886720 -0.623621
O37   O     O_R   0.561620 0.000020 0.009840 -0.611094
O38   O     O_R   0.438380 0.000020 0.990160 -0.610503
O39   O     O_R   0.061620 0.500020 0.009840 -0.611094
O40   O     O_R   0.938380 0.500020 0.990160 -0.610503
O41   O     O_R   0.500000 0.908540 0.051700 -0.617804
O42   O     O_R   0.500000 0.908540 0.948300 -0.616791
O43   O     O_R   0.000000 0.408540 0.051700 -0.617804
O44   O     O_R   0.000000 0.408540 0.948300 -0.616791
O45   O     O_R   0.034800 0.091580 0.034810 -0.634636
O46   O     O_R   0.965200 0.091580 0.965190 -0.636641
O47   O     O_R   0.534800 0.591580 0.034810 -0.634636
O48   O     O_R   0.465200 0.591580 0.965190 -0.636641
Zn1   Zn    Zn3+2 0.000000 0.069060 0.500000 0.971840
Zn2   Zn    Zn3+2 0.500000 0.569060 0.500000 0.971840
Zn3   Zn    Zn3+2 0.000000 0.930950 0.500000 0.929920
Zn4   Zn    Zn3+2 0.500000 0.430950 0.500000 0.929920
Zn5   Zn    Zn3+2 0.500000 0.000150 0.069020 0.972318
Zn6   Zn    Zn3+2 0.500000 0.000150 0.930980 0.972866
Zn7   Zn    Zn3+2 0.000000 0.500150 0.069020 0.972318
Zn8   Zn    Zn3+2 0.000000 0.500150 0.930980 0.972866
Zn9   Zn    Zn3+2 0.046450 0.999980 0.046400 1.075504
Zn10  Zn    Zn3+2 0.953550 0.999980 0.953600 1.075938
Zn11  Zn    Zn3+2 0.546450 0.499980 0.046400 1.075504
Zn12  Zn    Zn3+2 0.453550 0.499980 0.953600 1.075938
O49   O     O_3   0.770455 0.943961 0.363579 -0.644605
C185  C     C_3   0.733994 0.920552 0.360163 0.077709
H49   H     H_    0.741625 0.874177 0.383183 0.167026
H50   H     H_    0.706433 0.914782 0.305036 0.149116
C186  C     C_3   0.721251 0.961652 0.402177 -0.340264
H51   H     H_    0.749668 0.978026 0.451904 0.247000
H52   H     H_    0.703829 0.002058 0.369789 0.202117
C187  C     C_3   0.692672 0.929154 0.421538 -0.966292
H53   H     H_    0.665646 0.907957 0.373528 0.262415
H54   H     H_    0.680264 0.962340 0.444324 0.268851
H55   H     H_    0.710599 0.893332 0.462044 0.269968
O50   O     O_3   0.228944 0.945703 0.635578 -0.644715
C188  C     C_3   0.265137 0.921991 0.638279 0.069702
H56   H     H_    0.256925 0.876005 0.615036 0.169408
H57   H     H_    0.292953 0.915771 0.693118 0.151525
C189  C     C_3   0.277543 0.962853 0.595712 -0.340122
H58   H     H_    0.248994 0.978360 0.545514 0.247020
H59   H     H_    0.294300 0.003812 0.627324 0.203502
C190  C     C_3   0.306721 0.930393 0.577470 -0.965871
H60   H     H_    0.333992 0.910148 0.626093 0.262678
H61   H     H_    0.318751 0.963428 0.553976 0.269185
H62   H     H_    0.289451 0.893737 0.537956 0.269494
O51   O     O_3   0.270455 0.443961 0.363579 -0.644605
C191  C     C_3   0.233994 0.420552 0.360163 0.077709
H63   H     H_    0.241625 0.374177 0.383183 0.167026
H64   H     H_    0.206433 0.414782 0.305036 0.149116
C192  C     C_3   0.221251 0.461652 0.402177 -0.340264
H65   H     H_    0.249668 0.478026 0.451904 0.247000
H66   H     H_    0.203829 0.502058 0.369789 0.202117
C193  C     C_3   0.192672 0.429154 0.421538 -0.966292
H67   H     H_    0.165646 0.407957 0.373528 0.262415
H68   H     H_    0.180264 0.462340 0.444324 0.268851
H69   H     H_    0.210599 0.393332 0.462044 0.269968
O52   O     O_3   0.728944 0.445703 0.635578 -0.644715
C194  C     C_3   0.765137 0.421991 0.638279 0.069702
H70   H     H_    0.756925 0.376005 0.615036 0.169408
H71   H     H_    0.792953 0.415771 0.693118 0.151525
C195  C     C_3   0.777544 0.462853 0.595712 -0.340122
H72   H     H_    0.748994 0.478360 0.545514 0.247020
H73   H     H_    0.794300 0.503812 0.627324 0.203502
C196  C     C_3   0.806721 0.430393 0.577470 -0.965871
H74   H     H_    0.833992 0.410148 0.626093 0.262678
H75   H     H_    0.818751 0.463428 0.553976 0.269185
H76   H     H_    0.789451 0.393737 0.537956 0.269494
O53   O     O_3   0.892954 0.836449 0.713035 -0.619288
C197  C     C_3   0.864500 0.799116 0.657532 0.196381
H77   H     H_    0.851633 0.766831 0.680311 0.144909
H78   H     H_    0.879867 0.767614 0.639535 0.121248
C198  C     C_3   0.826967 0.833950 0.597918 -0.295677
H79   H     H_    0.807071 0.851714 0.617954 0.206700
H80   H     H_    0.837064 0.873853 0.579720 0.258736
C199  C     C_3   0.801280 0.791973 0.534967 -0.953086
H81   H     H_    0.823493 0.760855 0.528373 0.261407
H82   H     H_    0.782294 0.817251 0.485522 0.273668
H83   H     H_    0.780574 0.763969 0.544450 0.262019
O54   O     O_3   0.103754 0.831372 0.282947 -0.619141
C200  C     C_3   0.134542 0.796841 0.339656 0.196480
H84   H     H_    0.147906 0.764856 0.317246 0.145275
H85   H     H_    0.121030 0.764723 0.360358 0.123980
C201  C     C_3   0.171489 0.834296 0.396864 -0.307223
H86   H     H_    0.189865 0.853381 0.374578 0.210143
H87   H     H_    0.160590 0.873335 0.415085 0.254536
C202  C     C_3   0.199586 0.793859 0.460565 -0.949771
H88   H     H_    0.178660 0.762039 0.469543 0.263944
H89   H     H_    0.218893 0.819792 0.509308 0.278196
H90   H     H_    0.220201 0.766576 0.450102 0.258139
O55   O     O_3   0.392954 0.336449 0.713035 -0.619287
C203  C     C_3   0.364500 0.299116 0.657532 0.196380
H91   H     H_    0.351633 0.266831 0.680311 0.144909
H92   H     H_    0.379867 0.267614 0.639535 0.121249
C204  C     C_3   0.326967 0.333950 0.597918 -0.295676
H93   H     H_    0.307071 0.351714 0.617954 0.206700
H94   H     H_    0.337064 0.373854 0.579720 0.258736
C205  C     C_3   0.301280 0.291973 0.534967 -0.953086
H95   H     H_    0.323493 0.260855 0.528373 0.261407
H96   H     H_    0.282294 0.317251 0.485522 0.273668
H97   H     H_    0.280574 0.263969 0.544450 0.262019
O56   O     O_3   0.603754 0.331372 0.282947 -0.619141
C206  C     C_3   0.634542 0.296841 0.339656 0.196480
H98   H     H_    0.647905 0.264856 0.317246 0.145275
H99   H     H_    0.621030 0.264723 0.360358 0.123980
C207  C     C_3   0.671489 0.334296 0.396864 -0.307223
H100  H     H_    0.689865 0.353381 0.374578 0.210143
H101  H     H_    0.660590 0.373335 0.415085 0.254536
C208  C     C_3   0.699586 0.293859 0.460565 -0.949771
H102  H     H_    0.678660 0.262039 0.469543 0.263944
H103  H     H_    0.718893 0.319792 0.509308 0.278196
H104  H     H_    0.720201 0.266576 0.450102 0.258139
Br1   Br    Br    0.921680 0.903959 0.824153 -0.389634
Br2   Br    Br    0.078105 0.903366 0.175568 -0.392561
Br3   Br    Br    0.421680 0.403959 0.824153 -0.389634
Br4   Br    Br    0.578105 0.403366 0.175568 -0.392561
O57   O     O_3   0.052894 0.106823 0.677869 -0.631241
C209  C     C_3   0.080930 0.146318 0.674133 0.159728
H105  H     H_    0.087002 0.131378 0.632095 0.176723
H106  H     H_    0.112730 0.145743 0.722654 0.134222
C210  C     C_3   0.059552 0.208135 0.645056 -0.300674
H107  H     H_    0.031667 0.201908 0.590473 0.197736
H108  H     H_    0.047253 0.226321 0.677515 0.260858
C211  C     C_3   0.089040 0.254105 0.641556 -0.923311
H109  H     H_    0.118525 0.258933 0.694236 0.293741
H110  H     H_    0.073512 0.299474 0.625170 0.269603
H111  H     H_    0.097079 0.239001 0.601951 0.245686
O58   O     O_3   0.947372 0.107600 0.322339 -0.630829
C212  C     C_3   0.919058 0.146788 0.325972 0.159513
H112  H     H_    0.913005 0.131588 0.367937 0.176699
H113  H     H_    0.887297 0.146304 0.277369 0.133849
C213  C     C_3   0.940164 0.208557 0.355259 -0.300153
H114  H     H_    0.967983 0.202189 0.409928 0.197372
H115  H     H_    0.952539 0.226886 0.323012 0.260838
C214  C     C_3   0.910430 0.254440 0.358543 -0.923228
H116  H     H_    0.881041 0.259480 0.305738 0.293805
H117  H     H_    0.925827 0.299756 0.375190 0.269403
H118  H     H_    0.902245 0.239119 0.397882 0.245986
O59   O     O_3   0.552894 0.606823 0.677869 -0.631241
C215  C     C_3   0.580930 0.646318 0.674133 0.159728
H119  H     H_    0.587001 0.631378 0.632095 0.176723
H120  H     H_    0.612730 0.645743 0.722654 0.134222
C216  C     C_3   0.559552 0.708135 0.645056 -0.300674
H121  H     H_    0.531667 0.701908 0.590473 0.197736
H122  H     H_    0.547253 0.726321 0.677515 0.260858
C217  C     C_3   0.589040 0.754105 0.641556 -0.923311
H123  H     H_    0.618525 0.758933 0.694236 0.293741
H124  H     H_    0.573512 0.799474 0.625170 0.269603
H125  H     H_    0.597079 0.739001 0.601951 0.245686
O60   O     O_3   0.447373 0.607600 0.322339 -0.630829
C218  C     C_3   0.419058 0.646788 0.325972 0.159513
H126  H     H_    0.413005 0.631588 0.367937 0.176699
H127  H     H_    0.387297 0.646304 0.277369 0.133849
C219  C     C_3   0.440164 0.708557 0.355259 -0.300153
H128  H     H_    0.467983 0.702189 0.409928 0.197372
H129  H     H_    0.452539 0.726886 0.323012 0.260838
C220  C     C_3   0.410430 0.754440 0.358543 -0.923228
H130  H     H_    0.381042 0.759480 0.305738 0.293805
H131  H     H_    0.425827 0.799756 0.375190 0.269403
H132  H     H_    0.402245 0.739119 0.397882 0.245986
Br5   Br    Br    0.068230 0.883364 0.954795 -0.516992
Br6   Br    Br    0.931875 0.883793 0.045446 -0.516513
Br7   Br    Br    0.568230 0.383364 0.954795 -0.516992
Br8   Br    Br    0.431875 0.383793 0.045446 -0.516513
O61   O     O_3   0.888475 0.183025 0.750268 -0.654820
C221  C     C_3   0.858496 0.214502 0.688034 0.101662
H133  H     H_    0.850046 0.183565 0.642478 0.175056
H134  H     H_    0.871639 0.255496 0.676895 0.119569
C222  C     C_3   0.818314 0.227604 0.688400 -0.351724
H135  H     H_    0.806618 0.184414 0.698357 0.241205
H136  H     H_    0.824669 0.259910 0.731783 0.213161
C223  C     C_3   0.784008 0.253849 0.617312 -1.014842
H137  H     H_    0.794217 0.298598 0.608144 0.266484
H138  H     H_    0.754203 0.259472 0.616819 0.270062
H139  H     H_    0.777891 0.222730 0.573163 0.277386
O62   O     O_3   0.103967 0.180766 0.252139 -0.655819
C224  C     C_3   0.131020 0.211942 0.316187 0.102931
H140  H     H_    0.136556 0.180832 0.360157 0.175834
H141  H     H_    0.116300 0.253162 0.323694 0.120287
C225  C     C_3   0.173521 0.224470 0.324012 -0.354387
H142  H     H_    0.186245 0.181211 0.316175 0.242017
H143  H     H_    0.170137 0.257357 0.282914 0.211383
C226  C     C_3   0.205088 0.249308 0.397434 -1.008055
H144  H     H_    0.194854 0.294887 0.404818 0.272575
H145  H     H_    0.236234 0.252874 0.402794 0.272390
H146  H     H_    0.208085 0.217828 0.439444 0.273296
O63   O     O_3   0.388475 0.683025 0.750268 -0.654820
C227  C     C_3   0.358496 0.714502 0.688034 0.101662
H147  H     H_    0.350046 0.683565 0.642478 0.175056
H148  H     H_    0.371639 0.755496 0.676895 0.119569
C228  C     C_3   0.318314 0.727604 0.688400 -0.351724
H149  H     H_    0.306618 0.684414 0.698357 0.241205
H150  H     H_    0.324669 0.759910 0.731783 0.213161
C229  C     C_3   0.284008 0.753849 0.617312 -1.014843
H151  H     H_    0.294217 0.798598 0.608144 0.266485
H152  H     H_    0.254203 0.759472 0.616819 0.270062
H153  H     H_    0.277891 0.722730 0.573163 0.277386
O64   O     O_3   0.603967 0.680766 0.252139 -0.655819
C230  C     C_3   0.631019 0.711942 0.316187 0.102931
H154  H     H_    0.636556 0.680832 0.360157 0.175834
H155  H     H_    0.616300 0.753162 0.323694 0.120287
C231  C     C_3   0.673521 0.724470 0.324012 -0.354387
H156  H     H_    0.686245 0.681211 0.316175 0.242017
H157  H     H_    0.670137 0.757357 0.282914 0.211383
C232  C     C_3   0.705089 0.749308 0.397434 -1.008055
H158  H     H_    0.694854 0.794887 0.404818 0.272575
H159  H     H_    0.736234 0.752874 0.402794 0.272390
H160  H     H_    0.708084 0.717828 0.439444 0.273296
O65   O     O_3   0.716878 0.895955 0.201585 -0.651751
C233  C     C_3   0.747866 0.849585 0.230915 0.087672
H161  H     H_    0.734395 0.810903 0.245424 0.155964
H162  H     H_    0.777204 0.863015 0.281177 0.158786
C234  C     C_3   0.757494 0.826825 0.175665 -0.318624
H163  H     H_    0.728735 0.809136 0.128026 0.236654
H164  H     H_    0.769152 0.865173 0.156779 0.217635
C235  C     C_3   0.791581 0.777139 0.207845 -0.945734
H165  H     H_    0.820005 0.793174 0.257441 0.267096
H166  H     H_    0.800469 0.763856 0.169097 0.270745
H167  H     H_    0.779144 0.735734 0.220595 0.262252
O66   O     O_3   0.283415 0.895760 0.797480 -0.651373
C236  C     C_3   0.252685 0.849367 0.767129 0.083449
H168  H     H_    0.266775 0.810605 0.753868 0.159001
H169  H     H_    0.223763 0.862777 0.716115 0.160152
C237  C     C_3   0.241724 0.826952 0.820840 -0.322952
H170  H     H_    0.270319 0.810358 0.869930 0.239265
H171  H     H_    0.228493 0.865015 0.836988 0.217847
C238  C     C_3   0.209009 0.776012 0.788893 -0.946326
H172  H     H_    0.180753 0.790992 0.738181 0.267827
H173  H     H_    0.199357 0.762897 0.826797 0.270611
H174  H     H_    0.222754 0.734997 0.778269 0.263647
O67   O     O_3   0.216878 0.395955 0.201585 -0.651751
C239  C     C_3   0.247866 0.349585 0.230915 0.087672
H175  H     H_    0.234395 0.310903 0.245424 0.155964
H176  H     H_    0.277204 0.363015 0.281177 0.158786
C240  C     C_3   0.257494 0.326825 0.175665 -0.318623
H177  H     H_    0.228735 0.309136 0.128026 0.236654
H178  H     H_    0.269152 0.365173 0.156779 0.217635
C241  C     C_3   0.291581 0.277139 0.207845 -0.945734
H179  H     H_    0.320005 0.293174 0.257441 0.267096
H180  H     H_    0.300469 0.263856 0.169097 0.270745
H181  H     H_    0.279144 0.235734 0.220595 0.262252
O68   O     O_3   0.783415 0.395760 0.797480 -0.651373
C242  C     C_3   0.752685 0.349367 0.767129 0.083449
H182  H     H_    0.766775 0.310605 0.753868 0.159001
H183  H     H_    0.723763 0.362777 0.716115 0.160152
C243  C     C_3   0.741724 0.326952 0.820840 -0.322952
H184  H     H_    0.770319 0.310358 0.869930 0.239265
H185  H     H_    0.728493 0.365015 0.836988 0.217847
C244  C     C_3   0.709009 0.276012 0.788893 -0.946326
H186  H     H_    0.680752 0.290992 0.738181 0.267827
H187  H     H_    0.699357 0.262898 0.826797 0.270611
H188  H     H_    0.722754 0.234997 0.778269 0.263647
O69   O     O_3   0.722711 0.077955 0.123189 -0.636339
C245  C     C_3   0.753927 0.112716 0.120288 0.088176
H189  H     H_    0.744746 0.114096 0.063408 0.165817
H190  H     H_    0.785423 0.090635 0.151093 0.138555
C246  C     C_3   0.755223 0.179266 0.145952 -0.394315
H191  H     H_    0.726382 0.204485 0.105481 0.226099
H192  H     H_    0.756455 0.178097 0.197046 0.228139
C247  C     C_3   0.796086 0.212908 0.163824 -0.855185
H193  H     H_    0.823679 0.190484 0.210111 0.263439
H194  H     H_    0.795848 0.261696 0.178970 0.266496
H195  H     H_    0.798127 0.211758 0.115485 0.297365
O70   O     O_3   0.277340 0.076962 0.877707 -0.635973
C248  C     C_3   0.246181 0.111924 0.880842 0.089042
H196  H     H_    0.255425 0.113116 0.937759 0.165711
H197  H     H_    0.214687 0.090085 0.850102 0.138744
C249  C     C_3   0.244812 0.178568 0.855339 -0.395669
H198  H     H_    0.273605 0.203593 0.895902 0.225843
H199  H     H_    0.243624 0.177608 0.804280 0.228380
C250  C     C_3   0.203882 0.212346 0.837452 -0.854001
H200  H     H_    0.176344 0.190019 0.791177 0.264142
H201  H     H_    0.204003 0.261159 0.822254 0.266500
H202  H     H_    0.201853 0.211146 0.885808 0.297243
O71   O     O_3   0.222711 0.577955 0.123189 -0.636339
C251  C     C_3   0.253927 0.612716 0.120288 0.088176
H203  H     H_    0.244746 0.614096 0.063408 0.165817
H204  H     H_    0.285423 0.590635 0.151093 0.138555
C252  C     C_3   0.255223 0.679266 0.145952 -0.394315
H205  H     H_    0.226382 0.704485 0.105481 0.226099
H206  H     H_    0.256455 0.678097 0.197046 0.228139
C253  C     C_3   0.296086 0.712908 0.163824 -0.855185
H207  H     H_    0.323679 0.690484 0.210111 0.263439
H208  H     H_    0.295848 0.761696 0.178970 0.266496
H209  H     H_    0.298127 0.711758 0.115485 0.297365
O72   O     O_3   0.777340 0.576962 0.877707 -0.635973
C254  C     C_3   0.746181 0.611924 0.880842 0.089042
H210  H     H_    0.755425 0.613116 0.937759 0.165711
H211  H     H_    0.714688 0.590085 0.850102 0.138744
C255  C     C_3   0.744812 0.678569 0.855339 -0.395669
H212  H     H_    0.773605 0.703593 0.895902 0.225843
H213  H     H_    0.743624 0.677608 0.804280 0.228380
C256  C     C_3   0.703882 0.712346 0.837452 -0.854001
H214  H     H_    0.676344 0.690019 0.791177 0.264142
H215  H     H_    0.704003 0.761159 0.822254 0.266500
H216  H     H_    0.701853 0.711146 0.885808 0.297243
Br9   Br    Br    0.107030 0.213716 0.813715 -0.630007
Br10  Br    Br    0.892980 0.214546 0.186497 -0.628688
Br11  Br    Br    0.607030 0.713716 0.813715 -0.630007
Br12  Br    Br    0.392980 0.714546 0.186497 -0.628688
O73   O     O_3   0.901204 0.842365 0.585498 -0.645692
C257  C     C_3   0.925592 0.789890 0.594310 0.059689
H217  H     H_    0.903140 0.753454 0.561326 0.161935
H218  H     H_    0.943481 0.772964 0.650660 0.127238
C258  C     C_3   0.955736 0.799669 0.568383 -0.325039
H219  H     H_    0.938324 0.818889 0.513486 0.238194
H220  H     H_    0.980835 0.832214 0.603775 0.237153
C259  C     C_3   0.976197 0.739407 0.568282 -0.969770
H221  H     H_    0.994490 0.720181 0.623035 0.270280
H222  H     H_    0.997902 0.746839 0.548924 0.264114
H223  H     H_    0.951871 0.705900 0.532589 0.264183
O74   O     O_3   0.096662 0.837879 0.411336 -0.646234
C260  C     C_3   0.072072 0.785229 0.400004 0.061352
H224  H     H_    0.094281 0.748465 0.433221 0.161022
H225  H     H_    0.055265 0.769305 0.343282 0.132013
C261  C     C_3   0.040525 0.794100 0.423320 -0.327666
H226  H     H_    0.056999 0.812178 0.478730 0.235535
H227  H     H_    0.015852 0.827383 0.387809 0.234986
C262  C     C_3   0.019365 0.733720 0.420583 -0.965676
H228  H     H_    0.001612 0.715861 0.365217 0.270524
H229  H     H_    0.997076 0.740519 0.438861 0.264385
H230  H     H_    0.043260 0.699349 0.455831 0.264083
O75   O     O_3   0.401204 0.342365 0.585498 -0.645692
C263  C     C_3   0.425592 0.289890 0.594310 0.059689
H231  H     H_    0.403140 0.253454 0.561326 0.161935
H232  H     H_    0.443480 0.272964 0.650660 0.127238
C264  C     C_3   0.455736 0.299669 0.568383 -0.325039
H233  H     H_    0.438324 0.318889 0.513486 0.238194
H234  H     H_    0.480835 0.332214 0.603775 0.237153
C265  C     C_3   0.476197 0.239407 0.568282 -0.969770
H235  H     H_    0.494490 0.220181 0.623035 0.270280
H236  H     H_    0.497902 0.246838 0.548924 0.264114
H237  H     H_    0.451871 0.205900 0.532589 0.264183
O76   O     O_3   0.596662 0.337879 0.411336 -0.646234
C266  C     C_3   0.572072 0.285229 0.400004 0.061352
H238  H     H_    0.594281 0.248465 0.433221 0.161022
H239  H     H_    0.555265 0.269305 0.343282 0.132013
C267  C     C_3   0.540525 0.294100 0.423320 -0.327666
H240  H     H_    0.556999 0.312178 0.478730 0.235535
H241  H     H_    0.515852 0.327382 0.387809 0.234986
C268  C     C_3   0.519365 0.233720 0.420583 -0.965676
H242  H     H_    0.501612 0.215861 0.365217 0.270524
H243  H     H_    0.497076 0.240519 0.438861 0.264385
H244  H     H_    0.543260 0.199349 0.455831 0.264083

loop_
_geom_bond_atom_site_label_1
_geom_bond_atom_site_label_2
_ccdc_geom_bond_type
C193  H68   S    
C228  H149  S    
C55   C59   A    
C216  H122  S    
O41   Zn5   S    
C220  H130  S    
C154  C161  A    
C238  H172  S    
C249  C250  S    
O43   Zn7   S    
O53   C197  S    
C9    C177  S    
C222  H135  S    
C53   C99   S    
C232  H160  S    
C255  C256  S    
C181  O69   S    
C214  H117  S    
C98   O47   A    
C26   C50   A    
C47   C165  S    
C229  H152  S    
C196  H76   S    
C193  H69   S    
C155  C157  A    
C60   C72   A    
C257  H218  S    
C29   C33   A    
C84   O60   S    
C176  C184  S    
C9    C13   S    
C141  H22   S    
C235  H165  S    
C208  H104  S    
C50   C66   A    
C217  H125  S    
C94   C172  S    
C74   H6    S    
C11   C15   S    
C138  H30   S    
C152  C156  A    
C1    O1    A    
O74   C260  S    
C256  H215  S    
C115  H19   S    
C70   C74   A    
C96   C168  S    
O26   Zn3   S    
C128  C180  S    
C113  H17   S    
C5    C13   S    
C189  C190  S    
C111  H12   S    
C92   O34   A    
C257  C258  S    
C105  H13   S    
C139  C159  A    
C8    C16   S    
C15   C127  S    
O36   Zn8   S    
C217  H124  S    
C41   C49   A    
O28   Zn4   S    
O21   Zn1   S    
C158  C167  A    
O29   Zn5   S    
C240  H178  S    
C155  C162  A    
C25   C29   A    
O8    Zn12  S    
C34   O54   S    
O31   Zn7   S    
C195  H72   S    
O16   Zn12  S    
C123  C134  A    
C27   C31   A    
C103  O14   A    
C28   C32   A    
C218  C219  S    
C108  H16   S    
C4    O20   A    
C211  H110  S    
C11   H39   S    
C244  H187  S    
C91   C169  S    
C265  H235  S    
C58   C70   A    
O10   Zn9   S    
C267  C268  S    
O13   Zn9   S    
C241  H179  S    
C196  H74   S    
C26   H46   S    
C153  C161  A    
C191  H63   S    
C90   H28   S    
C258  C259  S    
C209  H106  S    
C251  C252  S    
C112  H11   S    
C266  H239  S    
C78   C82   A    
C202  H88   S    
C235  H166  S    
O2    Zn1   S    
C201  H86   S    
C124  C130  A    
C111  C113  A    
C149  H33   S    
C267  H241  S    
C22   C170  T    
C146  O62   S    
C230  H155  S    
C215  H120  S    
C248  H197  S    
C210  H107  S    
C10   C182  S    
C220  H132  S    
C151  H35   S    
C209  C210  S    
C11   C179  S    
C69   H1    S    
C100  O10   A    
C187  H53   S    
C175  C183  S    
C89   C127  S    
C222  C223  S    
C17   C177  S    
C106  C130  A    
C255  H212  S    
C48   O28   A    
C102  O8    A    
C20   C166  T    
C71   H3    S    
C261  H226  S    
C265  H237  S    
C39   C43   A    
C223  H139  S    
C31   O75   S    
C119  C123  A    
C59   C63   A    
C14   C126  S    
C7    C183  S    
C60   C64   A    
C259  H221  S    
C212  H113  S    
C45   C163  S    
O5    Zn9   S    
C251  H203  S    
C185  H49   S    
C247  H195  S    
C156  C158  A    
O66   C236  S    
C27   C51   A    
C126  C178  S    
C83   O59   S    
C160  C168  A    
C224  H140  S    
C141  C147  A    
C61   C65   A    
C264  C265  S    
C5    C21   S    
O70   C248  S    
O64   C230  S    
O55   C203  S    
C73   C77   A    
C173  H41   S    
C19   C165  T    
C91   O33   A    
C75   C79   A    
C46   O26   A    
C127  O51   S    
C192  H66   S    
C153  C159  A    
C200  H84   S    
C148  O64   S    
C224  C225  S    
O18   Zn3   S    
C147  C151  A    
C218  H126  S    
C174  C182  S    
C112  C114  A    
O56   C206  S    
O39   Zn8   S    
C237  H170  S    
C228  H150  S    
C81   O57   S    
C103  O13   A    
C95   O42   A    
C104  C134  S    
C6    C182  S    
C191  C192  S    
C64   C68   A    
C249  H199  S    
C253  H207  S    
C1    O17   A    
O45   Zn9   S    
C201  C202  S    
C88   C174  S    
C239  H175  S    
C182  O70   S    
C118  C122  A    
C97   O45   A    
C207  H100  S    
O54   C200  S    
C149  C153  A    
C129  C135  A    
C139  C143  A    
C64   C84   A    
O71   C251  S    
C227  H147  S    
C188  H57   S    
C210  C211  S    
C1    C65   S    
C100  O6    A    
O42   Zn6   S    
C28   H48   S    
C187  H55   S    
O33   Zn5   S    
C144  H23   S    
C3    O3    A    
C44   C52   A    
C242  C243  S    
O35   Zn7   S    
C146  C150  A    
C246  H191  S    
C250  H202  S    
C186  H52   S    
C260  H224  S    
C261  C262  S    
C90   C176  S    
C203  H91   S    
C189  H59   S    
C207  H101  S    
C198  H80   S    
C176  H44   S    
C30   C34   A    
O32   Zn8   S    
C259  H223  S    
C12   C16   S    
O37   Zn6   S    
C252  C253  S    
O4    Zn2   S    
C253  H209  S    
C131  C136  A    
C10   C14   S    
C47   O27   A    
C194  H71   S    
C10   H38   S    
C231  H156  S    
C247  H193  S    
C33   O53   S    
C116  C120  A    
O62   C224  S    
C207  C208  S    
C260  C261  S    
C75   H7    S    
O49   C185  S    
C76   H8    S    
C6    C14   S    
C262  H229  S    
C138  C158  A    
O12   Zn11  S    
C264  H233  S    
C93   O39   A    
C132  C136  A    
C206  C207  S    
C94   O40   A    
C110  H9    S    
C234  H163  S    
C23   C171  T    
C51   C67   A    
C236  H169  S    
C205  H97   S    
C41   C53   A    
O52   C194  S    
C42   C50   A    
C113  C117  A    
C43   C55   A    
C12   C180  S    
C26   C30   A    
C200  C201  S    
C151  C155  A    
C80   Br12  S    
C219  H128  S    
C96   O44   A    
C204  C205  S    
C242  H182  S    
C268  H244  S    
C4    O4    A    
C86   C136  S    
C105  C109  A    
O14   Zn10  S    
C184  O72   S    
C225  C226  S    
C107  C111  A    
C148  C152  A    
C199  H82   S    
C213  H114  S    
C2    C66   S    
C231  C232  S    
C95   C167  S    
C240  H177  S    
C232  H159  S    
C197  C198  S    
C197  H78   S    
C239  C240  S    
C137  C157  A    
C127  C179  S    
C190  H61   S    
C243  H184  S    
C56   C102  S    
C98   O48   A    
C212  H112  S    
C140  C160  A    
C107  H15   S    
C229  H153  S    
C227  C228  S    
C7    C23   S    
C7    C15   S    
C8    C24   S    
C238  H174  S    
C37   Br1   S    
C16   C128  S    
C37   C41   A    
C233  H161  S    
C24   C172  T    
C254  C255  S    
C145  C149  A    
C208  H103  S    
C39   Br3   S    
C245  H189  S    
C70   H2    S    
C226  H144  S    
C5    C87   S    
C40   C44   A    
C126  O50   S    
C199  H81   S    
C18   C178  S    
C219  C220  S    
C247  H194  S    
C256  H214  S    
C246  C247  S    
O15   Zn11  S    
C250  H200  S    
O25   Zn3   S    
C88   H26   S    
C203  C204  S    
C30   O74   S    
C58   C62   A    
C101  O7    A    
C87   H25   S    
O1    Zn1   S    
C252  H205  S    
C85   O30   A    
C80   C84   A    
C157  C167  A    
C221  H133  S    
O6    Zn10  S    
C89   H27   S    
O40   Zn7   S    
C25   H45   S    
C195  H73   S    
O27   Zn4   S    
C218  H127  S    
O60   C218  S    
C110  C116  A    
C263  C264  S    
C54   C58   A    
C244  H186  S    
C265  H236  S    
C241  H180  S    
C206  H98   S    
C6    C22   S    
C234  C235  S    
C175  H43   S    
C223  H137  S    
C191  H64   S    
C117  Br5   S    
C258  H220  S    
C205  H95   S    
C12   H40   S    
C17   C163  T    
C116  H20   S    
C18   C164  T    
C2    O2    A    
C139  H31   S    
C104  O16   A    
C195  C196  S    
C201  H87   S    
C204  H93   S    
C114  H18   S    
C69   C73   A    
C174  C178  S    
C72   C76   A    
C106  H14   S    
C137  H29   S    
C241  H181  S    
C196  H75   S    
C193  H67   S    
C62   C82   A    
C173  C181  S    
O63   C227  S    
C248  H196  S    
C216  C217  S    
C220  H131  S    
C213  C214  S    
C87   C173  S    
C235  H167  S    
C5    C181  S    
C187  H54   S    
C268  H242  S    
C222  H136  S    
O46   Zn10  S    
C255  H213  S    
C76   C80   A    
C214  H118  S    
O58   C212  S    
C185  C186  S    
C261  H227  S    
C138  C142  A    
C212  C213  S    
C145  O61   S    
C53   C57   A    
C229  H151  S    
C263  H231  S    
C78   Br10  S    
C257  H217  S    
C13   O65   S    
C33   C37   A    
C56   C60   A    
C115  C119  A    
C63   C83   A    
C259  H222  S    
C35   C39   A    
C254  H210  S    
C47   O23   A    
O65   C233  S    
O34   Zn6   S    
C125  O49   S    
C199  H83   S    
C77   C81   A    
C256  H216  S    
C36   O56   S    
C4    C68   S    
C144  C146  A    
C264  H234  S    
C130  C135  A    
C175  C179  S    
C217  H123  S    
C31   C35   A    
O72   C254  S    
C89   C175  S    
O38   Zn5   S    
C40   Br4   S    
C32   C36   A    
C86   O31   A    
O57   C209  S    
O44   Zn8   S    
C240  C241  S    
O11   Zn12  S    
C137  C141  A    
C93   C171  S    
C82   O58   S    
O17   Zn3   S    
C140  C144  A    
C3    O19   A    
C211  H109  S    
C244  H188  S    
C45   O25   A    
C93   O35   A    
C124  C134  A    
C94   O36   A    
C14   O66   S    
C95   O41   A    
C237  C238  S    
O24   Zn2   S    
O47   Zn11  S    
C2    O18   A    
C209  H105  S    
C174  H42   S    
C194  H70   S    
C42   C54   A    
C266  C267  S    
C253  H208  S    
C43   C51   A    
O76   C266  S    
C12   C184  S    
C239  H176  S    
C231  H157  S    
C103  C133  S    
C267  H240  S    
C25   C49   A    
C192  H65   S    
C99   O5    A    
O30   Zn6   S    
C9    H37   S    
C230  C231  S    
C48   C166  S    
C215  H119  S    
C227  H148  S    
C188  H56   S    
C74   C78   A    
C248  C249  S    
C216  H121  S    
C210  H108  S    
C61   C81   A    
C13   C125  S    
C46   O22   A    
C73   H5    S    
C97   C161  S    
C251  H204  S    
C226  H145  S    
C71   C75   A    
C190  H60   S    
C242  H183  S    
C250  H201  S    
C28   C52   A    
C186  H51   S    
C77   Br9   S    
C214  H116  S    
C262  H228  S    
C203  H92   S    
C6    C88   S    
C20   C180  S    
C9    C181  S    
C198  H79   S    
C92   C170  S    
O48   Zn12  S    
C49   C65   A    
C252  H206  S    
C38   C42   A    
O20   Zn4   S    
C21   C169  T    
O67   C239  S    
C7    C89   S    
C225  H142  S    
C159  C168  A    
C224  H141  S    
C142  H21   S    
C57   C61   A    
C260  H225  S    
C44   C56   A    
C72   H4    S    
C117  C121  A    
C38   Br2   S    
O9    Zn10  S    
C32   O76   S    
C143  H24   S    
C237  H171  S    
C79   C83   A    
C88   C126  S    
O59   C215  S    
C48   O24   A    
O69   C245  S    
C52   C68   A    
C104  O15   A    
C192  C193  S    
C156  C162  A    
C200  H85   S    
C46   C164  S    
C123  C129  A    
C219  H129  S    
C204  H94   S    
C54   C100  S    
C121  C131  A    
C211  H111  S    
C122  C132  A    
C262  H230  S    
C205  H96   S    
C19   C179  S    
C228  C229  S    
C63   C67   A    
O3    Zn2   S    
C108  C132  A    
C10   C178  S    
C142  C148  A    
C36   C40   A    
C11   C183  S    
C249  H198  S    
C118  Br6   S    
C263  H232  S    
C266  H238  S    
C62   C66   A    
C109  C115  A    
C105  C129  A    
C233  C234  S    
C206  H99   S    
C232  H158  S    
C99   O9    A    
C243  H185  S    
C97   O46   A    
C122  C133  A    
C154  C160  A    
O68   C242  S    
C176  C180  S    
C147  O63   S    
C230  H154  S    
C215  C216  S    
C173  C177  S    
C188  C189  S    
C150  H34   S    
O7    Zn11  S    
C109  H10   S    
C238  H173  S    
C233  H162  S    
C254  H211  S    
C208  H102  S    
C114  C118  A    
C245  H190  S    
C85   C135  S    
C27   H47   S    
O50   C188  S    
C29   O73   S    
O61   C221  S    
C35   O55   S    
C246  H192  S    
C125  C177  S    
C186  C187  S    
C243  C244  S    
C8    C90   S    
C108  C112  A    
C87   C125  S    
C98   C162  S    
C189  H58   S    
C92   O38   A    
C106  C110  A    
C198  C199  S    
C143  C145  A    
C119  Br7   S    
C34   C38   A    
C16   O68   S    
C120  Br8   S    
C3    C67   S    
C85   O29   A    
C91   O37   A    
C245  C246  S    
C194  C195  S    
C221  H134  S    
C55   C101  S    
C236  H168  S    
C57   C69   A    
C226  H146  S    
C107  C131  A    
C183  O71   S    
C268  H243  S    
O51   C191  S    
C185  H50   S    
C79   Br11  S    
C8    C184  S    
O73   C257  S    
C152  H36   S    
O23   Zn2   S    
C234  H164  S    
C223  H138  S    
C128  O52   S    
O19   Zn4   S    
C202  H89   S    
C258  H219  S    
C101  O11   A    
C236  C237  S    
C15   O67   S    
C221  C222  S    
C225  H143  S    
C140  H32   S    
O75   C263  S    
O22   Zn1   S    
C202  H90   S    
C102  O12   A    
C197  H77   S    
C150  C154  A    
C190  H62   S    
C45   O21   A    
C96   O43   A    
C90   C128  S    
C121  C133  A    
C86   O32   A    
C120  C124  A    
C59   C71   A    
C213  H115  S    
