data_mof_unit_27122.cif
_audit_creation_date              2012-12-11T14:50:37-0500
_audit_creation_method            fapswitch 2.2
_symmetry_space_group_name_H-M    P1
_symmetry_Int_Tables_number       1
_space_group_crystal_system       triclinic
_cell_length_a                    11.131167
_cell_length_b                    11.04322
_cell_length_c                    18.737185
_cell_angle_alpha                 89.58574
_cell_angle_beta                  89.073628
_cell_angle_gamma                 59.900095
_cell_volume                      1992.39901779

loop_
_atom_site_label
_atom_site_type_symbol
_atom_type_description
_atom_site_fract_x
_atom_site_fract_y
_atom_site_fract_z
_atom_type_partial_charge
C1    C     C_R   0.231992 0.648604 0.608271 0.623670
C2    C     C_3   0.710699 0.535822 0.803014 0.001406
C3    C     C_3   0.692553 0.680888 0.812809 -0.003933
C4    C     C_3   0.665213 0.648034 0.676992 -0.014687
C5    C     C_3   0.783957 0.678056 0.683843 0.025528
C6    C     C_3   0.692838 0.515453 0.723011 0.228240
C7    C     C_R   0.790257 0.118881 0.704632 -0.023031
C8    C     C_R   0.809321 0.115433 0.778820 -0.059525
C9    C     C_R   0.694005 0.161292 0.825138 0.083075
C10   C     C_R   0.562879 0.228451 0.797340 0.243724
C11   C     C_R   0.543229 0.221864 0.724892 -0.004992
C12   C     C_R   0.651015 0.620112 0.601656 0.626675
C13   C     C_R   0.656946 0.175780 0.676991 0.051289
C14   C     C_R   0.164216 0.563335 0.717252 0.133280
C15   C     C_R   0.151355 0.566172 0.791910 0.203009
C16   C     C_R   0.163355 0.671061 0.830937 0.044935
C17   C     C_R   0.180987 0.771323 0.794592 -0.115498
C18   C     C_R   0.174597 0.780081 0.721754 0.118780
C19   C     C_R   0.178318 0.669562 0.681656 0.052612
C20   C     C_R   0.808842 0.610867 0.295973 0.167342
C21   C     C_R   0.825059 0.629242 0.223811 -0.080202
C22   C     C_R   0.709979 0.714393 0.181867 0.003619
C23   C     C_R   0.626984 0.226970 0.602786 0.594703
C24   C     C_R   0.579010 0.793494 0.214296 -0.149038
C25   C     C_R   0.562041 0.776845 0.286822 -0.175161
C26   C     C_R   0.674183 0.677314 0.326900 0.043665
C27   C     C_R   0.574012 0.126221 0.291931 -0.143037
C28   C     C_R   0.571071 0.117240 0.219073 -0.167176
C29   C     C_R   0.647514 0.158869 0.175432 0.047060
C30   C     C_R   0.721857 0.217261 0.205474 0.144578
C31   C     C_R   0.722781 0.227893 0.278936 -0.103024
C32   C     C_R   0.648187 0.183221 0.322194 0.003887
C33   C     C_R   0.259610 0.732413 0.276864 -0.130295
C34   C     C_R   0.291031 0.619041 0.393083 0.551834
C35   C     C_R   0.221027 0.747978 0.206710 -0.103556
C36   C     C_R   0.180150 0.658392 0.175975 0.033509
C37   C     C_R   0.203689 0.537799 0.212599 -0.125273
C38   C     C_R   0.250701 0.517929 0.282714 -0.094202
C39   C     C_R   0.267365 0.622038 0.316647 0.026785
C40   C     C_R   0.704300 0.101490 0.896397 0.625879
C41   C     C_R   0.724098 0.690793 0.888142 0.636089
C42   C     C_R   0.115432 0.706283 0.904911 0.605119
C43   C     C_R   0.673737 0.107723 0.103176 0.573073
C44   C     C_R   0.731966 0.718456 0.104970 0.553415
C45   C     C_R   0.645837 0.626700 0.394335 0.560304
C46   C     C_R   0.097585 0.706958 0.111193 0.536813
C47   C     C_R   0.617141 0.231027 0.394903 0.538021
C48   C     C_3   0.541084 0.790843 0.787731 0.053706
C49   C     C_3   0.531200 0.778015 0.706762 -0.190613
C50   C     C_3   0.803464 0.689228 0.764057 0.022669
Cr1   Cr    Cr6+3 0.392930 0.397900 0.502230 1.125196
Cr2   Cr    Cr6+3 0.398240 0.708600 0.501260 1.091035
Cr3   Cr    Cr6+3 0.708800 0.393470 0.496460 1.135105
Cr4   Cr    Cr6+3 0.937620 0.938540 0.007640 1.103363
Cr5   Cr    Cr6+3 0.625150 0.937450 0.994520 1.124158
Cr6   Cr    Cr6+3 0.937990 0.625080 0.001190 1.127005
H1    H     H_    0.901544 0.597012 0.774794 0.170448
H2    H     H_    0.879112 0.588607 0.661200 0.211301
H3    H     H_    0.179288 0.463808 0.188810 0.144347
O1    O     O_R   0.507430 0.255570 0.581420 -0.481292
O2    O     O_R   0.524460 0.695920 0.424060 -0.537238
O3    O     O_R   0.736530 0.504260 0.414810 -0.461286
O4    O     O_R   0.691460 0.277160 0.422180 -0.510412
O5    O     O_3   0.499990 0.499990 0.499980 -0.319973
O6    O     O_R   0.089490 0.825610 0.930610 -0.514653
O7    O     O_R   0.818370 0.054540 0.929880 -0.491303
O8    O     O_R   0.605870 0.077310 0.915530 -0.418363
O9    O     O_R   0.646440 0.806700 0.917570 -0.438564
O10   O     O_R   0.837200 0.593290 0.915250 -0.469998
O11   O     O_R   0.065330 0.635370 0.931590 -0.446209
O12   O     O_R   0.280190 0.527390 0.578910 -0.449563
O13   O     O_R   0.068300 0.828790 0.091860 -0.510222
O14   O     O_R   0.798730 0.057480 0.079370 -0.463129
O15   O     O_R   0.584680 0.080480 0.076790 -0.531260
O16   O     O_R   0.626790 0.809640 0.067050 -0.500733
O17   O     O_R   0.816010 0.596460 0.076500 -0.455999
O18   O     O_R   0.045680 0.638310 0.081070 -0.530056
O19   O     O_3   0.833590 0.833690 0.001120 -0.325225
O20   O     O_R   0.260310 0.739740 0.584580 -0.459358
O21   O     O_R   0.532250 0.695150 0.573830 -0.486961
O22   O     O_R   0.744930 0.503430 0.576380 -0.436557
O23   O     O_R   0.699250 0.276390 0.571950 -0.454740
O24   O     O_R   0.499020 0.256400 0.419850 -0.523720
O25   O     O_R   0.272400 0.528160 0.429140 -0.470476
O26   O     O_R   0.251910 0.740570 0.423020 -0.499408
Br1   Br    Br    0.465038 0.988174 0.809173 -0.353891
Br2   Br    Br    0.868293 0.345829 0.695298 -0.406015
H4    H     H_    0.877664 0.082133 0.668346 0.214430
H5    H     H_    0.913620 0.063917 0.799586 0.185685
Br3   Br    Br    0.418451 0.343474 0.862157 -0.343926
H6    H     H_    0.438094 0.275040 0.706013 0.211967
Br4   Br    Br    0.158075 0.414004 0.665964 -0.363575
Br5   Br    Br    0.116244 0.423243 0.836617 -0.324766
H7    H     H_    0.185619 0.853908 0.823093 0.186674
H8    H     H_    0.465966 0.766407 0.814506 0.185583
Br6   Br    Br    0.159436 0.951314 0.684294 -0.434998
Br7   Br    Br    0.974927 0.492640 0.348168 -0.474271
H9    H     H_    0.927758 0.573383 0.199818 0.151730
H10   H     H_    0.489088 0.863725 0.183390 0.141079
H11   H     H_    0.459710 0.836025 0.310563 0.129528
H12   H     H_    0.513613 0.093895 0.324454 0.156129
H13   H     H_    0.513095 0.071992 0.197177 0.144469
Br8   Br    Br    0.817147 0.290370 0.149266 -0.439444
H14   H     H_    0.775520 0.278251 0.301660 0.180399
H15   H     H_    0.274861 0.812057 0.300998 0.132616
H16   H     H_    0.438226 0.770132 0.696150 0.198118
H17   H     H_    0.211463 0.838721 0.178932 0.158896
H18   H     H_    0.265379 0.426264 0.311510 0.178451
H19   H     H_    0.513021 0.874366 0.678496 0.230706
Br9   Br    Br    0.836122 0.835281 0.789838 -0.530949
Br10  Br    Br    0.761433 0.834598 0.623635 -0.475909
H20   H     H_    0.817800 0.457275 0.819197 0.210386
Br11  Br    Br    0.601859 0.499413 0.874327 -0.438148
Br12  Br    Br    0.530987 0.496144 0.708978 -0.531262

loop_
_geom_bond_atom_site_label_1
_geom_bond_atom_site_label_2
_ccdc_geom_bond_type
C43   O14   A    
Cr6   O17   S    
C23   O23   A    
Cr1   O24   S    
C24   H10   S    
C18   Br6   S    
C45   O3    A    
C35   C36   A    
C42   O11   A    
C28   C29   A    
Cr5   O9    S    
C7    C8    A    
Cr4   O6    S    
C2    H20   S    
C33   C39   A    
C34   O25   A    
C5    H2    S    
C49   H19   S    
C36   C37   A    
C48   H8    S    
Cr2   O2    S    
C47   O4    A    
C38   C39   A    
C2    Br11  S    
C11   C13   A    
C15   C16   A    
C3    C48   S    
C50   Br9   S    
Cr6   O19   S    
C13   C23   S    
Cr3   O22   S    
C18   C19   A    
C44   O17   A    
C6    Br12  S    
C26   C45   S    
C33   C35   A    
Cr5   O15   S    
C22   C44   S    
C20   Br7   S    
C7    H4    S    
C8    C9    A    
C40   O8    A    
C30   Br8   S    
C42   O6    A    
C36   C46   S    
C47   O24   A    
C4    C12   S    
C29   C30   A    
C9    C10   A    
C46   O13   A    
Cr5   O16   S    
C43   O15   A    
C40   O7    A    
C21   C22   A    
C29   C43   S    
C2    C6    S    
Cr1   O12   S    
C3    C50   S    
C41   O9    A    
C23   O1    A    
C1    C19   S    
C17   H7    S    
C34   C39   S    
C33   H15   S    
C24   C25   A    
C4    C6    S    
Cr2   O5    S    
Cr5   O19   S    
C16   C17   A    
C5    Br10  S    
C25   C26   A    
C27   H12   S    
C9    C40   S    
Cr6   O18   S    
Cr3   O23   S    
C34   O26   A    
C44   O16   A    
C37   C38   A    
C11   H6    S    
Cr4   O14   S    
Cr3   O3    S    
C25   H11   S    
C31   C32   A    
C17   C18   A    
C1    O12   A    
C14   Br4   S    
C37   H3    S    
Cr4   O7    S    
C48   C49   S    
Cr2   O26   S    
Cr6   O11   S    
C1    O20   A    
C32   C47   S    
C22   C24   A    
C5    C50   S    
Cr2   O20   S    
C16   C42   S    
C41   O10   A    
C3    C41   S    
C27   C32   A    
C50   H1    S    
C14   C19   A    
Cr1   O5    S    
C4    C5    S    
C15   Br5   S    
C46   O18   A    
Cr5   O8    S    
C49   H16   S    
Cr1   O1    S    
C4    C49   S    
C31   H14   S    
C2    C3    S    
C21   H9    S    
Cr3   O4    S    
C30   C31   A    
C20   C26   A    
C12   O21   A    
C45   O2    A    
Cr3   O5    S    
C12   O22   A    
C48   Br1   S    
C38   H18   S    
C35   H17   S    
C10   C11   A    
C6    Br2   S    
C28   H13   S    
C7    C13   A    
Cr4   O13   S    
C20   C21   A    
C10   Br3   S    
Cr6   O10   S    
C27   C28   A    
C14   C15   A    
C8    H5    S    
Cr2   O21   S    
Cr1   O25   S    
Cr4   O19   S    
