data_mof_unit_15995.cif
_audit_creation_date              2012-12-10T17:57:26-0500
_audit_creation_method            fapswitch 2.2
_symmetry_space_group_name_H-M    P1
_symmetry_Int_Tables_number       1
_space_group_crystal_system       triclinic
_cell_length_a                    9.549554
_cell_length_b                    10.800283
_cell_length_c                    13.465439
_cell_angle_alpha                 90.449192
_cell_angle_beta                  73.353001
_cell_angle_gamma                 89.867829
_cell_volume                      1330.53360716

loop_
_atom_site_label
_atom_site_type_symbol
_atom_type_description
_atom_site_fract_x
_atom_site_fract_y
_atom_site_fract_z
_atom_type_partial_charge
C1    C     C_R   0.498776 0.737668 0.502404 0.869107
C2    C     C_R   0.447403 0.439337 0.974256 0.080037
C3    C     C_R   0.492906 0.439415 0.864376 0.089876
C4    C     C_R   0.553499 0.459344 0.028306 0.071062
C5    C     C_R   0.703266 0.468335 0.972060 0.173303
C6    C     C_R   0.747469 0.444707 0.866210 -0.233003
C7    C     C_R   0.644137 0.425069 0.813939 -0.186582
C8    C     C_R   0.515173 0.475625 0.136063 -0.203031
C9    C     C_R   0.768360 0.508967 0.129881 -0.167127
C10   C     C_R   0.385232 0.451667 0.809885 -0.097580
C11   C     C_R   0.620539 0.932604 0.440777 -0.251863
C12   C     C_R   0.424086 0.485038 0.698681 0.796369
C13   C     C_R   0.623115 0.060805 0.436739 0.403315
C14   C     C_R   0.501949 0.128510 0.496839 -0.162571
C15   C     C_R   0.379408 0.067490 0.558991 -0.230541
C16   C     C_R   0.376794 0.939298 0.562988 0.400341
C17   C     C_R   0.498032 0.871560 0.502987 -0.175843
C18   C     C_R   0.898682 0.574519 0.566752 -0.041535
C19   C     C_R   0.047281 0.574439 0.566748 -0.068552
C20   C     C_R   0.099506 0.424042 0.433955 0.465946
C21   C     C_R   0.951536 0.425334 0.433772 -0.035192
C22   C     C_R   0.501240 0.262348 0.497534 0.873016
C23   C     C_R   0.577603 0.500714 0.300358 0.832999
C24   C     C_R   0.808067 0.497628 0.022590 -0.181695
C25   C     C_R   0.621809 0.495785 0.187132 -0.042761
C26   C     C_R   0.237835 0.432544 0.863734 -0.177560
C27   C     C_R   0.196951 0.408546 0.969449 -0.134073
C28   C     C_R   0.298455 0.417153 0.025177 -0.151242
Cu1   Cu    Cu3+1 0.359340 0.499980 0.500000 1.027043
Cu2   Cu    Cu3+1 0.640660 0.500020 0.500000 0.978767
H1    H     H_    0.821168 0.634220 0.620434 0.161112
H2    H     H_    0.862523 0.440290 0.823648 0.143679
H3    H     H_    0.154225 0.433716 0.823789 0.150912
H4    H     H_    0.257840 0.401434 0.107377 0.167632
H5    H     H_    0.085328 0.385315 0.009665 0.155405
H6    H     H_    0.686777 0.393666 0.734912 0.191001
N1    N     N_R   0.147940 0.499970 0.499970 -0.201055
N2    N     N_R   0.852060 0.500060 0.499990 -0.201195
O1    O     O_R   0.381250 0.680340 0.500010 -0.538842
O2    O     O_R   0.618820 0.680370 0.500010 -0.587535
O3    O     O_R   0.323240 0.499950 0.650980 -0.579768
O4    O     O_R   0.560810 0.499980 0.650980 -0.603308
O5    O     O_R   0.381180 0.319630 0.499990 -0.543040
O6    O     O_R   0.618750 0.319660 0.499990 -0.559764
O7    O     O_R   0.439190 0.500020 0.349020 -0.550488
O8    O     O_R   0.676760 0.500050 0.349020 -0.586867
H7    H     H_    0.851917 0.528234 0.167802 0.162371
Cl1   Cl    Cl    0.776013 0.131648 0.350849 -0.590993
H8    H     H_    0.286879 0.119806 0.606330 0.192724
Cl2   Cl    Cl    0.223689 0.868535 0.648692 -0.623966
H9    H     H_    0.081110 0.633632 0.620625 0.198180
Cl3   Cl    Cl    0.216164 0.319257 0.348681 -0.597038
H10   H     H_    0.916234 0.365869 0.380719 0.204628
H11   H     H_    0.920377 0.512386 0.978470 0.135888
H12   H     H_    0.402615 0.474228 0.181833 0.183301
H13   H     H_    0.713059 0.880303 0.393419 0.196596

loop_
_geom_bond_atom_site_label_1
_geom_bond_atom_site_label_2
_ccdc_geom_bond_type
C13   Cl1   S    
C2    C4    A    
C11   H13   S    
C9    C24   A    
Cu1   Cu2   S    
C8    C25   A    
C7    H6    S    
C26   H3    S    
C1    C17   S    
C22   O5    A    
C4    C8    A    
C27   H5    S    
Cu1   O1    S    
C15   H8    S    
C2    C3    A    
C18   N2    A    
C9    C25   A    
C20   Cl3   S    
C23   O8    A    
C13   C14   A    
Cu1   O5    S    
C21   H10   S    
C20   N1    A    
C11   C13   A    
Cu2   O6    S    
C26   C27   A    
C6    C7    A    
C5    C24   A    
C10   C12   S    
C23   O7    A    
C4    C5    A    
C8    H12   S    
C16   Cl2   S    
C9    H7    S    
C3    C7    A    
C23   C25   S    
C5    C6    A    
C1    O1    A    
C12   O4    A    
C28   H4    S    
C15   C16   A    
C19   H9    S    
Cu2   O2    S    
C20   C21   A    
Cu2   N2    S    
C12   O3    A    
C14   C22   S    
C18   C19   A    
Cu1   N1    S    
C27   C28   A    
C3    C10   A    
C14   C15   A    
Cu2   O4    S    
C2    C28   A    
C18   H1    S    
C19   N1    A    
C1    O2    A    
Cu1   O3    S    
C24   H11   S    
Cu2   O8    S    
C10   C26   A    
C22   O6    A    
C21   N2    A    
Cu1   O7    S    
C16   C17   A    
C6    H2    S    
C11   C17   A    
