data_mof_unit_52135.cif
_audit_creation_date              2013-03-05T15:45:15-0500
_audit_creation_method            fapswitch 2.2
_symmetry_space_group_name_H-M    P1
_symmetry_Int_Tables_number       1
_space_group_crystal_system       triclinic
_cell_length_a                    8.441045
_cell_length_b                    12.83119
_cell_length_c                    19.146297
_cell_angle_alpha                 95.549061
_cell_angle_beta                  94.12162
_cell_angle_gamma                 98.0929
_cell_volume                      2035.73255092

loop_
_atom_site_label
_atom_site_type_symbol
_atom_site_description
_atom_site_fract_x
_atom_site_fract_y
_atom_site_fract_z
_atom_type_partial_charge
P1    P     P_3+3 0.986780 0.745970 0.554690 0.458663
O1    O     O_2   0.160820 0.763040 0.533820 -0.358645
O2    O     O_3   0.890970 0.628600 0.535400 -0.401506
O3    O     O_3   0.385950 0.698560 0.408070 -0.389737
O4    O     O_2   0.321852 0.885421 0.465119 -0.350803
O5    O     O_3   0.011182 0.777741 0.646114 -0.590702
O6    O     O_3   0.381342 0.885819 0.334537 -0.555949
C1    C     C_3   0.523473 0.918400 0.229858 -0.460539
H1    H     H_    0.541641 0.877178 0.178422 0.185575
P2    P     P_3+3 0.341450 0.417130 0.341310 0.422707
P3    P     P_3+3 0.925038 0.620317 0.280898 0.425813
O7    O     O_2   0.172860 0.449730 0.330520 -0.397338
O8    O     O_3   0.962080 0.644700 0.373110 -0.360742
O9    O     O_2   0.045055 0.552344 0.249718 -0.406083
O10   O     O_3   0.322798 0.278785 0.318307 -0.585873
O11   O     O_3   0.978136 0.741326 0.249184 -0.515478
C2    C     C_3   0.873805 0.809513 0.273000 0.407095
H2    H     H_    0.818791 0.788928 0.321952 0.079613
H3    H     H_    0.779391 0.810403 0.229854 0.043136
C3    C     C_3   0.968808 0.917810 0.290992 -1.010659
H4    H     H_    0.067525 0.911328 0.331500 0.314192
H5    H     H_    0.019610 0.946749 0.243366 0.247225
C4    C     C_3   0.746262 0.314602 0.324824 0.486650
H6    H     H_    0.652097 0.347771 0.353654 0.124053
H7    H     H_    0.853039 0.376744 0.327063 0.095989
C5    C     C_3   0.681565 0.281974 0.248270 -1.102239
H8    H     H_    0.551093 0.256538 0.245097 0.287133
H9    H     H_    0.706673 0.348249 0.216368 0.243033
H10   H     H_    0.738185 0.215741 0.224971 0.288876
Ba1   Ba    Ba6+2 0.160910 0.552960 0.466220 1.510096
C6    C     C_3   0.048262 0.690937 0.679594 0.293161
H11   H     H_    0.165417 0.671466 0.663875 0.093799
H12   H     H_    0.953438 0.620824 0.666034 0.123384
C7    C     C_3   0.062720 0.721889 0.759365 -0.506545
H13   H     H_    0.155443 0.793402 0.772415 0.220193
H14   H     H_    0.103441 0.656789 0.786965 0.178258
C8    C     C_3   0.169421 0.221698 0.321925 0.711975
H15   H     H_    0.086247 0.268427 0.347635 0.093956
C9    C     C_3   0.192918 0.127457 0.362799 -1.054805
H16   H     H_    0.230908 0.063367 0.327884 0.267969
H17   H     H_    0.081002 0.097131 0.385464 0.233380
H18   H     H_    0.292832 0.146370 0.404787 0.276597
P4    P     P_3+3 0.823520 0.254020 0.445250 0.432966
O12   O     O_2   0.649470 0.236890 0.466160 -0.347200
O13   O     O_3   0.919320 0.371390 0.464540 -0.441125
O14   O     O_3   0.424350 0.301430 0.591880 -0.371367
O15   O     O_3   0.790466 0.225731 0.353905 -0.589215
P5    P     P_3+3 0.880164 0.370620 0.719570 0.445622
O16   O     O_3   0.382770 0.553920 0.582990 -0.441903
O17   O     O_3   0.848220 0.355290 0.626830 -0.409336
O18   O     O_2   0.751623 0.433100 0.749276 -0.374760
O19   O     O_3   0.829906 0.246149 0.748885 -0.511154
Ba2   Ba    Ba6+2 0.649260 0.447030 0.533730 1.506378
P6    P     P_3+3 0.434063 0.837899 0.414791 0.454548
C10   C     C_3   0.459319 0.837530 0.279999 0.583213
H19   H     H_    0.567924 0.809002 0.301819 -0.080539
H20   H     H_    0.643712 0.958402 0.251521 0.164125
O20   O     O_3   0.427530 0.446070 0.416950 -0.428937
C11   C     C_3   0.554231 0.772030 0.626934 0.356357
H21   H     H_    0.677000 0.755692 0.617555 0.093794
H22   H     H_    0.470170 0.741600 0.579706 0.148787
C12   C     C_3   0.555778 0.890990 0.638446 -0.898168
H23   H     H_    0.632992 0.924067 0.686794 0.256547
H24   H     H_    0.602690 0.929622 0.593250 0.236097
H25   H     H_    0.431901 0.908121 0.644360 0.271796
P7    P     P_3+3 0.468065 0.589838 0.670260 0.418683
O21   O     O_2   0.637430 0.550200 0.669460 -0.357446
O22   O     O_3   0.505431 0.727888 0.687675 -0.581762
H26   H     H_    0.891332 0.972614 0.313027 0.219884
C13   C     C_3   0.887020 0.169867 0.703236 0.519016
H27   H     H_    0.798466 0.145142 0.656564 0.133151
H28   H     H_    0.005595 0.199800 0.685129 -0.016647
C14   C     C_3   0.906904 0.073799 0.742071 -1.073017
H29   H     H_    0.934531 0.008226 0.704690 0.241099
H30   H     H_    0.006815 0.094636 0.784352 0.258516
H31   H     H_    0.795278 0.047154 0.766748 0.279286
P8    P     P_3+3 0.378949 0.161207 0.589321 0.463441
C15   C     C_3   0.352340 0.142860 0.721348 0.539040
H32   H     H_    0.225046 0.115632 0.701472 0.035322
O23   O     O_2   0.484013 0.114777 0.535092 -0.364254
O24   O     O_3   0.455774 0.123099 0.668852 -0.501719
H33   H     H_    0.312221 0.096420 0.826023 0.220592
C16   C     C_3   0.387999 0.078723 0.782434 -1.023787
H34   H     H_    0.516582 0.097987 0.802601 0.276964
H35   H     H_    0.360628 0.992793 0.764156 0.261790
C17   C     C_R   0.062571 0.182076 0.535473 -0.158283
C18   C     C_R   0.736237 0.816198 0.475762 -0.502147
C19   C     C_R   0.706661 0.994797 0.450175 -0.192375
C20   C     C_R   0.644065 0.887207 0.448321 0.211658
C21   C     C_R   0.888347 0.850337 0.510663 0.298706
C22   C     C_R   0.950209 0.962268 0.517000 -0.034805
C23   C     C_R   0.857981 0.035901 0.485604 -0.098045
C24   C     C_R   0.917639 0.148374 0.493208 0.232563
C25   C     C_R   0.162044 0.110467 0.558424 0.141919
C26   C     C_R   0.102446 0.002391 0.552218 -0.228434
H36   H     H_    0.632825 0.045925 0.425968 0.197853
H37   H     H_    0.177402 0.950696 0.574794 0.191370
H38   H     H_    0.684772 0.733546 0.473192 0.168206
C27   C     C_R   0.613892 0.534215 0.298311 -0.508163
C28   C     C_R   0.458812 0.484879 0.276619 0.387989
C29   C     C_R   0.404818 0.473933 0.204233 -0.319998
C30   C     C_R   0.509427 0.505488 0.153043 0.037637
C31   C     C_R   0.668029 0.551378 0.176730 -0.291329
C32   C     C_R   0.718903 0.564951 0.248942 0.225578
C33   C     C_R   0.477837 0.588251 0.040383 -0.206122
C34   C     C_R   0.425777 0.586870 0.968993 -0.170366
C35   C     C_R   0.349284 0.492852 0.929914 0.119594
C36   C     C_R   0.332862 0.399671 0.963104 -0.202824
C37   C     C_R   0.382157 0.399330 0.035422 0.211129
C38   C     C_R   0.452961 0.496464 0.075747 0.077897
C39   C     C_R   0.135518 0.439571 0.827996 -0.285849
C40   C     C_R   0.083984 0.433949 0.755921 0.249810
C41   C     C_R   0.343674 0.526491 0.734012 0.333073
C42   C     C_R   0.395005 0.534123 0.805982 -0.271077
C43   C     C_R   0.292123 0.489661 0.853794 0.038924
C44   C     C_R   0.189159 0.476802 0.709871 -0.516797
H39   H     H_    0.514831 0.573536 0.824423 0.143856
H40   H     H_    0.444481 0.659727 0.944341 0.126127
H41   H     H_    0.538738 0.662022 0.068387 0.126481
H42   H     H_    0.281071 0.444642 0.187806 0.168700
H43   H     H_    0.284025 0.326310 0.931264 0.140296
H44   H     H_    0.054241 0.405435 0.863753 0.153621
H45   H     H_    0.751951 0.576218 0.139208 0.152402
H46   H     H_    0.147414 0.476392 0.655198 0.140889
H47   H     H_    0.656494 0.543229 0.353544 0.166501
C45   C     C_3   0.349528 0.737360 0.243872 -0.244939
C46   C     C_3   0.267904 0.741376 0.169886 -0.822083
H48   H     H_    0.202596 0.810176 0.167222 0.269475
H49   H     H_    0.355808 0.741995 0.129273 0.216493
H50   H     H_    0.179220 0.668835 0.156067 0.281278
H51   H     H_    0.422850 0.672472 0.240202 0.133910
H52   H     H_    0.256536 0.713964 0.279873 0.281865
C47   C     C_3   0.901639 0.744647 0.785477 -0.151909
C48   C     C_3   0.918986 0.782286 0.864229 -0.938724
H53   H     H_    0.960490 0.720293 0.895023 0.266379
H54   H     H_    0.006271 0.856533 0.875259 0.267558
H55   H     H_    0.800751 0.798509 0.881299 0.251099
H56   H     H_    0.855638 0.807050 0.756453 0.225139
H57   H     H_    0.812331 0.671307 0.775889 0.216779
C49   C     C_3   0.088658 0.177131 0.248446 -0.414428
C50   C     C_3   0.056178 0.260137 0.200253 -0.897181
H58   H     H_    0.013165 0.328859 0.228551 0.292063
H59   H     H_    0.168175 0.285712 0.176449 0.267620
H60   H     H_    0.966810 0.221238 0.156164 0.246190
H61   H     H_    0.162222 0.124117 0.220796 0.198877
H62   H     H_    0.972024 0.128613 0.255595 0.204561
C51   C     C_3   0.421500 0.005118 0.219912 -0.165936
C52   C     C_3   0.454288 0.054505 0.152140 -0.984463
H63   H     H_    0.585324 0.070760 0.146349 0.275503
H64   H     H_    0.393954 0.000782 0.105794 0.270631
H65   H     H_    0.405982 0.130337 0.154086 0.265646
H66   H     H_    0.292646 0.974503 0.218284 0.197524
H67   H     H_    0.452448 0.066600 0.265532 0.228949
N1    N     N_3   0.375068 0.256121 0.745662 -0.181521
H68   H     H_    0.287623 0.269592 0.780297 0.052996
H69   H     H_    0.487672 0.277751 0.773920 0.185737
C53   C     C_3   0.124463 0.296014 0.552226 -0.366709
C54   C     C_3   0.228929 0.331762 0.495078 -0.459482
H70   H     H_    0.313288 0.277675 0.479697 0.222850
H71   H     H_    0.163295 0.343127 0.446600 0.208567
H72   H     H_    0.301359 0.405659 0.515644 0.295822
H73   H     H_    0.041486 0.349828 0.560823 0.242737
H74   H     H_    0.176244 0.309244 0.607411 0.152055
C55   C     C_3   0.378583 0.293025 0.064353 -0.368467
C56   C     C_3   0.221071 0.216071 0.040133 -0.917123
H75   H     H_    0.114334 0.258636 0.039938 0.265807
H76   H     H_    0.228989 0.175414 0.986130 0.254145
H77   H     H_    0.201610 0.153742 0.076163 0.261085
H78   H     H_    0.484244 0.256342 0.046329 0.198456
H79   H     H_    0.394557 0.302692 0.122967 0.189453

loop_
_geom_bond_atom_site_label_1
_geom_bond_atom_site_label_2
_geom_bond_distance
_ccdc_geom_bond_type
P7    O22   1.749759 S    
C10   H19   1.103605 S    
C19   H36   1.079830 S    
C29   C30   1.415882 A    
P7    C41   1.840877 S    
P3    O8    1.760398 S    
C14   H29   1.112350 S    
Ba1   O13   2.868073 S    
C55   H79   1.113364 S    
C39   C40   1.408675 A    
C52   H65   1.105120 S    
O6    C10   1.412786 S    
C36   H43   1.082252 S    
C33   C38   1.412316 A    
C31   H45   1.083220 S    
C48   H55   1.112844 S    
C42   C43   1.411895 A    
C27   H47   1.082118 S    
C5    H8    1.099304 S    
C56   H75   1.117368 S    
C23   C24   1.449731 A    
C55   C56   1.552718 S    
P2    O20   1.559476 S    
C52   H64   1.113487 S    
C7    H13   1.114600 S    
P2    O10   1.769182 S    
C50   H59   1.101200 S    
C11   O22   1.404818 S    
P3    O9    1.542206 D    
C40   C44   1.391655 A    
C34   C35   1.403108 A    
P8    C25   1.886859 S    
C2    C3    1.498884 S    
C36   C37   1.417451 A    
P1    O1    1.541604 D    
C4    C5    1.524386 S    
P2    Ba1   3.397820 S    
C28   C29   1.414839 A    
C12   H24   1.108270 S    
C17   C25   1.408766 A    
C54   H72   1.076047 S    
C2    H3    1.107898 S    
C15   C16   1.530038 S    
P4    Ba2   3.426264 S    
P5    O18   1.545611 D    
O10   C8    1.404701 S    
C19   C23   1.409390 A    
C1    H1    1.103166 S    
C8    C49   1.538753 S    
C4    H6    1.109276 S    
C6    H12   1.113391 S    
P3    C32   1.822491 S    
C45   H52   1.110322 S    
C53   H74   1.101945 S    
N1    H69   1.046879 S    
C41   C44   1.394084 A    
O7    Ba1   2.815097 S    
P5    O17   1.764351 S    
C27   C32   1.388822 A    
O13   Ba2   2.949879 S    
C47   H56   1.115026 S    
C56   H76   1.122989 S    
C34   H40   1.084484 S    
C39   H44   1.082656 S    
C54   H71   1.079208 S    
C14   H30   1.111115 S    
C55   H78   1.125669 S    
C30   C31   1.408476 A    
C13   C14   1.522522 S    
Ba2   O21   2.815134 S    
O12   Ba2   2.875942 S    
C1    C10   1.549452 S    
C9    H18   1.106173 S    
Ba1   Ba2   4.654242 S    
C11   H22   1.111348 S    
O17   Ba2   2.813465 S    
C4    O15   1.400824 S    
O16   P7    1.762779 S    
C51   C52   1.524184 S    
P1    O5    1.749036 S    
O4    P6    1.541974 D    
P7    O21   1.584009 D    
C49   C50   1.515535 S    
P6    C20   1.843030 S    
C9    H17   1.104644 S    
C50   H60   1.118800 S    
C49   H62   1.113033 S    
C22   C23   1.452475 A    
C15   H32   1.109609 S    
O11   C2    1.395159 S    
C48   H54   1.111814 S    
C7    C47   1.537933 S    
C53   C54   1.518900 S    
P1    O2    1.601579 S    
O2    Ba1   2.948926 S    
P4    O12   1.541973 D    
C46   H49   1.112544 S    
C11   H21   1.109383 S    
C8    H15   1.098116 S    
C17   C24   1.406964 A    
C1    H20   1.103280 S    
P3    O11   1.733756 S    
O8    Ba1   2.812918 S    
C16   H34   1.110853 S    
C10   C45   1.545916 S    
P8    O24   1.752043 S    
C35   C36   1.401960 A    
C3    H4    1.114397 S    
C12   H23   1.105097 S    
C2    H2    1.113447 S    
C6    C7    1.532176 S    
C52   H63   1.111915 S    
P2    C28   1.847527 S    
P4    O13   1.601548 S    
C35   C43   1.496785 S    
N1    H68   1.048125 S    
C13   H27   1.113680 S    
P2    O7    1.544296 D    
C16   H35   1.110667 S    
Ba1   O16   2.809270 S    
C3    H5    1.109105 S    
C47   H57   1.111085 S    
C56   H77   1.108375 S    
C18   C20   1.394609 A    
C47   C48   1.528302 S    
C14   H31   1.110165 S    
C3    H26   1.100884 S    
C30   C38   1.510196 S    
C1    C51   1.517350 S    
C46   H48   1.107915 S    
P1    C21   1.903992 S    
C9    H16   1.106672 S    
C41   C42   1.404364 A    
P8    O23   1.543028 D    
C11   C12   1.519064 S    
C44   H46   1.079511 S    
C12   H25   1.109696 S    
O3    P6    1.766801 S    
C29   H42   1.072686 S    
C6    H11   1.108492 S    
C15   N1    1.464012 S    
C37   C55   1.518306 S    
C49   H61   1.106851 S    
O14   P8    1.781176 S    
C13   H28   1.112163 S    
Ba2   O20   2.808748 S    
C26   H37   1.077695 S    
C48   H53   1.114711 S    
C33   C34   1.403038 A    
C5    H9    1.099759 S    
C27   C28   1.387256 A    
O1    Ba1   2.875293 S    
C18   H38   1.083035 S    
C51   H66   1.100336 S    
C46   H50   1.106559 S    
C8    C9    1.530441 S    
C50   H58   1.108568 S    
O2    Ba2   2.868699 S    
C15   O24   1.405707 S    
C21   C22   1.447805 A    
C54   H70   1.097811 S    
C45   H51   1.105091 S    
C45   C46   1.538775 S    
O16   Ba2   2.958734 S    
Ba1   O20   2.959729 S    
O14   Ba2   2.835756 S    
P1    Ba1   3.425555 S    
P4    C24   1.936734 S    
O5    C6    1.398855 S    
C7    H14   1.111415 S    
C4    H7    1.111511 S    
C25   C26   1.397637 A    
C51   H67   1.108796 S    
C17   C53   1.477601 S    
C42   H39   1.083317 S    
O19   C13   1.407948 S    
C22   C26   1.411766 A    
P5    O19   1.750029 S    
C19   C20   1.403100 A    
C5    H10   1.105147 S    
H33   C16   1.112744 S    
C18   C21   1.395950 A    
C31   C32   1.404745 A    
P5    C40   1.851905 S    
C33   H41   1.083038 S    
C39   C43   1.417755 A    
O6    P6    1.760286 S    
C37   C38   1.429874 A    
P4    O15   1.745524 S    
C53   H73   1.060771 S    
O3    Ba1   2.836419 S    
