data_mof_unit_39340.cif
_audit_creation_date              2013-03-05T15:51:23-0500
_audit_creation_method            fapswitch 2.2
_symmetry_space_group_name_H-M    P1
_symmetry_Int_Tables_number       1
_space_group_crystal_system       triclinic
_cell_length_a                    10.834359
_cell_length_b                    10.811368
_cell_length_c                    9.687403
_cell_angle_alpha                 90.988941
_cell_angle_beta                  91.714786
_cell_angle_gamma                 97.74145
_cell_volume                      1123.62150534

loop_
_atom_site_label
_atom_site_type_symbol
_atom_site_description
_atom_site_fract_x
_atom_site_fract_y
_atom_site_fract_z
_atom_type_partial_charge
O1    O     O_R   0.499990 0.319640 0.618810 -0.603692
O2    O     O_R   0.500000 0.319660 0.381240 -0.573204
C1    C     C_R   0.501511 0.261979 0.500164 0.770735
O3    O     O_R   0.317680 0.499970 0.618790 -0.601190
O4    O     O_R   0.317700 0.499990 0.381210 -0.588677
C2    C     C_R   0.260063 0.486731 0.497948 0.759649
Cu1   Cu    Cu3+1 0.499990 0.499990 0.640660 1.004207
Cu2   Cu    Cu3+1 0.500010 0.500010 0.359340 0.988518
O5    O     O_R   0.500000 0.680340 0.618760 -0.550574
O6    O     O_R   0.500010 0.680360 0.381190 -0.578853
O7    O     O_R   0.682300 0.500010 0.618790 -0.529119
O8    O     O_R   0.682320 0.500030 0.381210 -0.615044
C3    C     C_R   0.482625 0.733869 0.501010 0.882391
C4    C     C_R   0.740779 0.500283 0.501026 0.848417
C5    C     C_3   0.069305 0.432639 0.633886 -0.400663
H1    H     H_    0.121580 0.481949 0.723750 0.230591
H2    H     H_    0.082192 0.332785 0.644414 0.152458
C6    C     C_3   0.929708 0.445793 0.640373 0.228191
H3    H     H_    0.878883 0.350012 0.653339 0.106346
H4    H     H_    0.134409 0.673204 0.572463 0.229388
C7    C     C_3   0.097240 0.618723 0.478384 -0.427074
C8    C     C_3   0.052587 0.399890 0.375186 -0.173228
C9    C     C_3   0.122431 0.482641 0.495223 -0.010089
H5    H     H_    0.079510 0.442842 0.274969 0.168822
C10   C     C_3   0.879944 0.495806 0.500429 -0.113580
C11   C     C_3   0.956961 0.622219 0.452739 0.210258
C12   C     C_3   0.908409 0.396282 0.389305 -0.522486
H6    H     H_    0.863296 0.301667 0.417448 0.198940
H7    H     H_    0.867227 0.414816 0.286291 0.221284
H8    H     H_    0.148425 0.662668 0.389724 0.161606
H9    H     H_    0.943525 0.624339 0.338283 0.107935
H10   H     H_    0.446696 0.101781 0.284606 0.180159
C13   C     C_R   0.545386 0.118927 0.757216 -0.211502
H11   H     H_    0.605498 0.207294 0.760700 0.190463
C14   C     C_R   0.523148 0.059418 0.882335 -0.073044
C15   C     C_R   0.454851 0.939092 0.882988 0.390832
C16   C     C_R   0.420197 0.877020 0.756726 -0.176124
H12   H     H_    0.371503 0.782916 0.758286 0.184394
C17   C     C_R   0.456361 0.932582 0.630967 0.080654
C18   C     C_R   0.498961 0.061183 0.630598 0.096840
C19   C     C_R   0.494188 0.125296 0.503485 -0.102340
C20   C     C_R   0.460703 0.056179 0.381164 -0.137809
H13   H     H_    0.426333 0.874734 0.286587 0.237980
C21   C     C_R   0.446531 0.926783 0.381864 -0.132307
C22   C     C_R   0.456192 0.864198 0.505425 -0.129751
H14   H     H_    0.342589 0.364411 0.119654 0.124069
C23   C     C_R   0.683801 0.652036 0.160872 -0.059145
H15   H     H_    0.676545 0.672726 0.267367 0.240909
C24   C     C_R   0.791012 0.707923 0.104112 -0.274313
H16   H     H_    0.864358 0.760312 0.167631 0.210304
C25   C     C_R   0.797128 0.712013 0.964185 -0.018557
H17   H     H_    0.873166 0.774810 0.923236 0.222604
C26   C     C_R   0.693178 0.667011 0.879447 0.401568
C27   C     C_R   0.592069 0.580325 0.932550 0.095737
C28   C     C_R   0.591040 0.576351 0.081610 0.215056
N1    N     N_R   0.501200 0.501210 0.147910 -0.195083
C29   C     C_R   0.413691 0.425721 0.068933 -0.009783
H18   H     H_    0.343457 0.363425 0.863827 0.128998
C30   C     C_R   0.414054 0.425244 0.921763 -0.029320
N2    N     N_R   0.501250 0.501290 0.852040 -0.202824
C31   C     C_1   0.575074 0.122849 0.007518 0.322212
N3    N     N_1   0.618094 0.174669 0.106725 -0.257092
N4    N     N_R   0.443165 0.869865 0.007468 0.080274
O9    O     O_R   0.542451 0.864726 0.084784 -0.389316
O10   O     O_R   0.344797 0.789045 0.025077 -0.384538
N5    N     N_R   0.679764 0.750360 0.770419 0.125754
O11   O     O_R   0.730675 0.729592 0.655485 -0.284824
O12   O     O_R   0.679240 0.867086 0.804065 -0.369643
N6    N     N_R   0.908057 0.519384 0.762889 0.134738
O13   O     O_R   0.978079 0.624898 0.789708 -0.347963
O14   O     O_R   0.847282 0.463064 0.862970 -0.404129
N7    N     N_R   0.918824 0.739183 0.504712 0.174960
O15   O     O_R   0.979023 0.802002 0.607505 -0.275159
O16   O     O_R   0.847783 0.797796 0.425605 -0.366438
C32   C     C_1   0.087196 0.272363 0.371498 0.257159
N8    N     N_1   0.114552 0.172519 0.368668 -0.246926

loop_
_geom_bond_atom_site_label_1
_geom_bond_atom_site_label_2
_geom_bond_distance
_ccdc_geom_bond_type
C5    C6    1.541106 S    
N5    O12   1.298724 A    
C7    C11   1.538254 S    
N4    O10   1.301370 A    
C12   H7    1.113311 S    
C11   N7    1.467835 S    
C19   C20   1.401722 A    
C14   C15   1.407519 A    
H13   C21   1.073891 S    
Cu2   N1    2.048888 S    
Cu1   Cu2   2.725270 S    
C23   C24   1.370137 A    
C27   N2    1.418161 A    
C26   C27   1.454909 A    
Cu1   O7    1.992807 S    
C15   C16   1.401328 A    
O4    C2    1.308875 A    
O7    C4    1.321287 A    
C29   C30   1.425739 A    
C5    H1    1.111740 S    
N1    C29   1.370000 A    
C5    H2    1.113060 S    
C6    H3    1.116383 S    
N6    O14   1.301876 A    
O5    C3    1.307980 A    
C24   C25   1.360317 A    
C15   N4    1.430081 S    
C17   C22   1.412146 A    
C6    N6    1.459802 S    
C5    C9    1.554177 S    
N5    O11   1.286792 A    
C30   N2    1.368488 A    
C31   N3    1.157152 T    
C6    C10   1.575143 S    
C20   C21   1.386793 A    
C8    C32   1.476886 S    
O3    Cu1   1.980199 S    
C13   C18   1.413974 A    
C25   H17   1.084043 S    
N7    O16   1.301584 A    
C17   C18   1.404814 A    
H18   C30   1.081823 S    
C25   C26   1.400803 A    
C32   N8    1.157358 T    
C16   H12   1.081691 S    
C23   H15   1.059322 S    
Cu2   O8    1.980199 S    
C28   N1    1.364662 A    
C13   H11   1.080729 S    
C14   C31   1.443591 S    
C26   N5    1.416901 S    
O3    C2    1.306514 A    
C18   C19   1.426453 A    
O8    C4    1.305301 A    
C8    C12   1.567439 S    
C7    C9    1.542541 S    
H14   C29   1.081927 S    
C8    H5    1.113230 S    
Cu1   N2    2.047154 S    
C21   C22   1.393235 A    
C23   C28   1.407039 A    
Cu1   O5    1.964962 S    
C27   C28   1.445712 A    
C1    C19   1.470115 S    
O1    Cu1   1.957650 S    
O2    Cu2   1.964962 S    
N7    O15   1.302569 A    
O6    C3    1.317853 A    
O4    Cu2   1.992807 S    
C10   C12   1.575121 S    
C7    H8    1.114701 S    
O2    C1    1.320157 A    
C10   C11   1.585941 S    
C16   C17   1.410311 A    
C3    C22   1.475330 S    
C2    C9    1.485270 S    
C13   C14   1.394189 A    
C4    C10   1.515224 S    
N6    O13   1.299679 A    
N4    O9    1.300207 A    
C11   H9    1.115002 S    
H4    C7    1.111450 S    
Cu2   O6    1.957651 S    
C24   H16   1.080909 S    
C12   H6    1.114670 S    
H10   C20   1.081041 S    
C8    C9    1.566610 S    
O1    C1    1.299662 A    
