data_mof_unit_13861.cif
_audit_creation_date              2012-12-10T17:31:05-0500
_audit_creation_method            fapswitch 2.2
_symmetry_space_group_name_H-M    P1
_symmetry_Int_Tables_number       1
_space_group_crystal_system       triclinic
_cell_length_a                    12.107564
_cell_length_b                    12.770947
_cell_length_c                    15.531753
_cell_angle_alpha                 85.391295
_cell_angle_beta                  115.56879
_cell_angle_gamma                 95.608253
_cell_volume                      2154.08458026

loop_
_atom_site_label
_atom_site_type_symbol
_atom_type_description
_atom_site_fract_x
_atom_site_fract_y
_atom_site_fract_z
_atom_type_partial_charge
C1    C     C_R   0.474899 0.299507 0.497433 0.912893
C2    C     C_R   0.591350 0.976097 0.432069 0.484532
C3    C     C_R   0.388746 0.131694 0.539587 -0.263783
C4    C     C_R   0.596810 0.867545 0.446893 -0.272601
C5    C     C_R   0.516867 0.135677 0.454319 -0.240351
C6    C     C_R   0.477426 0.865083 0.538911 -0.257918
C7    C     C_R   0.523283 0.027943 0.467570 0.012529
C8    C     C_R   0.463453 0.971562 0.519674 -0.025839
C9    C     C_R   0.010252 0.603343 0.408884 -0.076291
C10   C     C_R   0.973183 0.376763 0.564394 -0.053476
C11   C     C_R   0.129478 0.591227 0.419188 -0.120805
C12   C     C_R   0.524485 0.700566 0.501709 0.907002
C13   C     C_R   0.858760 0.393304 0.561561 -0.118285
C14   C     C_R   0.156674 0.454556 0.537689 0.077170
C15   C     C_R   0.848392 0.553594 0.471061 0.075471
C16   C     C_R   0.576332 0.496625 0.679875 0.867866
C17   C     C_R   0.424007 0.505280 0.320109 0.866250
C18   C     C_R   0.031537 0.455261 0.523538 0.024802
C19   C     C_R   0.962035 0.538775 0.466659 0.001839
C20   C     C_R   0.625085 0.502134 0.783239 -0.063493
C21   C     C_R   0.380018 0.519962 0.217015 -0.058054
C22   C     C_R   0.783767 0.476808 0.943036 -0.196857
C23   C     C_R   0.652445 0.501444 0.114107 -0.151868
C24   C     C_R   0.244843 0.597359 0.065115 -0.194686
C25   C     C_R   0.744934 0.477389 0.844484 -0.187601
C26   C     C_R   0.270793 0.567340 0.159858 -0.196413
C27   C     C_R   0.547621 0.532317 0.820473 -0.226989
C28   C     C_R   0.459439 0.498953 0.178410 -0.243525
C29   C     C_R   0.584378 0.533109 0.918643 0.093410
C30   C     C_R   0.442056 0.537974 0.087489 0.101836
C31   C     C_R   0.702793 0.500829 0.980392 0.157214
C32   C     C_R   0.330688 0.584542 0.028974 0.167550
C33   C     C_R   0.502390 0.556970 0.956189 0.066527
C34   C     C_R   0.391300 0.604958 0.899599 -0.169464
C35   C     C_R   0.532367 0.531082 0.053539 0.054204
C36   C     C_2   0.938964 0.676782 0.329697 0.416879
C37   C     C_2   0.017368 0.270357 0.599329 0.413104
C38   C     C_3   0.217174 0.916933 0.532429 0.072546
C39   C     C_3   0.109573 0.985667 0.502488 -0.785297
C40   C     C_3   0.766255 0.049442 0.425168 0.087628
C41   C     C_3   0.815279 0.119037 0.363412 -0.776664
C42   C     C_2   0.788242 0.652627 0.435657 0.514370
C43   C     C_2   0.244914 0.394827 0.619872 0.512061
C44   C     C_R   0.737073 0.489343 0.078144 -0.203712
C45   C     C_R   0.307525 0.619111 0.935946 -0.213869
C46   C     C_R   0.539718 0.813077 0.499956 -0.122991
C47   C     C_R   0.455848 0.187292 0.494593 -0.155797
C48   C     C_R   0.389445 0.022769 0.550379 0.536544
H1    H     H_    0.827945 0.466444 0.126657 0.152614
H2    H     H_    0.160065 0.633912 0.021252 0.141936
H3    H     H_    0.685181 0.489658 0.190373 0.177307
H4    H     H_    0.368470 0.635986 0.827739 0.152719
H5    H     H_    0.434777 0.820758 0.580509 0.190807
H6    H     H_    0.564846 0.180802 0.416987 0.201604
H7    H     H_    0.639171 0.825820 0.412525 0.189678
H8    H     H_    0.340162 0.172659 0.569603 0.186350
H9    H     H_    0.984012 0.749659 0.315929 0.061175
H10   H     H_    0.995962 0.228002 0.654316 0.066200
H11   H     H_    0.197410 0.843720 0.568527 0.183885
H12   H     H_    0.223884 0.656655 0.890762 0.153958
H13   H     H_    0.223473 0.891993 0.467517 0.120335
H14   H     H_    0.124910 0.058653 0.464056 0.255965
H15   H     H_    0.023930 0.941972 0.454110 0.220180
H16   H     H_    0.098910 0.006795 0.566329 0.287713
H17   H     H_    0.813365 0.974689 0.444625 0.182400
H18   H     H_    0.787931 0.091734 0.491309 0.134736
H19   H     H_    0.771145 0.195050 0.344450 0.250828
H20   H     H_    0.915857 0.135229 0.402740 0.244923
H21   H     H_    0.795743 0.079014 0.296941 0.259896
H22   H     H_    0.693013 0.651800 0.384272 0.099983
H23   H     H_    0.814599 0.334219 0.592548 0.140703
H24   H     H_    0.308674 0.347911 0.611440 0.104637
H25   H     H_    0.165866 0.638786 0.375071 0.134523
H26   H     H_    0.536300 0.453371 0.221910 0.152312
H27   H     H_    0.455561 0.549206 0.771356 0.181341
H28   H     H_    0.207897 0.583925 0.188963 0.154816
H29   H     H_    0.806814 0.455379 0.816425 0.162138
H30   H     H_    0.875252 0.453961 0.989879 0.141133
N1    N     N_R   0.799120 0.480200 0.517090 -0.138334
N2    N     N_R   0.200880 0.519800 0.482910 -0.140713
O1    O     O_R   0.580150 0.341050 0.504560 -0.623210
O2    O     O_2   0.070542 0.226108 0.562950 -0.626846
O3    O     O_3   0.326499 0.968845 0.598478 -0.617240
O4    O     O_3   0.638564 0.029170 0.372803 -0.615246
O5    O     O_2   0.845510 0.736607 0.463935 -0.635408
O6    O     O_2   0.248035 0.398880 0.699196 -0.607901
O7    O     O_R   0.419850 0.658950 0.495440 -0.622963
O8    O     O_R   0.388090 0.353760 0.493600 -0.638177
O9    O     O_R   0.611910 0.646240 0.506400 -0.627327
O10   O     O_R   0.650890 0.490020 0.640860 -0.607276
O11   O     O_R   0.349110 0.509980 0.359140 -0.611995
O12   O     O_R   0.458830 0.502730 0.629890 -0.641976
O13   O     O_R   0.541170 0.497270 0.370110 -0.642243
O14   O     O_2   0.832603 0.653644 0.275118 -0.607263
Zn1   Zn    Zn3+2 0.628240 0.491510 0.507320 0.938793
Zn2   Zn    Zn3+2 0.371760 0.508490 0.492680 0.930937

loop_
_geom_bond_atom_site_label_1
_geom_bond_atom_site_label_2
_ccdc_geom_bond_type
C44   H1    S    
C21   C26   A    
O8    Zn2   S    
C45   H12   S    
C16   O10   A    
C43   H24   S    
C38   O3    S    
C27   C29   A    
C32   C45   A    
C40   O4    S    
C2    O4    S    
C2    C7    A    
C17   O11   A    
C42   H22   S    
C28   H26   S    
C8    C48   A    
C7    C8    A    
C41   H19   S    
C4    C46   A    
C15   C19   A    
C39   H16   S    
C5    C47   A    
C30   C35   A    
C10   C37   S    
C25   H29   S    
C41   H21   S    
C24   C26   A    
C38   C39   S    
O1    Zn1   S    
C20   C25   A    
C1    O1    A    
C29   C33   A    
C3    C48   A    
O12   Zn2   S    
C13   N1    A    
C18   C19   A    
C14   C18   A    
O11   Zn2   S    
C9    C19   A    
C15   N1    A    
C22   C25   A    
C9    C36   S    
C26   H28   S    
C14   N2    A    
N2    Zn2   S    
C37   H10   S    
C38   H13   S    
C31   C44   A    
C1    O8    A    
O13   Zn1   S    
C40   H18   S    
C27   H27   S    
C41   H20   S    
C24   H2    S    
C22   C31   A    
C12   O9    A    
O10   Zn1   S    
C22   H30   S    
C12   C46   S    
C36   H9    S    
C11   H25   S    
C34   C45   A    
C1    C47   S    
C6    C8    A    
C13   H23   S    
C17   C21   S    
C23   C44   A    
O9    Zn1   S    
C2    C4    A    
C24   C32   A    
N1    Zn1   S    
C3    H8    S    
C5    H6    S    
C23   H3    S    
C16   C20   S    
O7    Zn2   S    
C33   C34   A    
C42   O5    D    
C9    C11   A    
C40   C41   S    
C21   C28   A    
C16   O12   A    
C23   C35   A    
C40   H17   S    
C4    H7    S    
C37   O2    D    
C17   O13   A    
C6    H5    S    
C5    C7    A    
C39   H14   S    
C6    C46   A    
C12   O7    A    
C43   O6    D    
C15   C42   S    
C10   C13   A    
C20   C27   A    
C39   H15   S    
C34   H4    S    
C48   O3    S    
C28   C30   A    
C29   C31   A    
C30   C32   A    
C10   C18   A    
C3    C47   A    
C33   C35   A    
C11   N2    A    
C38   H11   S    
C36   O14   D    
C14   C43   S    
