data_mof_unit_6125.cif
_audit_creation_date              2012-12-11T16:17:51-0500
_audit_creation_method            fapswitch 2.2
_symmetry_space_group_name_H-M    P1
_symmetry_Int_Tables_number       1
_space_group_crystal_system       triclinic
_cell_length_a                    14.034673
_cell_length_b                    14.052408
_cell_length_c                    30.111979
_cell_angle_alpha                 96.914294
_cell_angle_beta                  96.972153
_cell_angle_gamma                 61.361186
_cell_volume                      5160.41348269

loop_
_atom_site_label
_atom_site_type_symbol
_atom_type_description
_atom_site_fract_x
_atom_site_fract_y
_atom_site_fract_z
_atom_type_partial_charge
C1    C     C_R   0.386006 0.710651 0.442196 0.541888
C2    C     C_R   0.798353 0.267301 0.377782 0.044876
C3    C     C_R   0.812258 0.251906 0.331516 -0.116374
C4    C     C_R   0.398907 0.381361 0.426422 0.542524
C5    C     C_R   0.792293 0.339392 0.307384 0.009080
C6    C     C_R   0.764521 0.441259 0.329110 -0.112786
C7    C     C_R   0.748885 0.458382 0.374495 -0.150022
C8    C     C_R   0.777597 0.403244 0.148310 0.056625
C9    C     C_R   0.812183 0.392233 0.104654 0.024686
C10   C     C_R   0.929855 0.198323 0.113183 -0.146267
C11   C     C_R   0.897751 0.209680 0.155876 -0.138848
C12   C     C_R   0.330642 0.241598 0.223491 -0.093562
C13   C     C_R   0.825435 0.311377 0.174126 -0.010826
C14   C     C_1   0.808873 0.319335 0.220623 0.034386
C15   C     C_1   0.800612 0.326257 0.260126 0.020524
C16   C     C_R   0.710170 0.405834 0.442417 0.575493
C17   C     C_R   0.892167 0.289083 0.087996 -0.019866
C18   C     C_R   0.365532 0.769997 0.402111 -0.001649
C19   C     C_R   0.450698 0.779876 0.386490 -0.107825
C20   C     C_R   0.441840 0.811307 0.343119 0.110358
C21   C     C_R   0.345586 0.835226 0.315907 0.068126
C22   C     C_R   0.257442 0.834327 0.332670 -0.131673
C23   C     C_R   0.338966 0.250669 0.270312 -0.096544
C24   C     C_R   0.267157 0.802016 0.375609 -0.131990
C25   C     C_R   0.247884 0.842521 0.154900 0.050195
C26   C     C_R   0.233718 0.860700 0.108901 0.045119
C27   C     C_R   0.395691 0.886609 0.116599 0.056186
C28   C     C_R   0.389710 0.711358 0.568288 0.548995
C29   C     C_R   0.408124 0.870976 0.162576 0.042020
C30   C     C_R   0.331437 0.854312 0.181783 -0.035775
C31   C     C_1   0.337616 0.851322 0.229523 0.023218
C32   C     C_1   0.341059 0.847016 0.269178 0.034380
C33   C     C_R   0.301295 0.893119 0.090602 -0.009372
C34   C     C_R   0.325328 0.348551 0.293242 0.036817
C35   C     C_R   0.364342 0.361942 0.592020 0.064582
C36   C     C_R   0.424648 0.259476 0.609762 -0.138598
C37   C     C_R   0.410686 0.244900 0.652974 -0.090498
C38   C     C_R   0.334622 0.331908 0.678392 0.021298
C39   C     C_R   0.266726 0.430775 0.659781 -0.113668
C40   C     C_R   0.401960 0.383093 0.552383 0.562322
C41   C     C_R   0.280452 0.446879 0.616617 0.088394
C42   C     C_R   0.213646 0.365551 0.825595 -0.119016
C43   C     C_R   0.202061 0.356589 0.869691 -0.142774
C44   C     C_R   0.399454 0.269575 0.885350 0.027078
C45   C     C_R   0.309226 0.330140 0.199494 0.038146
C46   C     C_R   0.409594 0.278149 0.840331 -0.093194
C47   C     C_R   0.317154 0.322727 0.810592 0.032511
C48   C     C_1   0.327126 0.322239 0.764090 0.031570
C49   C     C_1   0.331521 0.324078 0.724813 0.014179
C50   C     C_R   0.294164 0.303738 0.899393 0.010526
C51   C     C_1   0.762193 0.375943 0.612430 0.031545
C52   C     C_R   0.713114 0.407651 0.568493 0.560420
C53   C     C_R   0.858928 0.389108 0.725804 -0.132662
C54   C     C_R   0.878547 0.374926 0.771494 -0.132114
C55   C     C_R   0.809252 0.243654 0.762134 0.047482
C56   C     C_1   0.299816 0.319141 0.151432 -0.029241
C57   C     C_R   0.791755 0.256119 0.715121 0.055544
C58   C     C_R   0.815792 0.330763 0.697493 -0.005995
C59   C     C_R   0.853424 0.303753 0.789969 -0.008580
C60   C     C_1   0.877261 0.292682 0.837598 0.001138
C61   C     C_1   0.791483 0.353289 0.650775 -0.001244
C62   C     C_1   0.905416 0.282783 0.876906 0.037482
C63   C     C_1   0.375452 0.758422 0.613527 -0.003435
C64   C     C_1   0.365189 0.364548 0.380790 0.002674
C65   C     C_R   0.318344 0.754174 0.723189 -0.098967
C66   C     C_R   0.309723 0.773862 0.769403 -0.120786
C67   C     C_1   0.343774 0.355558 0.341135 -0.044113
C68   C     C_R   0.376830 0.905783 0.770971 0.068395
C69   C     C_R   0.384242 0.885214 0.724147 -0.104772
C70   C     C_R   0.354747 0.810269 0.700417 0.012598
C71   C     C_R   0.338112 0.849325 0.793589 0.016951
C72   C     C_1   0.316674 0.874616 0.840414 0.016282
C73   C     C_1   0.365440 0.786574 0.652861 -0.045789
C74   C     C_1   0.294256 0.903347 0.878831 0.049054
C75   C     C_R   0.949593 0.273042 0.047705 0.569447
C76   C     C_R   0.302921 0.437479 0.269251 -0.096818
C77   C     C_R   0.275272 0.269887 0.065479 0.556884
C78   C     C_1   0.290212 0.302026 0.111493 0.019295
C79   C     C_R   0.261820 0.952118 0.048659 0.568833
C80   C     C_R   0.952248 0.269216 0.922122 0.561786
C81   C     C_R   0.276934 0.267141 0.940051 0.578388
C82   C     C_R   0.261543 0.951087 0.922837 0.555565
C83   C     C_R   0.294627 0.428374 0.222376 -0.093176
C84   C     C_2   0.175287 0.812128 0.175141 0.571594
C85   C     C_2   0.483016 0.894286 0.096395 0.647199
C86   C     C_2   0.498889 0.225961 0.916607 0.590047
C87   C     C_2   0.776859 0.172614 0.782274 0.614135
C88   C     C_2   0.753762 0.188124 0.684217 0.607037
C89   C     C_R   0.760035 0.373786 0.399002 0.008016
C90   C     C_2   0.409841 0.986010 0.794833 0.572900
C91   C     C_2   0.767761 0.487777 0.077255 0.634162
C92   C     C_2   0.689529 0.508278 0.166152 0.617598
C93   C     C_2   0.826396 0.171369 0.402841 0.584678
Cr1   Cr    Cr6+3 0.581000 0.584320 0.508140 1.031575
Cr2   Cr    Cr6+3 0.339110 0.576430 0.496080 1.055562
Cr3   Cr    Cr6+3 0.579910 0.339270 0.495810 1.076702
Cr4   Cr    Cr6+3 0.082090 0.079210 0.982490 1.078687
Cr5   Cr    Cr6+3 0.082460 0.324610 0.994920 1.069060
Cr6   Cr    Cr6+3 0.323630 0.087860 0.996130 1.111144
H1    H     H_    0.293601 0.513150 0.286774 0.126037
H2    H     H_    0.141798 0.401452 0.802656 0.115985
H3    H     H_    0.206514 0.497475 0.679576 0.108658
H4    H     H_    0.487523 0.192266 0.591331 0.130929
H5    H     H_    0.489255 0.249091 0.828226 0.169945
H6    H     H_    0.462660 0.167576 0.667262 0.153491
H7    H     H_    0.877255 0.446329 0.712472 0.127691
H8    H     H_    0.341550 0.165376 0.205978 0.129850
H9    H     H_    0.912921 0.420595 0.792699 0.123248
H10   H     H_    0.296079 0.695345 0.705124 0.118570
H11   H     H_    0.279145 0.731179 0.786268 0.128190
H12   H     H_    0.933343 0.139152 0.175521 0.153912
H13   H     H_    0.413937 0.926745 0.706068 0.150566
H14   H     H_    0.357621 0.181128 0.288552 0.126372
H15   H     H_    0.750894 0.508792 0.310588 0.152429
H16   H     H_    0.720512 0.540515 0.389556 0.139370
H17   H     H_    0.075290 0.902312 0.089765 0.269554
H18   H     H_    0.163294 0.766536 0.083420 0.257491
H19   H     H_    0.162908 0.716117 0.216401 0.335446
H20   H     H_    0.470676 0.934318 0.214875 0.242458
H21   H     H_    0.543258 0.797655 0.204624 0.259986
H22   H     H_    0.584847 0.959201 0.100508 0.345147
H23   H     H_    0.990853 0.118745 0.101162 0.151290
H24   H     H_    0.563605 0.748386 0.301602 0.241090
H25   H     H_    0.594068 0.800183 0.351011 0.231311
H26   H     H_    0.223867 0.609561 0.621212 0.232294
H27   H     H_    0.131877 0.568396 0.599046 0.228138
H28   H     H_    0.565158 0.222921 0.980125 0.352392
H29   H     H_    0.664110 0.123281 0.784340 0.357794
H30   H     H_    0.657953 0.179272 0.630145 0.336268
H31   H     H_    0.457579 0.043864 0.853053 0.354808
H32   H     H_    0.725516 0.646135 0.074951 0.370742
H33   H     H_    0.539686 0.634189 0.155021 0.344131
H34   H     H_    0.838586 0.172037 0.314225 0.152289
H35   H     H_    0.882126 0.098676 0.461180 0.338390
H36   H     H_    0.183292 0.852575 0.311576 0.138797
H37   H     H_    0.200137 0.795707 0.386896 0.151675
H38   H     H_    0.526814 0.756130 0.406740 0.124586
H39   H     H_    0.277633 0.497257 0.204064 0.151214
H40   H     H_    0.120630 0.383831 0.879447 0.143378
N1    N     N_3   0.152401 0.844454 0.080191 -0.568125
N2    N     N_3   0.499663 0.871503 0.189592 -0.549653
N3    N     N_3   0.531755 0.813519 0.325770 -0.620383
N4    N     N_3   0.213109 0.551274 0.599275 -0.585468
O1    O     O_R   0.688580 0.499770 0.460490 -0.526617
O2    O     O_R   0.346150 0.177650 0.050510 -0.483019
O3    O     O_R   0.314200 0.996600 0.036060 -0.482154
O4    O     O_R   0.480400 0.672610 0.462660 -0.507975
O5    O     O_R   0.168690 0.969990 0.933130 -0.498826
O6    O     O_R   0.991920 0.175870 0.937430 -0.475409
O7    O     O_R   0.974010 0.342590 0.941330 -0.505157
O8    O     O_R   0.182630 0.317940 0.955040 -0.511192
O9    O     O_R   0.347320 0.174720 0.953250 -0.468687
O10   O     O_R   0.315290 0.993890 0.945900 -0.472027
O11   O     O_3   0.162730 0.163890 0.991180 -0.285007
O12   O     O_R   0.348600 0.476260 0.536540 -0.457417
O13   O     O_R   0.315310 0.685650 0.451800 -0.509776
O14   O     O_R   0.346220 0.474990 0.446280 -0.498341
O15   O     O_R   0.492270 0.312460 0.441630 -0.496685
O16   O     O_R   0.669740 0.350480 0.455640 -0.460907
O17   O     O_R   0.691150 0.501150 0.557860 -0.509491
O18   O     O_R   0.482790 0.673890 0.552920 -0.493071
O19   O     O_R   0.317880 0.687030 0.549170 -0.492524
O20   O     O_2   0.076715 0.860695 0.166811 -0.533188
O21   O     O_R   0.220171 0.728521 0.204361 -0.706941
O22   O     O_2   0.517920 0.841321 0.061323 -0.498251
O23   O     O_R   0.494840 0.313840 0.539010 -0.520204
O24   O     O_R   0.525965 0.961047 0.117595 -0.653534
O25   O     O_2   0.587701 0.164824 0.902137 -0.498545
O26   O     O_R   0.491830 0.257458 0.962463 -0.666942
O27   O     O_2   0.836958 0.112560 0.811145 -0.482888
O28   O     O_R   0.676936 0.175168 0.768331 -0.672148
O29   O     O_2   0.793813 0.090718 0.688688 -0.486595
O30   O     O_R   0.673509 0.234901 0.649675 -0.690177
O31   O     O_2   0.417028 0.051033 0.773633 -0.532637
O32   O     O_R   0.435163 0.986342 0.841198 -0.682321
O33   O     O_2   0.741482 0.478981 0.037343 -0.474586
O34   O     O_R   0.672120 0.351750 0.545910 -0.471167
O35   O     O_R   0.756511 0.587565 0.097045 -0.647671
O36   O     O_2   0.699465 0.544490 0.204444 -0.528478
O37   O     O_R   0.594417 0.565077 0.139057 -0.653707
O38   O     O_2   0.818983 0.093062 0.383695 -0.516860
O39   O     O_R   0.865095 0.168642 0.447967 -0.687108
O40   O     O_3   0.500010 0.500010 0.500010 -0.263911
O41   O     O_R   0.167510 0.972920 0.030390 -0.479211
O42   O     O_R   0.990840 0.178580 0.027590 -0.504480
O43   O     O_R   0.972840 0.345510 0.038590 -0.477749
O44   O     O_R   0.181550 0.320660 0.045200 -0.495841

loop_
_geom_bond_atom_site_label_1
_geom_bond_atom_site_label_2
_ccdc_geom_bond_type
C52   O17   A    
Cr3   O15   S    
Cr5   O11   S    
C8    C13   A    
C88   O29   D    
C55   C59   A    
C27   C29   A    
C86   O26   S    
C35   C36   A    
C51   C61   T    
H25   N3    S    
C9    C91   S    
C28   O19   A    
C39   C41   A    
C38   C49   S    
C45   C83   A    
C77   C78   S    
C27   C33   A    
Cr4   O42   S    
C12   C23   A    
H19   O21   S    
C1    C18   S    
Cr5   O44   S    
C39   H3    S    
C36   H4    S    
C18   C24   A    
C62   C80   S    
C36   C37   A    
C16   O1    A    
C74   C82   S    
C41   N4    S    
C26   N1    S    
C30   C31   S    
C69   H13   S    
C10   C17   A    
C65   C70   A    
C7    C89   A    
C91   O35   S    
H27   N4    S    
C25   C30   A    
C56   C78   T    
C79   O41   A    
C60   C62   T    
C18   C19   A    
C7    H16   S    
C27   C85   S    
C52   O34   A    
C6    H15   S    
C92   O37   S    
C82   O10   A    
C93   O38   D    
C53   H7    S    
C4    O15   A    
C47   C48   S    
C45   C56   S    
C8    C9    A    
C25   C84   S    
C68   C90   S    
C40   O12   A    
C43   H40   S    
C8    C92   S    
Cr3   O34   S    
C29   C30   A    
C40   O23   A    
C84   O21   S    
Cr5   O8    S    
C1    O13   A    
C24   H37   S    
C58   C61   S    
Cr6   O2    S    
C87   O28   S    
C59   C60   S    
C13   C14   S    
C16   O16   A    
H30   O30   S    
C75   O42   A    
H35   O39   S    
C44   C86   S    
C76   C83   A    
C42   C47   A    
H32   O35   S    
C44   C46   A    
C28   O18   A    
C79   O3    A    
C54   C59   A    
C2    C93   S    
C80   O6    A    
H22   O24   S    
C21   C32   S    
C11   H12   S    
C51   C52   S    
C85   O24   S    
C64   C67   T    
C20   N3    S    
C86   O25   D    
C72   C74   T    
Cr2   O19   S    
C68   C69   A    
Cr6   O11   S    
C63   C73   T    
C3    C5    A    
C25   C26   A    
C53   C54   A    
C87   O27   D    
C46   H5    S    
C90   O32   S    
C66   H11   S    
C88   O30   S    
C3    H34   S    
C38   C39   A    
C2    C89   A    
C80   O7    A    
C66   C71   A    
C37   H6    S    
C37   C38   A    
C92   O36   D    
C23   H14   S    
C93   O39   S    
C26   C33   A    
C4    O14   A    
C19   H38   S    
C23   C34   A    
C29   N2    S    
C70   C73   S    
Cr4   O11   S    
Cr2   O13   S    
Cr1   O18   S    
C65   H10   S    
C84   O20   D    
H33   O37   S    
C9    C17   A    
C48   C49   T    
Cr6   O3    S    
C55   C57   A    
C77   O44   A    
Cr4   O5    S    
C22   C24   A    
C1    O4    A    
H18   N1    S    
C76   H1    S    
C42   C43   A    
Cr3   O40   S    
C42   H2    S    
C77   O2    A    
Cr4   O41   S    
Cr5   O7    S    
C44   C50   A    
Cr1   O4    S    
C90   O31   D    
C46   C47   A    
Cr1   O17   S    
Cr2   O14   S    
C31   C32   T    
C33   C79   S    
H21   N2    S    
C12   C45   A    
C10   H23   S    
C34   C67   S    
C12   H8    S    
C82   O5    A    
C53   C58   A    
C43   C50   A    
C6    C7    A    
H31   O32   S    
H28   O26   S    
C81   O9    A    
Cr6   O9    S    
C4    C64   S    
C57   C88   S    
C54   H9    S    
C22   H36   S    
Cr1   O1    S    
C19   C20   A    
C2    C3    A    
C85   O22   D    
C71   C72   S    
Cr5   O43   S    
C81   O8    A    
C11   C13   A    
Cr2   O40   S    
C57   C58   A    
C5    C6    A    
H26   N4    S    
C68   C71   A    
H20   N2    S    
Cr6   O10   S    
H24   N3    S    
C91   O33   D    
C35   C40   S    
Cr3   O23   S    
Cr2   O12   S    
C55   C87   S    
C69   C70   A    
C35   C41   A    
C5    C15   S    
C10   C11   A    
C75   O43   A    
C28   C63   S    
C16   C89   S    
Cr3   O16   S    
C20   C21   A    
H29   O28   S    
C65   C66   A    
Cr1   O40   S    
C17   C75   S    
Cr4   O6    S    
C14   C15   T    
C21   C22   A    
C83   H39   S    
C50   C81   S    
C34   C76   A    
H17   N1    S    
