data_mof_unit_40509.cif
_audit_creation_date              2012-10-26T20:19:14-0400
_audit_creation_method            fapswitch 2.2
_symmetry_space_group_name_H-M    P1
_symmetry_Int_Tables_number       1
_space_group_crystal_system       triclinic
_cell_length_a                    15.048002
_cell_length_b                    12.987298
_cell_length_c                    11.781013
_cell_angle_alpha                 99.80081
_cell_angle_beta                  91.810956
_cell_angle_gamma                 91.983653
_cell_volume                      2265.79151723

loop_
_atom_site_label
_atom_site_type_symbol
_atom_type_description
_atom_site_fract_x
_atom_site_fract_y
_atom_site_fract_z
_atom_type_partial_charge
Br1   Br    Br    0.108039 0.345132 0.782512 -0.479080
Br2   Br    Br    0.891382 0.653840 0.217448 -0.546070
C1    C     C_R   0.496118 0.299385 0.478583 0.568944
C2    C     C_R   0.556481 0.876293 0.629019 0.137143
C3    C     C_R   0.528700 0.139634 0.553037 -0.170014
C4    C     C_R   0.471887 0.860595 0.447076 -0.143290
C5    C     C_R   0.523228 0.031648 0.548063 0.000698
C6    C     C_R   0.477564 0.968592 0.452516 0.043755
C7    C     C_R   0.402993 0.418655 0.030408 -0.154679
C8    C     C_R   0.597045 0.581283 0.969579 -0.155353
C9    C     C_R   0.413763 0.424474 0.150037 0.026468
C10   C     C_R   0.586261 0.575484 0.849954 0.021112
C11   C     C_R   0.544986 0.531786 0.151188 0.243529
C12   C     C_R   0.503919 0.700602 0.521417 0.564426
C13   C     C_R   0.455029 0.468192 0.848809 0.240824
C14   C     C_R   0.535786 0.528693 0.030564 0.030193
C15   C     C_R   0.464243 0.471261 0.969428 0.028614
C16   C     C_R   0.329006 0.500270 0.501690 0.544575
C17   C     C_R   0.670991 0.499638 0.498302 0.544766
C18   C     C_R   0.813387 0.544374 0.416143 -0.107365
C19   C     C_R   0.186680 0.455106 0.583891 -0.115332
C20   C     C_R   0.767569 0.497494 0.495972 -0.012704
C21   C     C_R   0.232425 0.502094 0.504008 -0.026583
C22   C     C_R   0.813771 0.451591 0.577633 -0.129164
C23   C     C_R   0.047044 0.407358 0.665738 0.219469
C24   C     C_R   0.186046 0.547739 0.422271 -0.101526
C25   C     C_R   0.906733 0.451678 0.580742 -0.008514
C26   C     C_R   0.093148 0.547366 0.419424 0.036272
C27   C     C_R   0.953294 0.498904 0.498997 -0.002043
C28   C     C_R   0.046620 0.500214 0.501065 -0.011737
C29   C     C_R   0.906337 0.545194 0.415510 0.022823
C30   C     C_R   0.093707 0.454057 0.584443 0.001708
C31   C     C_R   0.953973 0.406041 0.664039 0.125680
C32   C     C_R   0.046539 0.592852 0.336178 0.117837
C33   C     C_R   0.953084 0.591826 0.334051 0.170171
C34   C     C_R   0.510545 0.814342 0.533944 -0.002100
C35   C     C_R   0.489716 0.185601 0.466100 0.022890
C36   C     C_R   0.438002 0.014214 0.363981 0.110146
C37   C     C_R   0.562647 0.985157 0.636582 0.108025
C38   C     C_R   0.443695 0.123512 0.371117 0.103751
Cu1   Cu    Cu3+1 0.506660 0.507730 0.615930 0.953417
Cu2   Cu    Cu3+1 0.493340 0.492270 0.384070 0.960778
H1    H     H_    0.775823 0.583021 0.357617 0.166390
H2    H     H_    0.366007 0.383806 0.195032 0.154785
H3    H     H_    0.866822 0.296717 0.705740 0.230582
H4    H     H_    0.870834 0.413768 0.797499 0.241092
H5    H     H_    0.075120 0.601640 0.170839 0.283336
H6    H     H_    0.078884 0.718429 0.262024 0.273525
H7    H     H_    0.572938 0.858042 0.795699 0.254689
H8    H     H_    0.667168 0.848876 0.719966 0.251124
H9    H     H_    0.332626 0.152835 0.281203 0.229995
H10   H     H_    0.426811 0.143364 0.204495 0.233711
H11   H     H_    0.421860 0.960964 0.191882 0.239482
H12   H     H_    0.224245 0.416576 0.642542 0.163575
H13   H     H_    0.325717 0.970801 0.264442 0.241648
H14   H     H_    0.662928 0.087676 0.705728 0.236826
H15   H     H_    0.566387 0.099080 0.778291 0.237306
H16   H     H_    0.332235 0.471964 0.777738 0.259827
H17   H     H_    0.392074 0.366369 0.716236 0.277244
H18   H     H_    0.607926 0.633626 0.283766 0.279042
H19   H     H_    0.667786 0.528050 0.222275 0.258935
H20   H     H_    0.346612 0.372982 0.986526 0.166928
H21   H     H_    0.653439 0.626933 0.013455 0.168694
H22   H     H_    0.776072 0.415799 0.638407 0.123308
H23   H     H_    0.223201 0.583723 0.360985 0.172523
H24   H     H_    0.436582 0.811372 0.375043 0.180906
H25   H     H_    0.563895 0.189416 0.624545 0.133391
H26   H     H_    0.634026 0.616138 0.804957 0.153473
N1    N     N_R   0.516670 0.519360 0.790130 -0.225055
N2    N     N_3   0.623047 0.584481 0.208280 -0.616507
N3    N     N_R   0.483330 0.480640 0.209870 -0.224729
N4    N     N_3   0.908783 0.358004 0.748308 -0.556484
N5    N     N_3   0.094841 0.639857 0.253653 -0.626727
N6    N     N_3   0.599209 0.828316 0.716205 -0.594647
N7    N     N_3   0.400785 0.171980 0.284402 -0.612753
N8    N     N_3   0.391876 0.949205 0.267710 -0.645007
N9    N     N_3   0.609758 0.046336 0.734527 -0.639791
N10   N     N_3   0.376960 0.415515 0.791725 -0.620744
O1    O     O_R   0.504720 0.354460 0.582000 -0.533529
O2    O     O_R   0.495280 0.645540 0.418000 -0.529998
O3    O     O_R   0.493480 0.341410 0.386200 -0.455452
O4    O     O_R   0.506520 0.658590 0.613800 -0.456048
O5    O     O_R   0.375880 0.506510 0.597910 -0.518987
O6    O     O_R   0.624120 0.493490 0.402090 -0.521619
O7    O     O_R   0.364640 0.493450 0.402110 -0.507542
O8    O     O_R   0.635360 0.506550 0.597890 -0.509175

loop_
_geom_bond_atom_site_label_1
_geom_bond_atom_site_label_2
_ccdc_geom_bond_type
Br2   C33   S    
H19   N2    S    
C28   C30   A    
C10   N1    A    
C2    C34   A    
Cu2   O2    S    
C3    C35   A    
C25   C27   A    
Cu1   Cu2   S    
C8    H21   S    
C22   C25   A    
C3    H25   S    
H10   N7    S    
C1    O1    A    
C5    C6    A    
C36   N8    S    
C25   C31   A    
Cu1   O8    S    
C10   H26   S    
C37   N9    S    
H9    N7    S    
C35   C38   A    
H8    N6    S    
C12   C34   S    
C19   H12   S    
C9    N3    A    
C13   N10   S    
C11   N2    S    
Cu1   O5    S    
C32   C33   A    
C21   C24   A    
C31   N4    S    
C14   C15   A    
C1    O3    A    
C12   O2    A    
H4    N4    S    
C17   O8    A    
C23   C30   A    
C26   C32   A    
C22   H22   S    
H3    N4    S    
Br1   C23   S    
Cu2   O3    S    
C6    C36   A    
H17   N10   S    
C13   N1    A    
C19   C30   A    
C16   O7    A    
C7    H20   S    
H15   N9    S    
C17   C20   S    
Cu2   O6    S    
H5    N5    S    
C3    C5    A    
C4    C6    A    
C11   N3    A    
H14   N9    S    
C16   C21   S    
C27   C28   A    
C2    C37   A    
H18   N2    S    
C16   O5    A    
C9    H2    S    
Cu2   O7    S    
C7    C9    A    
C8    C10   A    
H13   N8    S    
C7    C15   A    
C18   C20   A    
C19   C21   A    
C20   C22   A    
H11   N8    S    
C12   O4    A    
C17   O6    A    
C18   H1    S    
Cu1   N1    S    
C13   C15   A    
C24   H23   S    
C2    N6    S    
H6    N5    S    
Cu1   O1    S    
C24   C26   A    
C38   N7    S    
C26   C28   A    
C27   C29   A    
C8    C14   A    
C36   C38   A    
Cu1   O4    S    
Cu2   N3    S    
C4    C34   A    
C29   C33   A    
H16   N10   S    
C32   N5    S    
C4    H24   S    
C1    C35   S    
C11   C14   A    
C5    C37   A    
H7    N6    S    
C23   C31   A    
C18   C29   A    
