data_mof_unit_27108.cif
_audit_creation_date              2013-03-05T16:33:14-0500
_audit_creation_method            fapswitch 2.2
_symmetry_space_group_name_H-M    P1
_symmetry_Int_Tables_number       1
_space_group_crystal_system       triclinic
_cell_length_a                    27.821206
_cell_length_b                    10.85607
_cell_length_c                    9.563506
_cell_angle_alpha                 90.53956
_cell_angle_beta                  89.320245
_cell_angle_gamma                 91.760017
_cell_volume                      2886.77149934

loop_
_atom_site_label
_atom_site_type_symbol
_atom_site_description
_atom_site_fract_x
_atom_site_fract_y
_atom_site_fract_z
_atom_type_partial_charge
O1    O     O_R   0.500000 0.319640 0.618810 -0.581494
O2    O     O_R   0.500010 0.319680 0.381230 -0.547513
C1    C     C_R   0.500096 0.261862 0.498859 0.815959
O3    O     O_R   0.430260 0.500000 0.618780 -0.610517
O4    O     O_R   0.430270 0.500040 0.381190 -0.588212
C2    C     C_R   0.407493 0.499208 0.500747 0.784315
Cu1   Cu    Cu3+1 0.500000 0.499980 0.640670 0.947879
Cu2   Cu    Cu3+1 0.500000 0.500020 0.359330 0.954216
O5    O     O_R   0.499990 0.680320 0.618770 -0.563225
O6    O     O_R   0.500000 0.680360 0.381190 -0.582836
O7    O     O_R   0.569730 0.499960 0.618810 -0.599730
O8    O     O_R   0.569740 0.500000 0.381220 -0.571696
C3    C     C_R   0.502283 0.737319 0.500679 0.828870
C4    C     C_R   0.592549 0.498802 0.499326 0.783578
C5    C     C_R   0.176795 0.388082 0.548089 0.546046
O9    O     O_2   0.200915 0.285203 0.574916 -0.496478
N1    N     N_R   0.202061 0.492913 0.510712 -0.474009
C6    C     C_R   0.179360 0.598671 0.479171 0.559180
C7    C     C_R   0.278682 0.501507 0.380119 -0.101144
C8    C     C_R   0.328838 0.503380 0.377565 -0.218996
C9    C     C_R   0.329123 0.488030 0.630552 -0.215113
C10   C     C_R   0.279003 0.485845 0.632750 -0.114140
C11   C     C_R   0.253623 0.492874 0.507687 0.351591
C12   C     C_R   0.101962 0.494948 0.520253 -0.114718
C13   C     C_R   0.126046 0.387122 0.556682 -0.099969
C14   C     C_R   0.098896 0.282411 0.600804 0.489069
C15   C     C_R   0.129043 0.601569 0.482917 -0.066264
C16   C     C_R   0.354530 0.497036 0.502896 -0.037113
H1    H     H_    0.347905 0.482604 0.728745 0.165736
H2    H     H_    0.259805 0.479443 0.731720 0.132314
C17   C     C_R   0.645581 0.496307 0.498271 -0.042713
C18   C     C_R   0.972852 0.393254 0.568886 0.071769
C19   C     C_R   0.976578 0.598245 0.460400 0.039040
C20   C     C_R   0.949476 0.495394 0.512293 0.061748
C21   C     C_R   0.944192 0.297166 0.628970 -0.210968
C22   C     C_R   0.894305 0.298370 0.625898 -0.145982
C23   C     C_R   0.871021 0.395508 0.563477 -0.020996
C24   C     C_R   0.898464 0.494266 0.506500 -0.050669
C25   C     C_R   0.874840 0.591623 0.443121 -0.011390
C26   C     C_R   0.824354 0.590095 0.441268 0.532119
N2    N     N_R   0.798305 0.493510 0.498250 -0.465449
C27   C     C_R   0.820662 0.396490 0.557395 0.534852
C28   C     C_R   0.721787 0.496554 0.371295 -0.101734
C29   C     C_R   0.671649 0.497727 0.371480 -0.214103
C30   C     C_R   0.670739 0.491844 0.624605 -0.236825
C31   C     C_R   0.720797 0.492185 0.624410 -0.113148
C32   C     C_R   0.746644 0.494510 0.497844 0.347233
O10   O     O_2   0.794231 0.300680 0.609208 -0.541941
C33   C     C_R   0.023844 0.390347 0.563279 0.013166
C34   C     C_R   0.050897 0.496512 0.520775 0.005685
C35   C     C_R   0.027313 0.604298 0.478639 -0.050252
C36   C     C_R   0.048684 0.283875 0.598063 -0.310240
H3    H     H_    0.653454 0.499077 0.272416 0.150245
H4    H     H_    0.741344 0.496843 0.272717 0.146920
H5    H     H_    0.874027 0.222388 0.672998 0.187828
H6    H     H_    0.959188 0.220734 0.682586 0.137357
H7    H     H_    0.029978 0.198147 0.620441 0.132329
O11   O     O_2   0.205521 0.701112 0.445327 -0.536931
C37   C     C_R   0.105626 0.710452 0.455654 -0.233045
H8    H     H_    0.347429 0.510187 0.277671 0.158904
H9    H     H_    0.259229 0.506785 0.283057 0.137452
H10   H     H_    0.126033 0.795040 0.434651 0.206409
C38   C     C_R   0.951976 0.688966 0.386878 -0.172553
C39   C     C_R   0.902058 0.686996 0.380910 -0.186377
O12   O     O_2   0.801498 0.685181 0.384700 -0.547943
C40   C     C_R   0.055560 0.714724 0.461099 0.427153
H11   H     H_    0.970547 0.760039 0.327564 0.206855
H12   H     H_    0.651928 0.488031 0.723886 0.148397
H13   H     H_    0.884907 0.760044 0.325576 0.190869
H14   H     H_    0.739563 0.490677 0.722910 0.149034
C41   C     C_R   0.506479 0.065122 0.622785 0.073881
C42   C     C_R   0.504175 0.128030 0.496091 -0.220597
C43   C     C_R   0.509714 0.059369 0.369548 0.467896
C44   C     C_R   0.516067 0.932377 0.375580 -0.303151
H15   H     H_    0.521407 0.881735 0.278799 0.183548
C45   C     C_R   0.508873 0.869986 0.501509 -0.191445
C46   C     C_R   0.507711 0.938357 0.625204 0.137916
C47   C     C_3   0.474778 0.928139 0.748661 -0.440725
C48   C     C_3   0.473355 0.067742 0.747009 -0.425162
H16   H     H_    0.439683 0.881859 0.723501 0.197134
H17   H     H_    0.493107 0.891927 0.841464 0.234529
H18   H     H_    0.437332 0.102479 0.721522 0.206895
H19   H     H_    0.490817 0.111766 0.839525 0.238293
C49   C     C_R   0.522085 0.594055 0.073416 0.158923
N3    N     N_R   0.500300 0.500930 0.147930 -0.213829
C50   C     C_R   0.471559 0.420313 0.076818 -0.041312
H20   H     H_    0.447914 0.358728 0.135109 0.138328
C51   C     C_R   0.471769 0.417473 0.929016 0.441168
N4    N     N_R   0.500310 0.500890 0.852020 -0.262750
C52   C     C_R   0.521476 0.595434 0.926598 0.163679
C53   C     C_3   0.572519 0.641389 0.918579 0.267467
C54   C     C_3   0.573422 0.636221 0.077705 -0.505331
H21   H     H_    0.596666 0.574483 0.867291 0.082339
H22   H     H_    0.597045 0.563868 0.116413 0.166328
H23   H     H_    0.578164 0.727766 0.129687 0.212740
O13   O     O_3   0.034928 0.828761 0.452900 -0.631314
C55   C     C_3   0.039309 0.892385 0.582345 0.065860
H24   H     H_    0.039590 0.992294 0.559565 0.185893
H25   H     H_    0.073686 0.875602 0.636999 0.137823
C56   C     C_3   0.996261 0.861417 0.678599 -0.359210
H26   H     H_    0.962347 0.881196 0.623954 0.238038
H27   H     H_    0.995853 0.761920 0.704758 0.221472
C57   C     C_3   0.998637 0.936381 0.814224 -0.921508
H28   H     H_    0.032236 0.917721 0.870895 0.255829
H29   H     H_    0.967418 0.910483 0.882339 0.268436
H30   H     H_    0.997427 0.036337 0.791834 0.240421
O14   O     O_3   0.508704 0.112678 0.238862 -0.590255
C58   C     C_3   0.460935 0.108995 0.187773 0.073808
H31   H     H_    0.461580 0.164360 0.091257 0.194713
H32   H     H_    0.435516 0.152252 0.263159 0.125792
C59   C     C_3   0.442300 0.979132 0.145208 -0.411773
H33   H     H_    0.469871 0.933176 0.080012 0.232355
H34   H     H_    0.434581 0.922884 0.239627 0.221552
C60   C     C_3   0.395700 0.984619 0.063103 -0.863806
H35   H     H_    0.367183 0.026644 0.128513 0.261431
H36   H     H_    0.383537 0.889890 0.032491 0.256696
H37   H     H_    0.401283 0.039813 0.966876 0.270929
O15   O     O_3   0.442557 0.327567 0.869579 -0.791961
H38   H     H_    0.437375 0.346946 0.771722 0.375891
O16   O     O_3   0.575078 0.764996 0.872088 -0.600320
C61   C     C_3   0.611559 0.783006 0.769620 0.091699
H39   H     H_    0.604843 0.871518 0.717016 0.169909
H40   H     H_    0.609940 0.710796 0.686585 0.135605
C62   C     C_3   0.661538 0.792127 0.835733 -0.396979
H41   H     H_    0.661628 0.862870 0.920510 0.244644
H42   H     H_    0.670419 0.702262 0.882016 0.205502
C63   C     C_3   0.700127 0.827341 0.727305 -0.841964
H43   H     H_    0.700161 0.759188 0.640002 0.266529
H44   H     H_    0.736026 0.829303 0.776908 0.263595
H45   H     H_    0.693557 0.920132 0.684835 0.264310
O17   O     O_3   0.121294 0.174653 0.636004 -0.567830
C64   C     C_3   0.113638 0.147831 0.779590 0.054236
H46   H     H_    0.118948 0.047674 0.793199 0.165564
H47   H     H_    0.076335 0.164969 0.816797 0.118602
C65   C     C_3   0.150049 0.219224 0.871112 -0.328221
H48   H     H_    0.187139 0.195778 0.838348 0.258976
H49   H     H_    0.145881 0.319905 0.857887 0.204743
C66   C     C_3   0.142878 0.188028 0.025377 -0.886623
H50   H     H_    0.106293 0.212925 0.061353 0.259089
H51   H     H_    0.169760 0.240837 0.088759 0.263235
H52   H     H_    0.147682 0.088058 0.042124 0.264138

loop_
_geom_bond_atom_site_label_1
_geom_bond_atom_site_label_2
_geom_bond_distance
_ccdc_geom_bond_type
C65   C66   1.526212 S    
N2    C27   1.369663 A    
C7    C8    1.394862 A    
C12   C15   1.408100 A    
C4    C17   1.476429 S    
C48   H18   1.112111 S    
C41   C48   1.495468 S    
C60   H35   1.110845 S    
C65   H48   1.111176 S    
C46   C47   1.488756 S    
Cu1   O7    1.948743 S    
C25   C39   1.397194 A    
N1    C11   1.434490 S    
C44   C45   1.396617 A    
C40   O13   1.383773 S    
C22   C23   1.396792 A    
C37   C40   1.395424 A    
N3    C50   1.351487 A    
O4    C2    1.300627 A    
O7    C4    1.300738 A    
C47   H16   1.112102 S    
C43   O14   1.383184 S    
C5    O9    1.348730 S    
Cu1   N4    2.021298 S    
C58   H31   1.105871 S    
N1    C6    1.365145 A    
Cu2   N3    2.021760 S    
C43   C44   1.397114 A    
C23   C27   1.403302 A    
O5    C3    1.292849 A    
O15   H38   0.974502 S    
C61   C62   1.534354 S    
C65   H49   1.111235 S    
C29   H3    1.079863 S    
C6    O11   1.350094 S    
C2    C16   1.472850 S    
C21   C22   1.389044 A    
C64   H46   1.110853 S    
O14   C58   1.420669 S    
C8    H8    1.082998 S    
C19   C38   1.413763 A    
C20   C24   1.420612 A    
C9    C10   1.393787 A    
C59   C60   1.526668 S    
C49   C52   1.404624 A    
C53   O16   1.417046 S    
O3    Cu1   1.953989 S    
C56   H27   1.110718 S    
C55   H25   1.116008 S    
C55   H24   1.108058 S    
C45   C46   1.391190 A    
C12   C34   1.421262 A    
C38   H11   1.077419 S    
C31   H14   1.082931 S    
C17   C29   1.405457 A    
C18   C21   1.415431 A    
Cu1   Cu2   2.690600 S    
C49   N3    1.364886 A    
O3    C2    1.300743 A    
C44   H15   1.083117 S    
C53   C54   1.523901 S    
C47   C48   1.517501 S    
C8    C16   1.406130 A    
C34   C35   1.422819 A    
C13   C14   1.410504 A    
C30   C31   1.392522 A    
C9    H1    1.083035 S    
O6    C3    1.295471 A    
C56   C57   1.525727 S    
O1    C1    1.302263 A    
C35   C40   1.423230 A    
C18   C20   1.417515 A    
C7    C11   1.400417 A    
C28   C29   1.395343 A    
C63   H44   1.110310 S    
C23   C24   1.407180 A    
C14   C36   1.398099 A    
C53   H21   1.111267 S    
C28   H4    1.082862 S    
C3    C45   1.446219 S    
Cu2   O8    1.953984 S    
C33   C36   1.409267 A    
O13   C55   1.416600 S    
C30   H12   1.079233 S    
C54   H22   1.108566 S    
C19   C20   1.418238 A    
N2    C32   1.437697 S    
C59   H34   1.109996 S    
C27   O10   1.349881 S    
C39   H13   1.083391 S    
C12   C13   1.414908 A    
C61   H39   1.110711 S    
C66   H51   1.110542 S    
C62   C63   1.526374 S    
Cu2   O6    1.966954 S    
C26   N2    1.369782 A    
C9    C16   1.406126 A    
O8    C4    1.302465 A    
C26   O12   1.349657 S    
C57   H29   1.110313 S    
C51   O15   1.374038 S    
O17   C64   1.418659 S    
C41   C46   1.378060 A    
C55   C56   1.532851 S    
O16   C61   1.412981 S    
C50   H20   1.077872 S    
C62   H42   1.110968 S    
Cu1   O5    1.970923 S    
C31   C32   1.400603 A    
C37   H10   1.083844 S    
C10   H2    1.083002 S    
C59   H33   1.110102 S    
C21   H6    1.076940 S    
O1    Cu1   1.966955 S    
O2    Cu2   1.970925 S    
C6    C15   1.401219 A    
C42   C43   1.424627 A    
C66   H52   1.110877 S    
O4    Cu2   1.948746 S    
C60   H36   1.110452 S    
C5    N1    1.367342 A    
C36   H7    1.074314 S    
C19   C35   1.423739 A    
C58   C59   1.539918 S    
O2    C1    1.293420 A    
C63   H45   1.110818 S    
C41   C42   1.399536 A    
C22   H5    1.083489 S    
C15   C37   1.395269 A    
C48   H19   1.111405 S    
C47   H17   1.109915 S    
C52   C53   1.491976 S    
C24   C25   1.407345 A    
C7    H9    1.082895 S    
C64   C65   1.533953 S    
C56   H26   1.111632 S    
C58   H32   1.114610 S    
C1    C42   1.460750 S    
C57   H30   1.109632 S    
C50   C51   1.413506 A    
C54   H23   1.111947 S    
C18   C33   1.420356 A    
C61   H40   1.110901 S    
C60   H37   1.109654 S    
C5    C13   1.413019 A    
C66   H50   1.110966 S    
C38   C39   1.390117 A    
C25   C26   1.404495 A    
C51   N4    1.395467 A    
C64   H47   1.113616 S    
C33   C34   1.417163 A    
C17   C30   1.405427 A    
C57   H28   1.110979 S    
C10   C11   1.399985 A    
C49   C54   1.487278 S    
N4    C52   1.366733 A    
C28   C32   1.401694 A    
C14   O17   1.388270 S    
C63   H43   1.110354 S    
C62   H41   1.111474 S    
