data_mof_unit_10856.cif
_audit_creation_date              2013-03-05T15:40:57-0500
_audit_creation_method            fapswitch 2.2
_symmetry_space_group_name_H-M    P1
_symmetry_Int_Tables_number       1
_space_group_crystal_system       triclinic
_cell_length_a                    7.855588
_cell_length_b                    8.56597
_cell_length_c                    13.803258
_cell_angle_alpha                 93.761823
_cell_angle_beta                  93.10428
_cell_angle_gamma                 94.177157
_cell_volume                      922.745894389

loop_
_atom_site_label
_atom_site_type_symbol
_atom_site_description
_atom_site_fract_x
_atom_site_fract_y
_atom_site_fract_z
_atom_type_partial_charge
O1    O     O_R   0.891570 0.738930 0.506190 -0.609893
O2    O     O_R   0.108430 0.261070 0.493810 -0.609892
O3    O     O_R   0.174650 0.711050 0.490030 -0.553920
O4    O     O_R   0.825350 0.288950 0.509970 -0.553922
C1    C     C_R   0.045070 0.794592 0.497615 0.921960
C2    C     C_R   0.954930 0.205407 0.502385 0.921956
O5    O     O_R   0.909850 0.521900 0.644940 -0.574381
O6    O     O_R   0.090150 0.478100 0.355060 -0.574379
O7    O     O_R   0.192930 0.494020 0.628780 -0.573754
O8    O     O_R   0.807070 0.505980 0.371220 -0.573751
C3    C     C_R   0.063197 0.512573 0.681881 0.843998
C4    C     C_R   0.936804 0.487427 0.318119 0.844002
Zn1   Zn    Zn3+2 0.810990 0.518620 0.510790 1.185120
Zn2   Zn    Zn3+2 0.189010 0.481380 0.489210 1.185120
C5    C     C_R   0.096206 0.535185 0.786311 -0.065787
C6    C     C_R   0.903795 0.464815 0.213689 -0.065773
C7    C     C_R   0.061301 0.675022 0.940403 -0.177733
C8    C     C_R   0.938694 0.324970 0.059598 -0.177732
C9    C     C_R   0.006102 0.637868 0.843489 -0.170689
C10   C     C_R   0.993893 0.362124 0.156512 -0.170688
C11   C     C_R   0.237725 0.469584 0.826005 -0.166490
C12   C     C_R   0.762284 0.530424 0.173993 -0.166495
C13   C     C_R   0.311626 0.526010 0.916659 0.108336
C14   C     C_R   0.688379 0.473996 0.083341 0.108338
C15   C     C_R   0.213945 0.619520 0.977350 0.106936
C16   C     C_R   0.786055 0.380479 0.022651 0.106938
C17   C     C_R   0.475976 0.486295 0.949663 -0.086428
C18   C     C_R   0.524029 0.513712 0.050338 -0.086432
C19   C     C_R   0.405793 0.579552 0.114013 0.282555
C20   C     C_R   0.594211 0.420454 0.885988 0.282553
C21   C     C_R   0.262746 0.646111 0.075396 -0.278169
C22   C     C_R   0.737253 0.353889 0.924605 -0.278173
H1    H     H_    0.178659 0.703440 0.123824 0.181460
H2    H     H_    0.821337 0.296556 0.876176 0.181455
H3    H     H_    0.709102 0.623381 0.216443 0.176400
H4    H     H_    0.290911 0.376632 0.783553 0.176415
H5    H     H_    0.104777 0.310208 0.186706 0.199310
H6    H     H_    0.895212 0.689778 0.813296 0.199324
H7    H     H_    0.986703 0.748501 0.985840 0.148021
H8    H     H_    0.013288 0.251485 0.014163 0.148023
C23   C     C_2   0.068463 0.958332 0.496167 -0.338867
C24   C     C_2   0.931537 0.041667 0.503833 -0.338869
H9    H     H_    0.197479 0.009703 0.488799 0.223886
H10   H     H_    0.802521 0.990297 0.511201 0.223886
N1    N     N_2   0.440860 0.456490 0.474790 0.308083
N2    N     N_2   0.559140 0.543510 0.525210 0.308082
N3    N     N_R   0.413684 0.559356 0.216476 0.181724
O9    O     O_R   0.437007 0.421751 0.247233 -0.351374
O10   O     O_R   0.373554 0.670956 0.277688 -0.395230
N4    N     N_R   0.586325 0.440657 0.783526 0.181721
O11   O     O_R   0.626406 0.329039 0.722310 -0.395228
O12   O     O_R   0.563030 0.578268 0.752772 -0.351382
F1    F     F_    0.495251 0.325886 0.432713 -0.525085
F2    F     F_    0.504748 0.674113 0.567288 -0.525084

loop_
_geom_bond_atom_site_label_1
_geom_bond_atom_site_label_2
_geom_bond_distance
_ccdc_geom_bond_type
C15   C21   1.386020 A    
O5    Zn1   1.966459 S    
N4    O12   1.300725 A    
O7    Zn2   1.920902 S    
C21   H1    1.084593 S    
C16   C22   1.386019 A    
C12   H3    1.079652 S    
C9    H6    1.082433 S    
C13   C17   1.418006 A    
N3    O10   1.301505 A    
C23   H9    1.087760 S    
C23   C24   1.338671 D    
N3    O9    1.300726 A    
C8    C16   1.404496 A    
C6    C10   1.399173 A    
O6    C4    1.292419 A    
C7    C15   1.404499 A    
N2    F2    1.335195 S    
C13   C15   1.415387 A    
N4    O11   1.301520 A    
C20   N4    1.434662 S    
N1    F1    1.335195 S    
C19   C21   1.392937 A    
C11   H4    1.079656 S    
N1    N2    1.290087 D    
C17   C20   1.432805 A    
C20   C22   1.392932 A    
C10   H5    1.082430 S    
O7    C3    1.300132 A    
O2    C2    1.278469 A    
O3    Zn2   1.978093 S    
C24   H10   1.087761 S    
C19   N3    1.434668 S    
O1    C1    1.278469 A    
O8    C4    1.300134 A    
C18   C19   1.432810 A    
C7    C9    1.392855 A    
C14   C16   1.415388 A    
O5    C3    1.292421 A    
Zn2   N1    2.024301 S    
C8    C10   1.392855 A    
C11   C13   1.391952 A    
C7    H7    1.083818 S    
Zn1   N2    2.024301 S    
O2    Zn2   1.952480 S    
C12   C14   1.391949 A    
O1    Zn1   1.952481 S    
C14   C18   1.418006 A    
C5    C11   1.384672 A    
O4    C2    1.291159 A    
C2    C24   1.402840 S    
C17   C18   1.419936 A    
C1    C23   1.402840 S    
C8    H8    1.083817 S    
O6    Zn2   1.966460 S    
C5    C9    1.399173 A    
C3    C5    1.448506 S    
C4    C6    1.448506 S    
O4    Zn1   1.978092 S    
C6    C12   1.384670 A    
O3    C1    1.291159 A    
O8    Zn1   1.920904 S    
C22   H2    1.084592 S    
