data_mof_unit_38772.cif
_audit_creation_date              2012-12-10T17:21:18-0500
_audit_creation_method            fapswitch 2.2
_symmetry_space_group_name_H-M    P1
_symmetry_Int_Tables_number       1
_space_group_crystal_system       triclinic
_cell_length_a                    9.737463
_cell_length_b                    10.828539
_cell_length_c                    13.78158
_cell_angle_alpha                 91.900989
_cell_angle_beta                  85.831291
_cell_angle_gamma                 88.198587
_cell_volume                      1447.68669192

loop_
_atom_site_label
_atom_site_type_symbol
_atom_type_description
_atom_site_fract_x
_atom_site_fract_y
_atom_site_fract_z
_atom_type_partial_charge
C1    C     C_R   0.498085 0.738932 0.498367 0.830357
C2    C     C_1   0.469102 0.525381 0.785093 -0.092428
C3    C     C_R   0.250042 0.899969 0.575907 0.234428
C4    C     C_R   0.172949 0.946242 0.660680 0.070302
C5    C     C_R   0.215660 0.053830 0.708323 0.314709
C6    C     C_R   0.326140 0.118986 0.666146 0.285745
C7    C     C_R   0.401039 0.070341 0.581056 -0.143584
C8    C     C_R   0.381941 0.947061 0.551989 -0.087221
C9    C     C_R   0.495697 0.876954 0.503305 -0.173163
C10   C     C_R   0.622109 0.937686 0.482411 0.331239
C11   C     C_R   0.633288 0.062981 0.509354 0.277405
C12   C     C_R   0.478457 0.507311 0.682237 0.851764
C13   C     C_R   0.511111 0.131728 0.535515 -0.168128
C14   C     C_R   0.899515 0.369742 0.338734 0.289164
C15   C     C_R   0.994368 0.345494 0.256675 0.137312
C16   C     C_R   0.110757 0.415579 0.244756 0.110866
C17   C     C_R   0.143290 0.495158 0.321415 0.220776
C18   C     C_R   0.080820 0.477832 0.415155 0.022694
C19   C     C_R   0.938314 0.448161 0.420142 -0.009728
C20   C     C_R   0.916355 0.545688 0.577686 0.299818
C21   C     C_R   0.062333 0.528231 0.581898 0.298465
C22   C     C_R   0.501720 0.264524 0.513475 0.912249
C23   C     C_R   0.522002 0.500894 0.317601 0.873637
C24   C     C_1   0.536311 0.497412 0.214280 -0.148358
C25   C     C_2   0.552130 0.482511 0.023217 0.307227
C26   C     C_2   0.475241 0.560515 0.974130 0.254350
C27   C     C_1   0.468673 0.542411 0.871393 0.060573
C28   C     C_1   0.547313 0.491863 0.127108 0.038904
Cu1   Cu    Cu3+1 0.359340 0.500010 0.500010 0.999710
Cu2   Cu    Cu3+1 0.640660 0.499990 0.499990 1.018117
N1    N     N_R   0.852210 0.498790 0.499090 -0.197846
N2    N     N_R   0.148080 0.498710 0.499060 -0.199134
O1    O     O_R   0.381190 0.680360 0.500010 -0.542471
O2    O     O_R   0.618760 0.680340 0.500000 -0.558528
O3    O     O_R   0.364420 0.499990 0.637850 -0.536233
O4    O     O_R   0.601990 0.499960 0.637840 -0.589809
O5    O     O_R   0.381240 0.319660 0.500000 -0.580796
O6    O     O_R   0.618810 0.319640 0.499990 -0.516821
O7    O     O_R   0.398010 0.500040 0.362160 -0.590071
O8    O     O_R   0.635580 0.500010 0.362150 -0.512226
Cl1   Cl    Cl    0.381720 0.688225 0.031697 -0.650704
Cl2   Cl    Cl    0.756676 0.274986 0.334033 -0.633940
N3    N     N_2   0.970383 0.256694 0.181235 -0.374028
H1    H     H_    0.871377 0.252673 0.159795 0.319468
C29   C     C_3   0.039016 0.137463 0.189126 -0.501239
H2    H     H_    0.024172 0.078773 0.123370 0.252088
H3    H     H_    0.995467 0.090579 0.254240 0.210173
H4    H     H_    0.151376 0.148185 0.194392 0.236160
N4    N     N_2   0.192017 0.408394 0.154296 -0.393943
H5    H     H_    0.292922 0.430160 0.159024 0.256904
C30   C     C_3   0.131113 0.461878 0.071800 -0.515484
H6    H     H_    0.195210 0.434531 0.004117 0.244333
H7    H     H_    0.127116 0.564105 0.079599 0.232361
H8    H     H_    0.025567 0.429128 0.064020 0.251808
N5    N     N_2   0.182496 0.616599 0.297123 -0.389367
H9    H     H_    0.261890 0.618628 0.243599 0.281195
C31   C     C_3   0.066207 0.694227 0.273601 -0.619584
H10   H     H_    0.102477 0.782395 0.243870 0.236477
H11   H     H_    0.995989 0.712863 0.339748 0.274978
H12   H     H_    0.006718 0.648870 0.217530 0.225269
N6    N     N_2   0.118339 0.544376 0.673004 -0.405333
H13   H     H_    0.093799 0.626898 0.710203 0.261848
C32   C     C_3   0.114307 0.435455 0.731590 -0.516381
H14   H     H_    0.008040 0.413721 0.757099 0.210291
H15   H     H_    0.174542 0.450457 0.796052 0.245746
H16   H     H_    0.158794 0.354030 0.687967 0.264544
Cl3   Cl    Cl    0.651368 0.358609 0.964721 -0.561447
Cl4   Cl    Cl    0.766169 0.861432 0.418135 -0.690752
N7    N     N_2   0.181011 0.838314 0.501783 -0.359654
H17   H     H_    0.092450 0.794128 0.523697 0.281242
C33   C     C_3   0.172221 0.907377 0.413714 -0.650975
H18   H     H_    0.246265 0.865836 0.355924 0.264524
H19   H     H_    0.196951 0.006321 0.424530 0.210992
H20   H     H_    0.066081 0.906762 0.389948 0.237470
N8    N     N_2   0.065605 0.875443 0.704263 -0.439619
H21   H     H_    0.077692 0.859278 0.776538 0.299238
C34   C     C_3   0.926663 0.916824 0.688450 -0.582876
H22   H     H_    0.911751 0.017806 0.704191 0.266255
H23   H     H_    0.852333 0.868293 0.737463 0.237059
H24   H     H_    0.903392 0.893467 0.612724 0.252409
Cl5   Cl    Cl    0.130074 0.107694 0.819949 -0.543132
Cl6   Cl    Cl    0.397579 0.235416 0.736972 -0.591883
N9    N     N_2   0.757346 0.104620 0.547962 -0.416272
H25   H     H_    0.746060 0.167325 0.606289 0.272973
C35   C     C_3   0.885456 0.111206 0.488544 -0.541144
H26   H     H_    0.920446 0.207539 0.489842 0.214281
H27   H     H_    0.875925 0.079680 0.412373 0.286311
H28   H     H_    0.966296 0.054508 0.519766 0.216231
N10   N     N_2   0.842584 0.627237 0.648328 -0.439621
H29   H     H_    0.768072 0.683991 0.622946 0.295945
C36   C     C_3   0.812337 0.588054 0.747040 -0.622287
H30   H     H_    0.719625 0.640066 0.780064 0.218575
H31   H     H_    0.896149 0.611336 0.793742 0.226921
H32   H     H_    0.792413 0.487757 0.748503 0.262336

loop_
_geom_bond_atom_site_label_1
_geom_bond_atom_site_label_2
_ccdc_geom_bond_type
N5    H9    S    
C32   H15   S    
C6    Cl6   S    
C25   Cl3   S    
N3    H1    S    
C2    C12   S    
C1    O1    A    
C7    C8    A    
C34   H22   S    
C25   C28   S    
C26   C27   S    
C3    N7    S    
Cu1   N2    S    
C5    C6    A    
C31   H11   S    
C23   O8    A    
C22   O6    A    
Cu1   O1    S    
Cu2   O6    S    
N7    C33   S    
C18   C19   A    
N8    C34   S    
C4    N8    S    
C8    C9    A    
N4    C30   S    
C23   C24   S    
C2    C27   T    
C12   O4    A    
C9    C10   A    
C17   N5    S    
C21   N6    S    
C14   Cl2   S    
C29   H3    S    
C32   H16   S    
C19   N1    A    
N6    H13   S    
C1    O2    A    
C34   H23   S    
C21   N2    A    
Cu2   O2    S    
C35   H27   S    
C30   H6    S    
C1    C9    S    
C16   N4    S    
C3    C8    A    
C36   H30   S    
C33   H19   S    
C16   C17   A    
C31   H12   S    
C29   H4    S    
C11   N9    S    
C25   C26   D    
C35   H26   S    
C22   O5    A    
C30   H7    S    
N8    H21   S    
Cu1   Cu2   S    
C36   H31   S    
C5    Cl5   S    
N9    H25   S    
Cu1   O7    S    
N6    C32   S    
C17   C18   A    
Cu2   O8    S    
C12   O3    A    
N3    C29   S    
N9    C35   S    
N5    C31   S    
N10   C36   S    
C3    C4    A    
C35   H28   S    
C14   C19   A    
C24   C28   T    
C4    C5    A    
C33   H20   S    
C6    C7    A    
C10   Cl4   S    
C20   N10   S    
Cu1   O3    S    
Cu2   O4    S    
C30   H8    S    
C15   N3    S    
C33   H18   S    
C36   H32   S    
C11   C13   A    
C31   H10   S    
Cu2   N1    S    
C34   H24   S    
C23   O7    A    
C13   C22   S    
N7    H17   S    
C10   C11   A    
C32   H14   S    
C29   H2    S    
C7    C13   A    
C18   N2    A    
C20   C21   A    
N4    H5    S    
Cu1   O5    S    
C14   C15   A    
N10   H29   S    
C15   C16   A    
C26   Cl1   S    
C20   N1    A    
