data_mof_unit_64925.cif
_audit_creation_date              2012-12-10T19:34:49-0500
_audit_creation_method            fapswitch 2.2
_symmetry_space_group_name_H-M    P1
_symmetry_Int_Tables_number       1
_space_group_crystal_system       triclinic
_cell_length_a                    25.905733
_cell_length_b                    43.156283
_cell_length_c                    43.169996
_cell_angle_alpha                 89.991298
_cell_angle_beta                  89.975953
_cell_angle_gamma                 90.01992
_cell_volume                      48263.838198

loop_
_atom_site_label
_atom_site_type_symbol
_atom_type_description
_atom_site_fract_x
_atom_site_fract_y
_atom_site_fract_z
_atom_type_partial_charge
C1    C     C_R   0.610041 0.499599 0.249674 0.807949
C2    C     C_R   0.390040 0.499684 0.750317 0.830423
C3    C     C_R   0.389957 0.499602 0.249647 0.806688
C4    C     C_R   0.609967 0.499700 0.750331 0.827645
C5    C     C_R   0.109959 0.500387 0.750410 0.868699
C6    C     C_R   0.890043 0.499654 0.250340 0.830317
C7    C     C_R   0.890030 0.500318 0.750305 0.868574
C8    C     C_R   0.109964 0.499672 0.250352 0.827725
C9    C     C_R   0.110041 0.999600 0.249675 0.809008
C10   C     C_R   0.890043 0.999653 0.750342 0.831160
C11   C     C_R   0.889957 0.999601 0.249647 0.807782
C12   C     C_R   0.109963 0.999670 0.750354 0.827643
C13   C     C_R   0.610040 0.999598 0.749673 0.808955
C14   C     C_R   0.390041 0.999659 0.250339 0.830687
C15   C     C_R   0.389957 0.999601 0.749647 0.806598
C16   C     C_R   0.609962 0.999667 0.250354 0.828887
C17   C     C_R   0.763234 0.733723 0.222756 -0.254810
C18   C     C_R   0.237820 0.733784 0.776772 -0.262936
C19   C     C_R   0.295980 0.734130 0.246838 -0.263633
C20   C     C_R   0.702904 0.734017 0.752529 -0.257763
C21   C     C_R   0.263359 0.733729 0.722771 -0.256192
C22   C     C_R   0.737871 0.733785 0.276786 -0.261508
C23   C     C_R   0.795980 0.734125 0.746791 -0.265979
C24   C     C_R   0.202866 0.734019 0.252352 -0.257586
C25   C     C_R   0.263187 0.233726 0.222738 -0.254921
C26   C     C_R   0.741406 0.233873 0.777023 -0.258636
C27   C     C_R   0.796015 0.234127 0.246879 -0.263181
C28   C     C_R   0.203021 0.233916 0.751009 -0.259048
C29   C     C_R   0.759702 0.233675 0.721970 -0.256056
C30   C     C_R   0.237896 0.233783 0.276780 -0.260884
C31   C     C_R   0.296465 0.234074 0.748174 -0.261147
C32   C     C_R   0.702902 0.234019 0.252396 -0.257185
C33   C     C_R   0.750509 0.717403 0.249788 -0.081643
C34   C     C_R   0.250553 0.717404 0.749788 -0.081790
C35   C     C_R   0.249474 0.717642 0.249623 -0.080942
C36   C     C_R   0.749491 0.717640 0.749686 -0.081054
C37   C     C_R   0.250503 0.217403 0.249775 -0.081897
C38   C     C_R   0.750495 0.217415 0.749554 -0.081681
C39   C     C_R   0.749508 0.217641 0.249662 -0.081158
C40   C     C_R   0.249812 0.217579 0.749654 -0.082153
C41   C     C_R   0.750684 0.782513 0.249726 -0.200227
C42   C     C_R   0.250698 0.782515 0.749728 -0.199927
C43   C     C_R   0.249283 0.782753 0.249546 -0.199531
C44   C     C_R   0.749306 0.782751 0.749604 -0.198884
C45   C     C_R   0.250665 0.282513 0.249718 -0.200646
C46   C     C_R   0.750824 0.282510 0.749341 -0.202068
C47   C     C_R   0.749323 0.282752 0.249591 -0.199538
C48   C     C_R   0.249529 0.282677 0.749466 -0.204064
C49   C     C_R   0.775230 0.666926 0.273619 -0.160796
C50   C     C_R   0.225638 0.666916 0.726030 -0.170367
C51   C     C_R   0.217872 0.666981 0.270349 -0.164878
C52   C     C_R   0.781299 0.666983 0.729116 -0.169927
C53   C     C_R   0.275100 0.666920 0.773679 -0.161083
C54   C     C_R   0.725424 0.666917 0.226099 -0.167991
C55   C     C_R   0.718062 0.666973 0.770491 -0.165720
C56   C     C_R   0.281468 0.666976 0.229173 -0.168295
C57   C     C_R   0.275237 0.166927 0.273606 -0.160581
C58   C     C_R   0.723266 0.166875 0.726831 -0.168233
C59   C     C_R   0.717903 0.166977 0.270378 -0.164382
C60   C     C_R   0.282960 0.166932 0.729931 -0.167105
C61   C     C_R   0.777321 0.166961 0.772647 -0.159227
C62   C     C_R   0.225432 0.166913 0.226086 -0.167869
C63   C     C_R   0.216977 0.166978 0.769739 -0.163811
C64   C     C_R   0.781487 0.166978 0.229195 -0.168160
C65   C     C_R   0.775363 0.634622 0.273586 -0.167043
C66   C     C_R   0.225208 0.634611 0.726181 -0.196838
C67   C     C_R   0.217981 0.634680 0.270436 -0.163443
C68   C     C_R   0.781480 0.634683 0.729214 -0.197676
C69   C     C_R   0.275216 0.634616 0.773649 -0.168285
C70   C     C_R   0.725004 0.634612 0.226251 -0.187429
C71   C     C_R   0.718169 0.634672 0.770563 -0.166563
C72   C     C_R   0.281655 0.634676 0.229288 -0.191349
C73   C     C_R   0.275371 0.134623 0.273576 -0.166584
C74   C     C_R   0.722928 0.134579 0.727024 -0.188238
C75   C     C_R   0.718002 0.134677 0.270455 -0.164388
C76   C     C_R   0.283007 0.134637 0.730008 -0.191171
C77   C     C_R   0.777401 0.134661 0.772685 -0.166435
C78   C     C_R   0.225015 0.134608 0.226240 -0.189493
C79   C     C_R   0.217004 0.134682 0.769823 -0.162871
C80   C     C_R   0.781664 0.134678 0.229300 -0.190856
C81   C     C_R   0.750110 0.618192 0.249950 -0.011564
C82   C     C_R   0.250127 0.618190 0.749948 -0.006504
C83   C     C_R   0.249893 0.618236 0.249913 -0.016778
C84   C     C_R   0.749900 0.618236 0.749932 -0.012261
C85   C     C_R   0.250118 0.118192 0.249942 -0.010703
C86   C     C_R   0.750102 0.118193 0.749911 -0.013140
C87   C     C_R   0.749903 0.118236 0.249923 -0.016579
C88   C     C_R   0.250012 0.118223 0.749949 -0.017654
C89   C     C_R   0.750399 0.683287 0.249830 0.179394
C90   C     C_R   0.250444 0.683285 0.749826 0.181926
C91   C     C_R   0.249595 0.683422 0.249710 0.181075
C92   C     C_R   0.749608 0.683421 0.749760 0.183197
C93   C     C_R   0.250403 0.183286 0.249816 0.179645
C94   C     C_R   0.750363 0.183291 0.749678 0.180157
C95   C     C_R   0.749624 0.183421 0.249741 0.181127
C96   C     C_R   0.249935 0.183383 0.749785 0.181063
C97   C     C_R   0.973487 0.524683 0.258808 -0.013433
C98   C     C_R   0.026515 0.510096 0.725829 -0.129823
C99   C     C_R   0.026514 0.524686 0.258858 -0.013361
C100  C     C_R   0.973559 0.510142 0.725794 -0.130822
C101  C     C_R   0.473484 0.524933 0.758106 -0.012037
C102  C     C_R   0.526525 0.526084 0.250892 -0.163044
C103  C     C_R   0.526519 0.524936 0.758154 -0.010920
C104  C     C_R   0.473479 0.526085 0.250868 -0.163202
C105  C     C_R   0.473490 0.024675 0.258855 -0.012868
C106  C     C_R   0.526524 0.026084 0.750866 -0.162982
C107  C     C_R   0.526517 0.024675 0.258894 -0.012492
C108  C     C_R   0.473478 0.026085 0.750842 -0.162895
C109  C     C_R   0.973488 0.024669 0.758848 -0.013746
C110  C     C_R   0.026524 0.026084 0.250909 -0.163315
C111  C     C_R   0.026514 0.024672 0.758899 -0.013519
C112  C     C_R   0.973478 0.026084 0.250885 -0.161835
C113  C     C_R   0.945849 0.497743 0.252648 -0.187508
C114  C     C_R   0.054167 0.502797 0.752468 -0.030431
C115  C     C_R   0.054179 0.497740 0.252804 -0.187648
C116  C     C_R   0.945781 0.502819 0.752392 -0.031111
C117  C     C_R   0.445851 0.497855 0.752570 -0.186288
C118  C     C_R   0.554194 0.498493 0.249474 -0.010633
C119  C     C_R   0.554177 0.497854 0.752734 -0.186516
C120  C     C_R   0.445800 0.498492 0.249364 -0.010024
C121  C     C_R   0.445844 0.997744 0.252664 -0.186921
C122  C     C_R   0.554193 0.998492 0.749476 -0.010299
C123  C     C_R   0.554173 0.997737 0.252789 -0.187212
C124  C     C_R   0.445800 0.998491 0.749364 -0.009955
C125  C     C_R   0.945850 0.997737 0.752652 -0.187064
C126  C     C_R   0.054194 0.998493 0.249475 -0.009910
C127  C     C_R   0.054179 0.997734 0.752810 -0.187337
C128  C     C_R   0.945800 0.998492 0.249367 -0.009818
C129  C     C_R   0.972631 0.469107 0.251572 -0.061048
C130  C     C_R   0.027257 0.500449 0.781008 -0.072900
C131  C     C_R   0.027417 0.469100 0.251746 -0.060081
C132  C     C_R   0.972475 0.500392 0.780968 -0.072100
C133  C     C_R   0.472627 0.469210 0.752146 -0.060434
C134  C     C_R   0.527308 0.469890 0.250585 -0.069863
C135  C     C_R   0.527419 0.469203 0.752342 -0.059497
C136  C     C_R   0.472649 0.469886 0.250460 -0.069408
C137  C     C_R   0.472615 0.969110 0.251544 -0.060440
C138  C     C_R   0.527306 0.969889 0.750620 -0.069642
C139  C     C_R   0.527398 0.969102 0.251684 -0.059925
C140  C     C_R   0.472649 0.969886 0.750492 -0.069238
C141  C     C_R   0.972632 0.969102 0.751541 -0.060868
C142  C     C_R   0.027309 0.969889 0.250579 -0.069262
C143  C     C_R   0.027418 0.969094 0.751718 -0.059916
C144  C     C_R   0.972650 0.969885 0.250459 -0.069050
C145  C     C_R   0.750018 0.499948 0.334105 0.778172
C146  C     C_R   0.249982 0.499953 0.666001 0.794385
C147  C     C_R   0.249970 0.499952 0.333997 0.772858
C148  C     C_R   0.750030 0.499957 0.665895 0.800737
C149  C     C_R   0.250150 0.499870 0.834092 0.781072
C150  C     C_R   0.750007 0.499961 0.165867 0.776692
C151  C     C_R   0.750033 0.499971 0.834100 0.775234
C152  C     C_R   0.250042 0.499943 0.165893 0.782949
C153  C     C_R   0.250018 0.999948 0.334105 0.778340
C154  C     C_R   0.749976 0.999949 0.665898 0.783067
C155  C     C_R   0.749971 0.999953 0.334102 0.778494
C156  C     C_R   0.250034 0.999954 0.665895 0.783841
C157  C     C_R   0.750018 0.999949 0.834105 0.778116
C158  C     C_R   0.249975 0.999948 0.166002 0.777041
C159  C     C_R   0.249969 0.999951 0.833997 0.772959
C160  C     C_R   0.750034 0.999954 0.165895 0.783521
C161  C     C_3   0.529437 0.055770 0.243836 0.457352
C162  C     C_3   0.470723 0.054661 0.731328 0.498091
C163  C     C_3   0.470723 0.055774 0.243790 0.458713
C164  C     C_3   0.529418 0.054656 0.731354 0.498504
C165  C     C_3   0.029442 0.055765 0.743837 0.458294
C166  C     C_3   0.970719 0.054691 0.231419 0.497063
C167  C     C_3   0.970728 0.055766 0.743778 0.459076
C168  C     C_3   0.029415 0.054688 0.231445 0.499309
C169  C     C_3   0.029441 0.555758 0.243754 0.458011
C170  C     C_3   0.970724 0.497130 0.693762 0.474492
C171  C     C_3   0.970727 0.555759 0.243695 0.459239
C172  C     C_3   0.029468 0.497081 0.693805 0.474255
C173  C     C_3   0.529447 0.555639 0.742316 0.456924
C174  C     C_3   0.470723 0.554677 0.231380 0.497852
C175  C     C_3   0.470732 0.555641 0.742260 0.457635
C176  C     C_3   0.529418 0.554672 0.231405 0.498428
C177  C     C_R   0.739308 0.527249 0.884624 -0.191470
C178  C     C_R   0.220932 0.477845 0.115457 -0.186866
C179  C     C_R   0.225034 0.475943 0.884456 -0.199411
C180  C     C_R   0.794441 0.490764 0.115355 -0.187737
C181  C     C_R   0.295441 0.493711 0.384185 -0.187179
C182  C     C_R   0.716863 0.480139 0.615409 -0.180966
C183  C     C_R   0.716896 0.480077 0.384609 -0.188582
C184  C     C_R   0.260521 0.472546 0.615869 -0.175506
C185  C     C_R   0.295397 0.993637 0.884193 -0.187252
C186  C     C_R   0.716926 0.980107 0.115404 -0.185964
C187  C     C_R   0.716893 0.980090 0.884616 -0.188531
C188  C     C_R   0.260355 0.972502 0.115882 -0.188624
C189  C     C_R   0.783067 0.980105 0.384600 -0.186130
C190  C     C_R   0.216927 0.980107 0.615404 -0.186072
C191  C     C_R   0.216895 0.980089 0.384616 -0.188188
C192  C     C_R   0.783089 0.980104 0.615391 -0.188368
C193  C     C_R   0.740392 0.527339 0.916980 -0.173563
C194  C     C_R   0.221308 0.477569 0.083177 -0.176680
C195  C     C_R   0.225229 0.475721 0.916736 -0.197345
C196  C     C_R   0.794831 0.491158 0.082995 -0.175142
C197  C     C_R   0.295542 0.494070 0.416453 -0.173487
C198  C     C_R   0.716914 0.480108 0.583131 -0.172485
C199  C     C_R   0.716944 0.480045 0.416889 -0.177928
C200  C     C_R   0.259696 0.472364 0.583603 -0.168995
C201  C     C_R   0.295482 0.993979 0.916462 -0.172961
C202  C     C_R   0.717013 0.980066 0.083125 -0.177415
C203  C     C_R   0.716971 0.980051 0.916897 -0.179475
C204  C     C_R   0.259514 0.972310 0.083616 -0.172037
C205  C     C_R   0.782984 0.980065 0.416880 -0.178135
C206  C     C_R   0.217014 0.980065 0.583125 -0.177286
C207  C     C_R   0.216973 0.980051 0.416897 -0.179022
C208  C     C_R   0.783006 0.980063 0.583111 -0.178173
C209  C     C_R   0.751050 0.499972 0.933276 0.101229
C210  C     C_R   0.250820 0.499303 0.066658 0.110434
C211  C     C_R   0.251739 0.498792 0.933208 0.114349
C212  C     C_R   0.750562 0.500036 0.066557 0.102293
C213  C     C_R   0.249680 0.499742 0.432983 0.112553
C214  C     C_R   0.750219 0.499825 0.566706 0.112671
C215  C     C_R   0.750189 0.499799 0.433293 0.112520
C216  C     C_R   0.249674 0.499776 0.567009 0.111405
C217  C     C_R   0.249632 0.999703 0.932986 0.112174
C218  C     C_R   0.750246 0.999833 0.066708 0.110210
C219  C     C_R   0.750185 0.999830 0.933294 0.112317
C220  C     C_R   0.249614 0.999733 0.067013 0.110963
C221  C     C_R   0.749777 0.999833 0.433293 0.111809
C222  C     C_R   0.250247 0.999833 0.566708 0.110292
C223  C     C_R   0.250186 0.999831 0.433294 0.112200
C224  C     C_R   0.749788 0.999826 0.566709 0.110732
C225  C     C_R   0.761384 0.472611 0.916902 -0.189247
C226  C     C_R   0.280035 0.521287 0.083028 -0.174488
C227  C     C_R   0.278198 0.522026 0.916913 -0.177786
C228  C     C_R   0.706090 0.508896 0.082839 -0.170099
C229  C     C_R   0.203911 0.505478 0.416403 -0.170498
C230  C     C_R   0.783490 0.519575 0.583096 -0.174480
C231  C     C_R   0.783388 0.519593 0.416884 -0.176928
C232  C     C_R   0.239761 0.527248 0.583524 -0.171553
C233  C     C_R   0.203892 0.005504 0.916401 -0.170592
C234  C     C_R   0.783434 0.019627 0.083104 -0.173391
C235  C     C_R   0.783358 0.019633 0.916876 -0.175824
C236  C     C_R   0.239839 0.027228 0.083520 -0.169281
C237  C     C_R   0.716613 0.019628 0.416891 -0.175132
C238  C     C_R   0.283435 0.019627 0.583104 -0.173162
C239  C     C_R   0.283357 0.019635 0.416876 -0.175346
C240  C     C_R   0.716611 0.019613 0.583121 -0.173409
C241  C     C_R   0.761594 0.472688 0.884543 -0.202501
C242  C     C_R   0.279844 0.521483 0.115315 -0.170079
C243  C     C_R   0.277760 0.522355 0.884634 -0.184972
C244  C     C_R   0.706088 0.509252 0.115206 -0.175878
C245  C     C_R   0.204202 0.505981 0.384136 -0.181413
C246  C     C_R   0.783430 0.519633 0.615377 -0.174309
C247  C     C_R   0.783323 0.519656 0.384605 -0.181107
C248  C     C_R   0.239159 0.527187 0.615792 -0.185621
C249  C     C_R   0.204200 0.006020 0.884135 -0.180756
C250  C     C_R   0.783393 0.019662 0.115384 -0.170898
C251  C     C_R   0.783324 0.019666 0.884598 -0.181124
C252  C     C_R   0.239253 0.027180 0.115788 -0.170223
C253  C     C_R   0.716652 0.019663 0.384611 -0.180558
C254  C     C_R   0.283394 0.019662 0.615384 -0.170500
C255  C     C_R   0.283322 0.019668 0.384598 -0.180807
C256  C     C_R   0.716648 0.019646 0.615400 -0.170800
C257  C     C_R   0.750199 0.499962 0.868178 0.007832
C258  C     C_R   0.250246 0.499781 0.131809 -0.009613
C259  C     C_R   0.250914 0.499415 0.868142 0.002184
C260  C     C_R   0.750167 0.499995 0.131726 -0.004265
C261  C     C_R   0.249874 0.499892 0.367881 0.007146
C262  C     C_R   0.750105 0.499915 0.631816 -0.005285
C263  C     C_R   0.750073 0.499896 0.368184 -0.006252
C264  C     C_R   0.249901 0.499897 0.632113 0.005574
C265  C     C_R   0.249859 0.999882 0.867883 0.006767
C266  C     C_R   0.750115 0.999911 0.131817 -0.010404
C267  C     C_R   0.750072 0.999903 0.868184 -0.006327
C268  C     C_R   0.249876 0.999879 0.132116 0.006521
C269  C     C_R   0.749900 0.999910 0.368182 -0.006905
C270  C     C_R   0.250116 0.999911 0.631817 -0.010429
C271  C     C_R   0.250072 0.999903 0.368184 -0.006519
C272  C     C_R   0.749910 0.999902 0.631819 -0.009734
C273  C     C_R   0.715634 0.481541 0.983679 -0.171918
C274  C     C_R   0.297239 0.504064 0.016088 -0.175349
C275  C     C_R   0.297445 0.503979 0.983806 -0.176163
C276  C     C_R   0.715055 0.481869 0.016038 -0.179050
C277  C     C_R   0.216630 0.519570 0.483866 -0.175683
C278  C     C_R   0.796977 0.500769 0.516120 -0.172364
C279  C     C_R   0.796969 0.500759 0.483843 -0.176680
C280  C     C_R   0.216141 0.519282 0.516126 -0.172418
C281  C     C_R   0.216644 0.019567 0.983869 -0.174393
C282  C     C_R   0.752291 0.027881 0.016134 -0.176069
C283  C     C_R   0.752266 0.027881 0.983858 -0.176463
C284  C     C_R   0.216152 0.019279 0.016129 -0.171852
C285  C     C_R   0.747728 0.027879 0.483861 -0.175923
C286  C     C_R   0.252291 0.027882 0.516134 -0.175460
C287  C     C_R   0.252265 0.027881 0.483858 -0.175879
C288  C     C_R   0.747732 0.027877 0.516137 -0.175383
C289  C     C_R   0.750753 0.500002 0.032431 0.098065
C290  C     C_R   0.251587 0.498726 0.967338 0.104513
C291  C     C_R   0.251104 0.499050 0.032447 0.104869
C292  C     C_R   0.751074 0.499928 0.967367 0.098068
C293  C     C_R   0.249601 0.499722 0.532672 0.106805
C294  C     C_R   0.750207 0.499779 0.467453 0.104002
C295  C     C_R   0.750223 0.499802 0.532544 0.104091
C296  C     C_R   0.249600 0.499703 0.467320 0.105621
C297  C     C_R   0.249529 0.999669 0.032676 0.105389
C298  C     C_R   0.750211 0.999824 0.967456 0.103174
C299  C     C_R   0.750258 0.999825 0.032547 0.103845
C300  C     C_R   0.249536 0.999654 0.967323 0.105098
C301  C     C_R   0.749769 0.999820 0.532547 0.103752
C302  C     C_R   0.250212 0.999824 0.467456 0.103169
C303  C     C_R   0.250260 0.999825 0.532547 0.103704
C304  C     C_R   0.749758 0.999824 0.467455 0.103080
C305  C     C_R   0.786646 0.518081 0.016097 -0.175121
C306  C     C_R   0.205501 0.493586 0.983634 -0.181318
C307  C     C_R   0.205229 0.493821 0.015915 -0.177245
C308  C     C_R   0.786383 0.518339 0.983730 -0.184301
C309  C     C_R   0.283025 0.480131 0.516126 -0.176615
C310  C     C_R   0.703455 0.498805 0.483875 -0.177474
C311  C     C_R   0.703462 0.498819 0.516151 -0.178704
C312  C     C_R   0.282535 0.479825 0.483867 -0.174421
C313  C     C_R   0.282869 0.980026 0.016130 -0.176842
C314  C     C_R   0.748179 0.971766 0.983868 -0.178177
C315  C     C_R   0.748202 0.971767 0.016146 -0.176349
C316  C     C_R   0.282383 0.979723 0.983871 -0.175400
C317  C     C_R   0.751800 0.971763 0.516143 -0.176906
C318  C     C_R   0.248182 0.971766 0.483868 -0.177939
C319  C     C_R   0.248206 0.971766 0.516145 -0.176372
C320  C     C_R   0.751794 0.971765 0.483865 -0.177393
C321  C     C_R   0.749944 0.415865 0.249977 0.809365
C322  C     C_R   0.249924 0.415852 0.749956 0.814639
C323  C     C_R   0.250047 0.415851 0.249974 0.809883
C324  C     C_R   0.750118 0.415841 0.749924 0.816259
C325  C     C_R   0.249941 0.915865 0.249974 0.808084
C326  C     C_R   0.749943 0.915865 0.749977 0.809055
C327  C     C_R   0.750048 0.915851 0.249974 0.809870
C328  C     C_R   0.250047 0.915851 0.749974 0.809730
C329  C     C_R   0.750014 0.584104 0.249995 0.785201
C330  C     C_R   0.250016 0.584103 0.749995 0.785689
C331  C     C_R   0.249991 0.584122 0.249987 0.786550
C332  C     C_R   0.749995 0.584121 0.749992 0.786865
C333  C     C_R   0.250017 0.084103 0.249993 0.783737
C334  C     C_R   0.750012 0.084104 0.749991 0.786054
C335  C     C_R   0.749992 0.084122 0.249989 0.786754
C336  C     C_R   0.250008 0.084117 0.749993 0.787409
C337  C     C_R   0.776119 0.865377 0.273265 -0.237201
C338  C     C_R   0.224828 0.865374 0.726320 -0.236469
C339  C     C_R   0.226501 0.865399 0.274226 -0.245147
C340  C     C_R   0.772361 0.865485 0.725257 -0.246865
C341  C     C_R   0.276094 0.865378 0.773277 -0.236503
C342  C     C_R   0.724818 0.865375 0.226323 -0.236667
C343  C     C_R   0.726616 0.865409 0.774283 -0.245238
C344  C     C_R   0.272444 0.865493 0.225266 -0.247787
C345  C     C_R   0.276158 0.365373 0.273244 -0.236077
C346  C     C_R   0.721795 0.365371 0.727470 -0.218439
C347  C     C_R   0.726524 0.365404 0.274246 -0.244680
C348  C     C_R   0.274811 0.365456 0.726029 -0.231319
C349  C     C_R   0.780303 0.365295 0.771281 -0.207391
C350  C     C_R   0.224752 0.365377 0.226342 -0.236683
C351  C     C_R   0.223789 0.365319 0.773141 -0.206794
C352  C     C_R   0.772467 0.365486 0.225287 -0.246249
C353  C     C_R   0.776557 0.833088 0.273087 -0.107622
C354  C     C_R   0.224800 0.833078 0.726343 -0.111892
C355  C     C_R   0.226207 0.833109 0.274062 -0.114188
C356  C     C_R   0.772252 0.833197 0.725192 -0.115758
C357  C     C_R   0.276531 0.833090 0.773100 -0.107316
C358  C     C_R   0.724780 0.833080 0.226348 -0.111160
C359  C     C_R   0.726332 0.833119 0.774136 -0.114261
C360  C     C_R   0.272331 0.833205 0.225187 -0.115407
C361  C     C_R   0.276589 0.333085 0.273063 -0.107027
C362  C     C_R   0.721729 0.333079 0.727442 -0.107683
C363  C     C_R   0.726241 0.333114 0.274095 -0.113248
C364  C     C_R   0.274851 0.333166 0.725966 -0.105614
C365  C     C_R   0.780553 0.333003 0.771075 -0.077737
C366  C     C_R   0.224711 0.333082 0.226364 -0.110816
C367  C     C_R   0.223766 0.333027 0.773025 -0.088320
C368  C     C_R   0.772367 0.333198 0.225221 -0.115159
C369  C     C_R   0.750715 0.816694 0.249701 0.207990
C370  C     C_R   0.250715 0.816695 0.749705 0.207965
C371  C     C_R   0.249223 0.816838 0.249582 0.218151
C372  C     C_R   0.749248 0.816838 0.749628 0.217975
C373  C     C_R   0.250695 0.316694 0.249696 0.207555
C374  C     C_R   0.751064 0.316667 0.749264 0.204519
C375  C     C_R   0.749263 0.316837 0.249621 0.217492
C376  C     C_R   0.249378 0.316770 0.749479 0.211726
C377  C     C_R   0.750297 0.881788 0.249861 -0.003023
C378  C     C_R   0.250291 0.881788 0.749864 -0.003546
C379  C     C_R   0.249660 0.881837 0.249834 -0.000499
C380  C     C_R   0.749672 0.881837 0.749850 -0.000612
C381  C     C_R   0.250289 0.381788 0.249860 -0.003871
C382  C     C_R   0.750705 0.381759 0.749572 -0.008361
C383  C     C_R   0.749675 0.381836 0.249848 -0.001566
C384  C     C_R   0.249522 0.381796 0.749716 -0.004607
C385  C     C_R   0.763631 0.766031 0.222701 0.576063
C386  C     C_R   0.237583 0.766088 0.776768 0.576877
C387  C     C_R   0.295966 0.766433 0.246755 0.574559
C388  C     C_R   0.702732 0.766324 0.752533 0.574636
C389  C     C_R   0.263735 0.766037 0.722717 0.575339
C390  C     C_R   0.737642 0.766089 0.276781 0.576761
C391  C     C_R   0.795970 0.766428 0.746707 0.573731
C392  C     C_R   0.202692 0.766325 0.252362 0.574838
C393  C     C_R   0.263576 0.266034 0.222684 0.576374
C394  C     C_R   0.741323 0.266172 0.776960 0.575174
C395  C     C_R   0.796005 0.266430 0.246798 0.575118
C396  C     C_R   0.202790 0.266213 0.750937 0.587524
C397  C     C_R   0.760099 0.265978 0.721820 0.587999
C398  C     C_R   0.237664 0.266087 0.276777 0.577578
C399  C     C_R   0.296415 0.266378 0.748062 0.572985
C400  C     C_R   0.702731 0.266325 0.252408 0.575291
H1    H     H_    0.796163 0.877476 0.291656 0.165660
H2    H     H_    0.204639 0.877472 0.707987 0.166394
H3    H     H_    0.208777 0.877485 0.293469 0.162524
H4    H     H_    0.790128 0.877639 0.706063 0.162185
H5    H     H_    0.296123 0.877478 0.791672 0.167118
H6    H     H_    0.704624 0.877474 0.207993 0.166329
H7    H     H_    0.708967 0.877502 0.793546 0.162495
H8    H     H_    0.290300 0.877653 0.206105 0.162040
H9    H     H_    0.296243 0.377470 0.291619 0.167290
H10   H     H_    0.698830 0.377481 0.710366 0.167898
H11   H     H_    0.708794 0.377494 0.293485 0.162990
H12   H     H_    0.294564 0.377613 0.707552 0.162791
H13   H     H_    0.803198 0.377338 0.788471 0.166127
H14   H     H_    0.204512 0.377478 0.208032 0.166473
H15   H     H_    0.204061 0.377363 0.791696 0.162801
H16   H     H_    0.790311 0.377641 0.206120 0.163673
H17   H     H_    0.730743 0.548577 0.872440 0.154430
H18   H     H_    0.197961 0.460734 0.127586 0.159400
H19   H     H_    0.204523 0.457777 0.872291 0.159535
H20   H     H_    0.828959 0.483648 0.127586 0.150962
H21   H     H_    0.331202 0.489255 0.371953 0.148220
H22   H     H_    0.690865 0.464626 0.627486 0.159973
H23   H     H_    0.690954 0.464534 0.372546 0.158729
H24   H     H_    0.268381 0.451167 0.628148 0.152345
H25   H     H_    0.331148 0.989141 0.871967 0.148490
H26   H     H_    0.690771 0.964687 0.127477 0.159546
H27   H     H_    0.690757 0.964661 0.872558 0.158454
H28   H     H_    0.268115 0.951114 0.128170 0.148303
H29   H     H_    0.809201 0.964683 0.372531 0.159506
H30   H     H_    0.190772 0.964686 0.627477 0.159446
H31   H     H_    0.190761 0.964659 0.372558 0.158559
H32   H     H_    0.809231 0.964688 0.627454 0.158125
H33   H     H_    0.732259 0.548628 0.929341 0.141720
H34   H     H_    0.199022 0.460085 0.071143 0.132467
H35   H     H_    0.205072 0.457359 0.928840 0.134856
H36   H     H_    0.829422 0.484166 0.070747 0.135010
H37   H     H_    0.331751 0.490301 0.428358 0.128721
H38   H     H_    0.691353 0.464389 0.571001 0.133812
H39   H     H_    0.691432 0.464299 0.429038 0.132855
H40   H     H_    0.266264 0.450627 0.571750 0.132939
H41   H     H_    0.331670 0.990158 0.928373 0.129288
H42   H     H_    0.690617 0.964858 0.070987 0.132401
H43   H     H_    0.690588 0.964836 0.929052 0.131861
H44   H     H_    0.265975 0.950558 0.071769 0.130749
H45   H     H_    0.809361 0.964856 0.429022 0.132411
H46   H     H_    0.190620 0.964858 0.570987 0.132286
H47   H     H_    0.190592 0.964834 0.429053 0.131983
H48   H     H_    0.809392 0.964861 0.570960 0.131802
H49   H     H_    0.769841 0.451329 0.929195 0.140855
H50   H     H_    0.302543 0.538589 0.070863 0.137652
H51   H     H_    0.298521 0.540214 0.929165 0.137350
H52   H     H_    0.671639 0.515887 0.070464 0.143946
H53   H     H_    0.167636 0.509197 0.428268 0.133230
H54   H     H_    0.809091 0.535261 0.570936 0.132880
H55   H     H_    0.808934 0.535309 0.429028 0.136287
H56   H     H_    0.233118 0.548943 0.571606 0.130576
H57   H     H_    0.167625 0.009264 0.928262 0.133883
H58   H     H_    0.809869 0.034810 0.070950 0.139745
H59   H     H_    0.809782 0.034824 0.929012 0.137532
H60   H     H_    0.233292 0.048929 0.071594 0.133360
H61   H     H_    0.690196 0.034811 0.429041 0.137756
H62   H     H_    0.309870 0.034810 0.570950 0.139859
H63   H     H_    0.309779 0.034827 0.429012 0.137764
H64   H     H_    0.690184 0.034790 0.570980 0.139855
H65   H     H_    0.770095 0.451386 0.872297 0.153686
H66   H     H_    0.302634 0.538745 0.127335 0.173131
H67   H     H_    0.298057 0.540717 0.872616 0.165920
H68   H     H_    0.671429 0.516344 0.127321 0.172485
H69   H     H_    0.168510 0.510479 0.371865 0.156548
H70   H     H_    0.809395 0.535169 0.627430 0.159450
H71   H     H_    0.809227 0.535233 0.372538 0.168276
H72   H     H_    0.231373 0.548609 0.628009 0.149081
H73   H     H_    0.168529 0.010566 0.871860 0.156990
H74   H     H_    0.809505 0.035106 0.127441 0.176050
H75   H     H_    0.809426 0.035119 0.872527 0.168752
H76   H     H_    0.231575 0.048619 0.127999 0.155405
H77   H     H_    0.690559 0.035109 0.372551 0.168903
H78   H     H_    0.309505 0.035106 0.627442 0.176137
H79   H     H_    0.309422 0.035122 0.372526 0.168851
H80   H     H_    0.690543 0.035086 0.627468 0.176013
H81   H     H_    0.688064 0.467273 0.971333 0.140470
H82   H     H_    0.333295 0.507644 0.028255 0.137038
H83   H     H_    0.333567 0.507597 0.971689 0.136936
H84   H     H_    0.687227 0.467711 0.028320 0.139217
H85   H     H_    0.191374 0.535604 0.471972 0.132175
H86   H     H_    0.833559 0.501075 0.528250 0.137605
H87   H     H_    0.833543 0.501062 0.471686 0.135677
H88   H     H_    0.189180 0.534288 0.528022 0.131523
H89   H     H_    0.191457 0.035639 0.971974 0.133912
H90   H     H_    0.753121 0.049836 0.028271 0.135649
H91   H     H_    0.753079 0.049836 0.971713 0.135431
H92   H     H_    0.189254 0.034326 0.028025 0.135430
H93   H     H_    0.746913 0.049834 0.471718 0.135727
H94   H     H_    0.253119 0.049836 0.528272 0.136144
H95   H     H_    0.253077 0.049836 0.471714 0.135757
H96   H     H_    0.746920 0.049831 0.528276 0.136203
H97   H     H_    0.814351 0.532267 0.028428 0.137666
H98   H     H_    0.169539 0.489912 0.971379 0.128721
H99   H     H_    0.168982 0.490388 0.027939 0.130822
H100  H     H_    0.814033 0.532599 0.971421 0.134742
H101  H     H_    0.309999 0.465139 0.528019 0.129188
H102  H     H_    0.666873 0.498503 0.471745 0.132118
H103  H     H_    0.666884 0.498528 0.528303 0.132169
H104  H     H_    0.307802 0.463792 0.471972 0.130410
H105  H     H_    0.309777 0.964992 0.028025 0.129324
H106  H     H_    0.747340 0.949812 0.971728 0.134017
H107  H     H_    0.747376 0.949814 0.028293 0.135070
H108  H     H_    0.307588 0.963655 0.971975 0.130134
H109  H     H_    0.752626 0.949810 0.528288 0.134073
H110  H     H_    0.247344 0.949812 0.471728 0.133916
H111  H     H_    0.247381 0.949813 0.528293 0.134870
H112  H     H_    0.752616 0.949812 0.471724 0.134713
H113  H     H_    0.797398 0.820898 0.291094 0.168399
H114  H     H_    0.204094 0.820876 0.708286 0.167157
H115  H     H_    0.208504 0.820796 0.293181 0.161105
H116  H     H_    0.789759 0.820953 0.705972 0.160759
H117  H     H_    0.297352 0.820899 0.791116 0.168799
H118  H     H_    0.704052 0.820880 0.208298 0.167978
H119  H     H_    0.708712 0.820814 0.793288 0.161221
H120  H     H_    0.289920 0.820968 0.205990 0.161165
H121  H     H_    0.297465 0.320892 0.291054 0.169073
H122  H     H_    0.698307 0.320900 0.710603 0.166237
H123  H     H_    0.708540 0.320805 0.293217 0.161744
H124  H     H_    0.294411 0.320955 0.707451 0.162814
H125  H     H_    0.804003 0.320752 0.787845 0.168452
H126  H     H_    0.203943 0.320884 0.208331 0.168063
H127  H     H_    0.204237 0.320698 0.791485 0.160489
H128  H     H_    0.789959 0.320956 0.206027 0.161676
H129  H     H_    0.773739 0.721407 0.201819 0.182411
H130  H     H_    0.227166 0.721520 0.797718 0.179246
H131  H     H_    0.332475 0.722004 0.245221 0.179013
H132  H     H_    0.666496 0.721800 0.754280 0.185417
H133  H     H_    0.273939 0.721418 0.701845 0.181573
H134  H     H_    0.727284 0.721521 0.297745 0.179730
H135  H     H_    0.832461 0.721997 0.745083 0.177435
H136  H     H_    0.166447 0.721802 0.254015 0.185185
H137  H     H_    0.273667 0.221413 0.201795 0.182190
H138  H     H_    0.733505 0.221682 0.798444 0.179423
H139  H     H_    0.832508 0.222000 0.245258 0.179177
H140  H     H_    0.166541 0.221666 0.751650 0.187311
H141  H     H_    0.767473 0.221326 0.700629 0.183301
H142  H     H_    0.227340 0.221518 0.297744 0.180173
H143  H     H_    0.333048 0.221948 0.747605 0.179001
H144  H     H_    0.666482 0.221803 0.254058 0.185295
H145  H     H_    0.795052 0.679162 0.292013 0.147336
H146  H     H_    0.206055 0.679147 0.707543 0.140559
H147  H     H_    0.193446 0.679107 0.286704 0.146224
H148  H     H_    0.805475 0.679110 0.712617 0.139341
H149  H     H_    0.294795 0.679152 0.792124 0.147177
H150  H     H_    0.705705 0.679147 0.207664 0.144953
H151  H     H_    0.693778 0.679095 0.786926 0.145738
H152  H     H_    0.305788 0.679095 0.212744 0.143197
H153  H     H_    0.295059 0.179165 0.291998 0.147712
H154  H     H_    0.701847 0.179057 0.709060 0.144738
H155  H     H_    0.693485 0.179101 0.286740 0.146345
H156  H     H_    0.308277 0.179051 0.714052 0.144046
H157  H     H_    0.798840 0.179210 0.790330 0.148840
H158  H     H_    0.205710 0.179141 0.207649 0.144592
H159  H     H_    0.191614 0.179137 0.785548 0.147839
H160  H     H_    0.805805 0.179100 0.212768 0.143290
H161  H     H_    0.794958 0.622527 0.292153 0.174364
H162  H     H_    0.205660 0.622509 0.707600 0.161104
H163  H     H_    0.193208 0.622614 0.286660 0.182929
H164  H     H_    0.806193 0.622618 0.712968 0.163172
H165  H     H_    0.294666 0.622518 0.792268 0.173092
H166  H     H_    0.705315 0.622509 0.207725 0.172565
H167  H     H_    0.693542 0.622599 0.786863 0.181014
H168  H     H_    0.306521 0.622605 0.213130 0.173920
H169  H     H_    0.294965 0.122531 0.292145 0.174535
H170  H     H_    0.701586 0.122463 0.709177 0.172622
H171  H     H_    0.693232 0.122608 0.286679 0.182020
H172  H     H_    0.308776 0.122552 0.714379 0.174546
H173  H     H_    0.798660 0.122606 0.790606 0.177085
H174  H     H_    0.205329 0.122503 0.207714 0.170837
H175  H     H_    0.191252 0.122632 0.785501 0.184691
H176  H     H_    0.806523 0.122610 0.213136 0.174070
H177  H     H_    0.547295 0.055366 0.220414 -0.018927
H178  H     H_    0.453133 0.074711 0.743549 -0.009121
H179  H     H_    0.452999 0.055374 0.220341 -0.019384
H180  H     H_    0.546994 0.074703 0.743590 -0.007620
H181  H     H_    0.047315 0.055357 0.720419 -0.018327
H182  H     H_    0.953128 0.074720 0.243674 -0.008119
H183  H     H_    0.953019 0.055362 0.720324 -0.018459
H184  H     H_    0.046988 0.074715 0.243715 -0.007020
H185  H     H_    0.047313 0.555318 0.220336 -0.019823
H186  H     H_    0.953232 0.513368 0.676768 0.009457
H187  H     H_    0.953017 0.555322 0.220242 -0.020904
H188  H     H_    0.047149 0.513290 0.676839 0.013573
H189  H     H_    0.547317 0.554642 0.718916 -0.019838
H190  H     H_    0.453134 0.574717 0.243620 -0.008725
H191  H     H_    0.453019 0.554649 0.718825 -0.019883
H192  H     H_    0.546994 0.574709 0.243658 -0.006793
O1    O     O_3   0.750000 0.499980 0.250000 -0.489233
O2    O     O_3   0.250000 0.499980 0.750000 -0.487427
O3    O     O_3   0.250000 0.499980 0.250000 -0.489997
O4    O     O_3   0.750000 0.499980 0.750000 -0.487605
O5    O     O_3   0.250000 0.999980 0.250000 -0.489872
O6    O     O_3   0.750000 0.999980 0.750000 -0.488799
O7    O     O_3   0.750000 0.999980 0.250000 -0.489210
O8    O     O_3   0.250000 0.999980 0.750000 -0.490116
O9    O     O_R   0.634200 0.518160 0.231810 -0.589357
O10   O     O_R   0.365800 0.518160 0.768190 -0.601289
O11   O     O_R   0.365800 0.518160 0.231810 -0.588908
O12   O     O_R   0.634200 0.518160 0.768190 -0.601281
O13   O     O_R   0.134200 0.518160 0.731810 -0.648192
O14   O     O_R   0.865800 0.518160 0.268190 -0.600966
O15   O     O_R   0.865800 0.518160 0.731810 -0.650648
O16   O     O_R   0.134200 0.518160 0.268190 -0.603349
O17   O     O_R   0.134200 0.018160 0.231810 -0.586858
O18   O     O_R   0.865800 0.018160 0.768190 -0.601143
O19   O     O_R   0.865800 0.018160 0.231810 -0.589296
O20   O     O_R   0.134200 0.018160 0.768190 -0.603325
O21   O     O_R   0.634200 0.018160 0.731810 -0.588491
O22   O     O_R   0.365800 0.018160 0.268190 -0.601289
O23   O     O_R   0.365800 0.018160 0.731810 -0.589308
O24   O     O_R   0.634200 0.018160 0.268190 -0.602167
O25   O     O_R   0.719650 0.481800 0.319270 -0.650180
O26   O     O_R   0.280350 0.481800 0.680730 -0.646912
O27   O     O_R   0.280350 0.481800 0.319270 -0.645935
O28   O     O_R   0.719650 0.481800 0.680730 -0.647107
O29   O     O_R   0.219650 0.481800 0.819270 -0.643678
O30   O     O_R   0.780350 0.481800 0.180730 -0.648904
O31   O     O_R   0.780350 0.481800 0.819270 -0.639768
O32   O     O_R   0.219650 0.481800 0.180730 -0.650819
O33   O     O_R   0.219650 0.981800 0.319270 -0.650207
O34   O     O_R   0.780350 0.981800 0.680730 -0.652079
O35   O     O_R   0.780350 0.981800 0.319270 -0.649473
O36   O     O_R   0.219650 0.981800 0.680730 -0.650793
O37   O     O_R   0.719650 0.981800 0.819270 -0.650362
O38   O     O_R   0.280350 0.981800 0.180730 -0.649635
O39   O     O_R   0.280350 0.981800 0.819270 -0.646134
O40   O     O_R   0.719650 0.981800 0.180730 -0.650858
O41   O     O_R   0.719660 0.430680 0.268150 -0.641269
O42   O     O_R   0.280340 0.430680 0.731850 -0.641137
O43   O     O_R   0.280340 0.430680 0.268150 -0.639634
O44   O     O_R   0.719660 0.430680 0.731850 -0.638460
O45   O     O_R   0.219660 0.430680 0.768150 -0.642620
O46   O     O_R   0.780340 0.430680 0.231850 -0.640540
O47   O     O_R   0.780340 0.430680 0.768150 -0.644095
O48   O     O_R   0.219660 0.430680 0.231850 -0.641128
O49   O     O_R   0.219660 0.930680 0.268150 -0.641183
O50   O     O_R   0.780340 0.930680 0.731850 -0.641539
O51   O     O_R   0.780340 0.930680 0.268150 -0.641006
O52   O     O_R   0.219660 0.930680 0.731850 -0.640902
O53   O     O_R   0.719660 0.930680 0.768150 -0.641270
O54   O     O_R   0.280340 0.930680 0.231850 -0.642110
O55   O     O_R   0.280340 0.930680 0.768150 -0.639746
O56   O     O_R   0.719660 0.930680 0.231850 -0.640785
O57   O     O_R   0.719620 0.569280 0.231810 -0.641171
O58   O     O_R   0.280380 0.569280 0.768190 -0.627890
O59   O     O_R   0.280380 0.569280 0.231810 -0.643317
O60   O     O_R   0.719620 0.569280 0.768190 -0.630451
O61   O     O_R   0.219620 0.569280 0.731810 -0.654715
O62   O     O_R   0.780380 0.569280 0.268190 -0.629150
O63   O     O_R   0.780380 0.569280 0.731810 -0.654015
O64   O     O_R   0.219620 0.569280 0.268190 -0.629294
O65   O     O_R   0.219620 0.069280 0.231810 -0.643335
O66   O     O_R   0.780380 0.069280 0.768190 -0.629468
O67   O     O_R   0.780380 0.069280 0.231810 -0.642781
O68   O     O_R   0.219620 0.069280 0.768190 -0.629371
O69   O     O_R   0.719620 0.069280 0.731810 -0.642843
O70   O     O_R   0.280380 0.069280 0.268190 -0.628837
O71   O     O_R   0.280380 0.069280 0.731810 -0.643008
O72   O     O_R   0.719620 0.069280 0.268190 -0.630726
O73   O     O_R   0.780360 0.518130 0.319270 -0.643106
O74   O     O_R   0.219640 0.518130 0.680730 -0.637261
O75   O     O_R   0.219640 0.518130 0.319270 -0.639119
O76   O     O_R   0.780360 0.518130 0.680730 -0.641772
O77   O     O_R   0.280360 0.518130 0.819270 -0.645559
O78   O     O_R   0.719640 0.518130 0.180730 -0.628804
O79   O     O_R   0.719640 0.518130 0.819270 -0.640373
O80   O     O_R   0.280360 0.518130 0.180730 -0.632063
O81   O     O_R   0.280360 0.018130 0.319270 -0.642833
O82   O     O_R   0.719640 0.018130 0.680730 -0.632416
O83   O     O_R   0.719640 0.018130 0.319270 -0.642887
O84   O     O_R   0.280360 0.018130 0.680730 -0.632382
O85   O     O_R   0.780360 0.018130 0.819270 -0.642893
O86   O     O_R   0.219640 0.018130 0.180730 -0.627012
O87   O     O_R   0.219640 0.018130 0.819270 -0.638759
O88   O     O_R   0.780360 0.018130 0.180730 -0.632626
O89   O     O_R   0.634220 0.481810 0.268150 -0.653142
O90   O     O_R   0.365780 0.481810 0.731850 -0.647496
O91   O     O_R   0.365780 0.481810 0.268150 -0.653400
O92   O     O_R   0.634220 0.481810 0.731850 -0.646809
O93   O     O_R   0.134220 0.481810 0.768150 -0.631234
O94   O     O_R   0.865780 0.481810 0.231850 -0.647539
O95   O     O_R   0.865780 0.481810 0.768150 -0.628827
O96   O     O_R   0.134220 0.481810 0.231850 -0.644158
O97   O     O_R   0.134220 0.981810 0.268150 -0.653372
O98   O     O_R   0.865780 0.981810 0.731850 -0.646562
O99   O     O_R   0.865780 0.981810 0.268150 -0.652393
O100  O     O_R   0.134220 0.981810 0.731850 -0.644186
O101  O     O_R   0.634220 0.981810 0.768150 -0.653271
O102  O     O_R   0.365780 0.981810 0.231850 -0.645102
O103  O     O_R   0.365780 0.981810 0.768150 -0.653312
O104  O     O_R   0.634220 0.981810 0.231850 -0.644663
Zn1   Zn    Zn3+2 0.793370 0.525930 0.275930 1.006264
Zn2   Zn    Zn3+2 0.206630 0.525930 0.724070 0.980729
Zn3   Zn    Zn3+2 0.206630 0.525930 0.275930 1.006011
Zn4   Zn    Zn3+2 0.793370 0.525930 0.724070 0.978814
Zn5   Zn    Zn3+2 0.293370 0.525930 0.775930 1.005197
Zn6   Zn    Zn3+2 0.706630 0.525930 0.224070 1.010399
Zn7   Zn    Zn3+2 0.706630 0.525930 0.775930 1.005014
Zn8   Zn    Zn3+2 0.293370 0.525930 0.224070 1.008714
Zn9   Zn    Zn3+2 0.293370 0.025930 0.275930 1.006189
Zn10  Zn    Zn3+2 0.706630 0.025930 0.724070 1.009733
Zn11  Zn    Zn3+2 0.706630 0.025930 0.275930 1.005508
Zn12  Zn    Zn3+2 0.293370 0.025930 0.724070 1.009022
Zn13  Zn    Zn3+2 0.793370 0.025930 0.775930 1.006758
Zn14  Zn    Zn3+2 0.206630 0.025930 0.224070 1.011484
Zn15  Zn    Zn3+2 0.206630 0.025930 0.775930 1.006628
Zn16  Zn    Zn3+2 0.793370 0.025930 0.224070 1.009413
Zn17  Zn    Zn3+2 0.706640 0.474020 0.275940 0.964408
Zn18  Zn    Zn3+2 0.293360 0.474020 0.724060 0.978130
Zn19  Zn    Zn3+2 0.293360 0.474020 0.275940 0.967259
Zn20  Zn    Zn3+2 0.706640 0.474020 0.724060 0.982042
Zn21  Zn    Zn3+2 0.206640 0.474020 0.775940 0.990797
Zn22  Zn    Zn3+2 0.793360 0.474020 0.224060 0.967489
Zn23  Zn    Zn3+2 0.793360 0.474020 0.775940 0.992338
Zn24  Zn    Zn3+2 0.206640 0.474020 0.224060 0.969511
Zn25  Zn    Zn3+2 0.206640 0.974020 0.275940 0.964310
Zn26  Zn    Zn3+2 0.793360 0.974020 0.724060 0.967083
Zn27  Zn    Zn3+2 0.793360 0.974020 0.275940 0.966487
Zn28  Zn    Zn3+2 0.206640 0.974020 0.724060 0.969807
Zn29  Zn    Zn3+2 0.706640 0.974020 0.775940 0.964571
Zn30  Zn    Zn3+2 0.293360 0.974020 0.224060 0.967639
Zn31  Zn    Zn3+2 0.293360 0.974020 0.775940 0.967104
Zn32  Zn    Zn3+2 0.706640 0.974020 0.224060 0.970148
F1    F     F_    0.777898 0.781149 0.196475 -0.663636
F2    F     F_    0.223276 0.781260 0.802947 -0.665147
F3    F     F_    0.341629 0.781755 0.244714 -0.671508
F4    F     F_    0.657004 0.781542 0.754672 -0.667409
F5    F     F_    0.278067 0.781160 0.696507 -0.664451
F6    F     F_    0.723415 0.781262 0.302974 -0.665299
F7    F     F_    0.841622 0.781747 0.744560 -0.672941
F8    F     F_    0.156951 0.781543 0.254399 -0.667413
F9    F     F_    0.277800 0.281156 0.196453 -0.663442
F10   F     F_    0.730715 0.281436 0.803713 -0.665881
F11   F     F_    0.841668 0.281751 0.244756 -0.671062
F12   F     F_    0.156892 0.281379 0.751579 -0.647189
F13   F     F_    0.770820 0.281047 0.694967 -0.651679
F14   F     F_    0.223474 0.281257 0.302979 -0.663867
F15   F     F_    0.342175 0.281714 0.747359 -0.672328
F16   F     F_    0.656991 0.281544 0.254446 -0.667062
C401  C     C_R   0.943982 0.439409 0.252401 0.156715
C402  C     C_R   0.933562 0.423121 0.224969 -0.103668
C403  C     C_R   0.907731 0.394683 0.226149 -0.123299
C404  C     C_R   0.892140 0.382457 0.254653 -0.083034
C405  C     C_R   0.901832 0.398795 0.281983 -0.147831
C406  C     C_R   0.927722 0.427202 0.280904 -0.164129
H193  H     H_    0.945564 0.432403 0.202801 0.111661
H194  H     H_    0.899908 0.382083 0.204992 0.130024
H195  H     H_    0.872523 0.360337 0.255585 0.173154
H196  H     H_    0.889522 0.389365 0.304012 0.141817
H197  H     H_    0.935460 0.439579 0.302228 0.131800
C407  C     C_R   0.055567 0.500261 0.810795 0.132606
C408  C     C_R   0.071598 0.528363 0.823999 -0.176249
C409  C     C_R   0.096017 0.528576 0.852863 -0.132927
C410  C     C_R   0.104423 0.500780 0.868670 -0.105630
C411  C     C_R   0.089266 0.472663 0.855399 -0.139282
C412  C     C_R   0.064936 0.472347 0.826493 -0.080427
H198  H     H_    0.064565 0.550059 0.812113 0.122616
H199  H     H_    0.108020 0.550303 0.863103 0.132491
H200  H     H_    0.122671 0.501054 0.891205 0.135558
H201  H     H_    0.096122 0.451143 0.867593 0.121879
H202  H     H_    0.053038 0.450487 0.816464 0.125877
C413  C     C_R   0.056080 0.439407 0.252865 0.164053
C414  C     C_R   0.078106 0.429481 0.280857 -0.168012
C415  C     C_R   0.103649 0.400999 0.282414 -0.135329
C416  C     C_R   0.107283 0.382310 0.256081 -0.089847
C417  C     C_R   0.086200 0.392311 0.228002 -0.135065
C418  C     C_R   0.060719 0.420824 0.226332 -0.101380
H203  H     H_    0.074977 0.443653 0.301478 0.126318
H204  H     H_    0.120317 0.393316 0.304077 0.142930
H205  H     H_    0.126507 0.360100 0.257446 0.149999
H206  H     H_    0.089456 0.377915 0.207570 0.127055
H207  H     H_    0.044473 0.428363 0.204493 0.110116
C419  C     C_R   0.943630 0.499241 0.810626 0.141172
C420  C     C_R   0.937954 0.471172 0.826707 -0.086943
C421  C     C_R   0.910870 0.470349 0.854726 -0.129103
C422  C     C_R   0.889220 0.497469 0.866745 -0.095029
C423  C     C_R   0.894173 0.525398 0.850626 -0.137916
C424  C     C_R   0.921302 0.526328 0.822630 -0.172926
H208  H     H_    0.954322 0.450010 0.817495 0.123614
H209  H     H_    0.906650 0.448696 0.867120 0.125671
H210  H     H_    0.868494 0.496839 0.888504 0.138819
H211  H     H_    0.877068 0.546328 0.859860 0.127905
H212  H     H_    0.925092 0.548100 0.810354 0.116899
C425  C     C_R   0.443963 0.439552 0.753707 0.154901
C426  C     C_R   0.433621 0.422567 0.726694 -0.103242
C427  C     C_R   0.408008 0.394100 0.728591 -0.124470
C428  C     C_R   0.392465 0.382566 0.757391 -0.088174
C429  C     C_R   0.402036 0.399612 0.784301 -0.150450
C430  C     C_R   0.427768 0.428034 0.782509 -0.163559
H213  H     H_    0.445590 0.431308 0.704301 0.113759
H214  H     H_    0.400323 0.380940 0.707758 0.130024
H215  H     H_    0.372974 0.360434 0.758878 0.170844
H216  H     H_    0.389780 0.390714 0.806561 0.140627
H217  H     H_    0.435464 0.440949 0.803517 0.132639
C431  C     C_R   0.555748 0.440206 0.247660 0.139655
C432  C     C_R   0.564839 0.421654 0.273796 -0.105200
C433  C     C_R   0.591164 0.393531 0.270742 -0.118206
C434  C     C_R   0.608609 0.383872 0.241653 -0.079887
C435  C     C_R   0.600159 0.402432 0.215618 -0.151742
C436  C     C_R   0.573777 0.430534 0.218565 -0.157495
H218  H     H_    0.551579 0.428987 0.296426 0.111995
H219  H     H_    0.598034 0.379216 0.290908 0.131996
H220  H     H_    0.628757 0.362038 0.239280 0.170169
H221  H     H_    0.613911 0.394994 0.193143 0.139984
H222  H     H_    0.567173 0.444695 0.198234 0.140042
C437  C     C_R   0.556078 0.439557 0.754321 0.162376
C438  C     C_R   0.578136 0.430475 0.782590 -0.167248
C439  C     C_R   0.603418 0.401975 0.785040 -0.139267
C440  C     C_R   0.606733 0.382416 0.759332 -0.096063
C441  C     C_R   0.585617 0.391567 0.730972 -0.136041
C442  C     C_R   0.560449 0.420111 0.728399 -0.100625
H223  H     H_    0.575183 0.445307 0.802751 0.128746
H224  H     H_    0.620098 0.394945 0.806920 0.140187
H225  H     H_    0.625759 0.360197 0.761392 0.147563
H226  H     H_    0.588615 0.376492 0.711020 0.127984
H227  H     H_    0.544173 0.426984 0.706351 0.111054
C443  C     C_R   0.444255 0.440202 0.247247 0.140496
C444  C     C_R   0.424359 0.431442 0.218303 -0.161229
C445  C     C_R   0.398415 0.403231 0.214987 -0.138230
C446  C     C_R   0.392288 0.383636 0.240494 -0.090022
C447  C     C_R   0.411514 0.392392 0.269456 -0.129020
C448  C     C_R   0.437374 0.420634 0.272888 -0.097234
H228  H     H_    0.429267 0.446374 0.198348 0.140770
H229  H     H_    0.383265 0.396491 0.192620 0.143294
H230  H     H_    0.372555 0.361696 0.237810 0.152152
H231  H     H_    0.406418 0.377275 0.289228 0.127026
H232  H     H_    0.452057 0.427244 0.295417 0.111267
C449  C     C_R   0.443953 0.939414 0.252342 0.157294
C450  C     C_R   0.434222 0.922912 0.224948 -0.103414
C451  C     C_R   0.408357 0.894485 0.226113 -0.124149
C452  C     C_R   0.392039 0.882484 0.254565 -0.082281
C453  C     C_R   0.401008 0.899044 0.281850 -0.148366
C454  C     C_R   0.426926 0.927442 0.280786 -0.164200
H233  H     H_    0.446777 0.932022 0.202819 0.113025
H234  H     H_    0.401072 0.881717 0.204986 0.129872
H235  H     H_    0.372411 0.860367 0.255492 0.172913
H236  H     H_    0.388116 0.889793 0.303835 0.140754
H237  H     H_    0.434100 0.939992 0.302080 0.131700
C455  C     C_R   0.555743 0.940201 0.747737 0.138898
C456  C     C_R   0.564866 0.921697 0.773904 -0.105221
C457  C     C_R   0.591183 0.893567 0.770890 -0.118240
C458  C     C_R   0.608587 0.883852 0.741812 -0.080255
C459  C     C_R   0.600103 0.902364 0.715746 -0.151526
C460  C     C_R   0.573730 0.930472 0.718652 -0.156238
H238  H     H_    0.551635 0.929072 0.796526 0.112012
H239  H     H_    0.598079 0.879289 0.791080 0.131604
H240  H     H_    0.628727 0.862012 0.739469 0.170179
H241  H     H_    0.613823 0.894881 0.693278 0.140363
H242  H     H_    0.567099 0.944594 0.698298 0.141985
C461  C     C_R   0.556034 0.939404 0.252746 0.162801
C462  C     C_R   0.577328 0.929176 0.280830 -0.167491
C463  C     C_R   0.602820 0.900674 0.282318 -0.135818
C464  C     C_R   0.607130 0.882269 0.255822 -0.090468
C465  C     C_R   0.586765 0.892572 0.227660 -0.134713
C466  C     C_R   0.561334 0.921105 0.226062 -0.100915
H243  H     H_    0.573665 0.943126 0.301570 0.128754
H244  H     H_    0.618922 0.892753 0.304049 0.142752
H245  H     H_    0.626315 0.860043 0.257126 0.149702
H246  H     H_    0.590534 0.878394 0.207108 0.126642
H247  H     H_    0.545627 0.928878 0.204162 0.110576
C467  C     C_R   0.444257 0.940197 0.747310 0.140416
C468  C     C_R   0.424348 0.931410 0.718377 -0.160974
C469  C     C_R   0.398411 0.903193 0.715090 -0.138096
C470  C     C_R   0.392302 0.883620 0.740616 -0.089996
C471  C     C_R   0.411538 0.892404 0.769567 -0.129141
C472  C     C_R   0.437393 0.920651 0.772969 -0.097248
H248  H     H_    0.429242 0.946325 0.698409 0.141193
H249  H     H_    0.383252 0.896432 0.692732 0.143299
H250  H     H_    0.372576 0.861676 0.737954 0.152129
H251  H     H_    0.406455 0.877304 0.789354 0.126795
H252  H     H_    0.452086 0.927282 0.795490 0.111241
C473  C     C_R   0.943986 0.939402 0.752328 0.156837
C474  C     C_R   0.933506 0.923173 0.724869 -0.103766
C475  C     C_R   0.907674 0.894734 0.726007 -0.124489
C476  C     C_R   0.892147 0.882445 0.754496 -0.082880
C477  C     C_R   0.901902 0.898723 0.781854 -0.148432
C478  C     C_R   0.927790 0.927132 0.780818 -0.164286
H253  H     H_    0.945461 0.932503 0.702712 0.111935
H254  H     H_    0.899803 0.882180 0.704828 0.128661
H255  H     H_    0.872532 0.860323 0.755396 0.172751
H256  H     H_    0.889641 0.889244 0.803872 0.140894
H257  H     H_    0.935576 0.939462 0.802163 0.131704
C479  C     C_R   0.055751 0.940207 0.247647 0.138760
C480  C     C_R   0.064787 0.921629 0.273772 -0.105129
C481  C     C_R   0.091115 0.893508 0.270710 -0.118356
C482  C     C_R   0.108619 0.883876 0.241626 -0.080088
C483  C     C_R   0.100227 0.902462 0.215602 -0.152238
C484  C     C_R   0.073840 0.930561 0.218556 -0.156139
H258  H     H_    0.051483 0.928941 0.296399 0.112208
H259  H     H_    0.097943 0.879173 0.290868 0.131532
H260  H     H_    0.128770 0.862043 0.239246 0.170113
H261  H     H_    0.114027 0.895046 0.193130 0.139818
H262  H     H_    0.067280 0.944742 0.198234 0.142622
C485  C     C_R   0.056080 0.939399 0.752799 0.164207
C486  C     C_R   0.078149 0.929451 0.780771 -0.168084
C487  C     C_R   0.103685 0.900966 0.782293 -0.135733
C488  C     C_R   0.107269 0.882294 0.755945 -0.090219
C489  C     C_R   0.086146 0.892317 0.727885 -0.135533
C490  C     C_R   0.060671 0.920834 0.726250 -0.101297
H263  H     H_    0.075057 0.943608 0.801404 0.126160
H264  H     H_    0.120386 0.893264 0.803940 0.142348
H265  H     H_    0.126486 0.860080 0.757283 0.149512
H266  H     H_    0.089364 0.877935 0.707441 0.126336
H267  H     H_    0.044392 0.928390 0.704426 0.110149
C491  C     C_R   0.944256 0.940201 0.247251 0.140326
C492  C     C_R   0.924410 0.931421 0.218301 -0.161089
C493  C     C_R   0.898458 0.903211 0.214991 -0.137972
C494  C     C_R   0.892271 0.883640 0.240511 -0.089428
C495  C     C_R   0.911447 0.892418 0.269479 -0.130122
C496  C     C_R   0.937316 0.920657 0.272904 -0.097717
H268  H     H_    0.929362 0.946335 0.198337 0.141451
H269  H     H_    0.883346 0.896455 0.192620 0.143423
H270  H     H_    0.872529 0.861703 0.237833 0.152097
H271  H     H_    0.906304 0.877319 0.289261 0.126009
H272  H     H_    0.951961 0.927284 0.295437 0.111274
F17   F     F_    0.550309 0.077699 0.263614 -0.576672
F18   F     F_    0.450064 0.048915 0.702285 -0.583188
F19   F     F_    0.449775 0.077708 0.263533 -0.574421
F20   F     F_    0.550172 0.048903 0.702328 -0.582698
F21   F     F_    0.050299 0.077697 0.763617 -0.576049
F22   F     F_    0.950060 0.048993 0.202366 -0.582642
F23   F     F_    0.949764 0.077702 0.763513 -0.574161
F24   F     F_    0.050169 0.048984 0.202410 -0.579580
F25   F     F_    0.050299 0.577717 0.263502 -0.576814
F26   F     F_    0.949700 0.467604 0.693326 -0.593116
F27   F     F_    0.949764 0.577723 0.263400 -0.574785
F28   F     F_    0.050324 0.467520 0.693408 -0.593277
F29   F     F_    0.550311 0.578060 0.761538 -0.576051
F30   F     F_    0.450062 0.548958 0.202332 -0.583383
F31   F     F_    0.449772 0.578067 0.761438 -0.574266
F32   F     F_    0.550170 0.548945 0.202373 -0.583605

loop_
_geom_bond_atom_site_label_1
_geom_bond_atom_site_label_2
_ccdc_geom_bond_type
C73   H169  S    
C356  H116  S    
C51   H147  S    
C470  C471  A    
C192  H32   S    
C169  C171  S    
O63   Zn4   S    
O8    Zn12  S    
C177  H17   S    
C434  C435  A    
C8    O16   A    
O14   Zn1   S    
C117  C133  A    
C234  C250  A    
C206  H46   S    
C446  H230  S    
C179  C195  A    
O21   Zn10  S    
C281  C284  A    
C179  H19   S    
C228  C244  A    
C352  C368  A    
C282  C283  A    
C361  C373  A    
C177  C193  A    
C405  H196  S    
C188  C268  A    
C59   H155  S    
C189  C269  A    
C330  O61   A    
C190  C270  A    
C458  H240  S    
C161  H177  S    
O104  Zn32  S    
C28   C40   A    
C289  C305  A    
C449  C454  A    
C182  C262  A    
C71   H167  S    
C284  C297  A    
C429  H216  S    
C273  C276  A    
C156  O36   A    
C407  C408  A    
C240  H64   S    
O4    Zn7   S    
C83   C331  S    
C274  C275  A    
C208  H48   S    
C363  C375  A    
C481  H259  S    
O92   Zn20  S    
C428  H215  S    
C29   H141  S    
C178  C258  A    
C338  H2    S    
C310  C311  A    
C102  C176  S    
C457  H239  S    
C190  C206  A    
C31   H143  S    
C56   C72   A    
C356  C372  A    
C17   H129  S    
C146  O26   A    
C235  H59   S    
C227  C243  A    
C145  O25   A    
C80   H176  S    
C10   C125  S    
C345  C361  A    
C57   C73   A    
C230  C246  A    
C322  O45   A    
C328  C378  S    
C321  O46   A    
C53   C69   A    
C412  H202  S    
C101  C103  A    
C14   C121  S    
C343  H7    S    
C422  C423  A    
C59   C95   A    
C357  C370  A    
C114  C130  A    
C153  C271  S    
C203  C219  A    
C108  C124  A    
C344  C379  A    
C154  C272  S    
C366  C373  A    
C181  H21   S    
C476  C477  A    
C161  C163  S    
C2    C117  S    
C124  C140  A    
C162  C164  S    
C443  C448  A    
C340  H4    S    
C342  H6    S    
C26   H138  S    
C224  C301  S    
C285  C304  A    
C100  C170  S    
C451  C452  A    
C10   O98   A    
O79   Zn7   S    
O3    Zn8   S    
C425  C426  A    
O59   Zn8   S    
C15   C124  S    
C217  C233  A    
C366  H126  S    
C251  H75   S    
C61   C94   A    
C26   C38   A    
C104  C174  S    
C288  H96   S    
C314  C315  A    
C439  C440  A    
C63   C96   A    
C168  F24   S    
C203  H43   S    
C221  C237  A    
C335  O72   A    
O71   Zn12  S    
C317  C320  A    
C201  H41   S    
C401  C406  A    
O86   Zn14  S    
O70   Zn9   S    
C347  H11   S    
C55   C92   A    
C347  C363  A    
C66   C82   A    
C311  H103  S    
C151  O31   A    
C140  C467  S    
C54   C70   A    
O83   Zn11  S    
C160  O40   A    
C405  C406  A    
C166  H182  S    
C306  C307  A    
C341  C378  A    
O38   Zn30  S    
C67   H163  S    
C428  C429  A    
O37   Zn29  S    
C128  C144  A    
C164  F20   S    
C292  C308  A    
C138  C140  A    
C54   C89   A    
C42   C389  A    
C339  H3    S    
C385  F1    S    
C12   O100  A    
C238  C254  A    
C337  H1    S    
O26   Zn18  S    
C239  C255  A    
C142  C144  A    
O4    Zn4   S    
O23   Zn12  S    
C169  H185  S    
C198  C214  A    
O22   Zn9   S    
C251  C267  A    
C326  O50   A    
C213  C229  A    
C438  C439  A    
C46   C374  S    
C348  H12   S    
C318  H110  S    
C227  H51   S    
C29   C397  A    
C443  C444  A    
C173  H189  S    
O88   Zn16  S    
C49   C89   A    
C43   C371  S    
C411  H201  S    
C5    O93   A    
C491  C496  A    
C154  O82   A    
C231  C247  A    
O6    Zn26  S    
C459  C460  A    
C280  H88   S    
O5    Zn25  S    
C218  C299  S    
C389  F5    S    
C322  O42   A    
C247  H71   S    
C63   C79   A    
C199  H39   S    
C321  O41   A    
C50   H146  S    
O11   Zn8   S    
C221  C304  S    
C309  C312  A    
C145  O73   A    
O54   Zn30  S    
C52   C68   A    
O96   Zn24  S    
C228  H52   S    
C101  C117  A    
C480  H258  S    
O36   Zn28  S    
C358  C369  A    
O75   Zn3   S    
C1    O9    A    
O89   Zn17  S    
C3    O91   A    
C482  H260  S    
C337  C353  A    
C439  H224  S    
C52   H148  S    
C1    O89   A    
C184  C264  A    
O24   Zn11  S    
C254  C270  A    
C434  H220  S    
C284  H92   S    
C329  O62   A    
C230  H54   S    
C19   C387  A    
C98   C114  A    
O6    Zn13  S    
C17   C385  A    
C495  H271  S    
C196  C212  A    
O5    Zn14  S    
C226  H50   S    
C296  C312  A    
C23   C36   A    
O8    Zn28  S    
C62   C93   A    
C165  F21   S    
C133  C135  A    
C84   C332  S    
C162  H178  S    
C19   C35   A    
O48   Zn24  S    
C148  C262  S    
C418  H207  S    
C69   H165  S    
C225  C241  A    
C47   C400  A    
C55   C71   A    
C48   C399  A    
C320  H112  S    
C438  H223  S    
C404  H195  S    
C425  C430  A    
C67   C83   A    
C21   H133  S    
C403  H194  S    
C364  C376  A    
C250  H74   S    
C475  C476  A    
C244  C260  A    
C255  H79   S    
C107  C123  A    
C181  C197  A    
O40   Zn32  S    
C368  H128  S    
C45   C393  A    
C494  C495  A    
C185  C265  A    
C489  C490  A    
C42   C386  A    
C345  C381  A    
C201  C217  A    
O27   Zn19  S    
C105  C107  A    
C324  O47   A    
C166  F22   S    
O3    Zn24  S    
C347  C383  A    
C302  C318  A    
C199  C215  A    
C321  C383  S    
O8    Zn15  S    
C11   O19   A    
C435  C436  A    
C211  C290  S    
C300  C316  A    
C433  C434  A    
C419  C424  A    
C109  C111  A    
C343  C380  A    
C354  C370  A    
C248  H72   S    
O4    Zn20  S    
O6    Zn10  S    
C104  C120  A    
C185  C201  A    
C492  C493  A    
C188  H28   S    
C123  C139  A    
O2    Zn2   S    
C189  H29   S    
O98   Zn26  S    
C28   H140  S    
C415  C416  A    
O76   Zn4   S    
C249  C265  A    
C463  H244  S    
O100  Zn28  S    
C365  H125  S    
C69   C82   A    
C274  H82   S    
C309  H101  S    
C58   H154  S    
C465  H246  S    
C339  C379  A    
C193  C209  A    
C400  F16   S    
C450  H233  S    
C61   C77   A    
C486  C487  A    
C6    O14   A    
C278  H86   S    
O19   Zn16  S    
C358  H118  S    
C472  H252  S    
C111  C165  S    
C153  O33   A    
C147  C261  S    
C175  F31   S    
C30   C398  A    
O12   Zn7   S    
C283  H91   S    
C229  C245  A    
C165  H181  S    
C468  H248  S    
C281  H89   S    
C430  H217  S    
C165  C167  S    
C231  H55   S    
C352  H16   S    
C362  C374  A    
C166  C168  S    
C338  C354  A    
C106  C122  A    
C130  C407  S    
C236  C252  A    
C491  C492  A    
C348  C384  A    
C281  C300  A    
C119  C135  A    
C50   C90   A    
C282  C299  A    
C174  C176  S    
C409  H199  S    
C173  C175  S    
C489  H266  S    
C319  H111  S    
C290  C306  A    
O90   Zn18  S    
C407  C412  A    
C334  O66   A    
C125  C141  A    
O81   Zn9   S    
C433  H219  S    
C219  C235  A    
C336  O68   A    
C455  C456  A    
O32   Zn24  S    
C325  O49   A    
C485  C490  A    
C97   C99   A    
C47   C395  A    
C179  C259  A    
C457  C458  A    
C141  C473  S    
C6    O94   A    
C318  C319  A    
C26   C394  A    
C429  C430  A    
C138  C455  S    
C188  C204  A    
C477  H256  S    
C352  C383  A    
C337  C377  A    
C367  C376  A    
C232  C248  A    
C180  C260  A    
C7    C116  S    
C102  C104  A    
C254  H78   S    
C63   H159  S    
C490  H267  S    
C33   C89   S    
O69   Zn10  S    
C194  C210  A    
C18   C34   A    
C49   H145  S    
C116  C132  A    
C355  H115  S    
O82   Zn10  S    
C427  C428  A    
C73   C85   A    
C414  C415  A    
C324  O44   A    
C22   H134  S    
C432  C433  A    
C346  C382  A    
C37   C93   S    
C471  H251  S    
C244  H68   S    
C191  C207  A    
C56   H152  S    
C62   H158  S    
C349  H13   S    
C224  C240  A    
C161  F17   S    
C39   C95   S    
C473  C478  A    
C110  C126  A    
C343  C359  A    
C276  C289  A    
C78   C85   A    
C75   C87   A    
O31   Zn23  S    
C223  C302  S    
C2    O90   A    
C57   H153  S    
C363  H123  S    
C209  C292  S    
C314  H106  S    
C234  H58   S    
C225  H49   S    
C164  H180  S    
C42   C370  S    
C324  C382  S    
C341  C357  A    
C479  C480  A    
C151  C257  S    
C387  F3    S    
C477  C478  A    
C447  H231  S    
C386  F2    S    
O62   Zn1   S    
C409  C410  A    
C9    O17   A    
C150  O78   A    
O72   Zn11  S    
C211  C227  A    
C134  C136  A    
C173  F29   S    
C423  H211  S    
C62   C78   A    
C494  H270  S    
C306  H98   S    
C275  C290  A    
C171  F27   S    
C455  C460  A    
C326  O53   A    
C305  H97   S    
C410  C411  A    
O84   Zn12  S    
C61   H157  S    
C169  F25   S    
C208  C224  A    
C360  H120  S    
C152  O32   A    
C55   H151  S    
C46   C394  A    
O53   Zn29  S    
C100  C116  A    
C256  H80   S    
C44   C391  A    
C47   C375  S    
O6    Zn29  S    
C85   C333  S    
C351  C367  A    
O5    Zn30  S    
C111  C127  A    
C194  H34   S    
O4    Zn23  S    
C36   C92   S    
C464  C465  A    
C51   C67   A    
C106  C108  A    
C206  C222  A    
C474  H253  S    
C41   C390  A    
C200  C216  A    
C248  C264  A    
C322  C384  S    
C483  H261  S    
C11   C128  S    
C160  O88   A    
C471  C472  A    
C341  H5    S    
C12   O20   A    
C101  C175  S    
O57   Zn6   S    
O20   Zn15  S    
C246  H70   S    
C467  C468  A    
C277  C280  A    
C327  O56   A    
C172  H188  S    
C23   H135  S    
C278  C279  A    
C331  O59   A    
O61   Zn2   S    
C15   O23   A    
C414  H203  S    
C313  H105  S    
C338  C378  A    
O2    Zn21  S    
C279  H87   S    
C212  C289  S    
C413  C414  A    
O1    Zn22  S    
C388  F4    S    
O64   Zn3   S    
C342  C358  A    
C245  H69   S    
C408  H198  S    
C152  O80   A    
O8    Zn31  S    
C357  H117  S    
C242  C258  A    
C76   H172  S    
O95   Zn23  S    
C444  C445  A    
C58   C74   A    
C298  C314  A    
C155  C269  S    
C233  C249  A    
C482  C483  A    
C118  C134  A    
C79   H175  S    
C410  H200  S    
C160  C266  S    
O15   Zn4   S    
C137  C139  A    
C158  O86   A    
C217  C300  S    
C65   H161  S    
C204  C220  A    
C187  H27   S    
C207  H47   S    
C237  C253  A    
C286  H94   S    
C495  C496  A    
C185  H25   S    
C323  C381  S    
C99   C115  A    
C45   C398  A    
C137  C449  S    
C18   C386  A    
C156  C270  S    
C325  C379  S    
C25   H137  S    
C333  O65   A    
C31   C40   A    
C72   H168  S    
C288  C301  A    
C32   C39   A    
C285  H93   S    
O43   Zn19  S    
C82   C330  S    
O47   Zn23  S    
C474  C475  A    
C149  C259  S    
C167  H183  S    
C348  C364  A    
C158  O38   A    
C186  C202  A    
C51   C91   A    
C413  C418  A    
C213  C296  S    
C157  O37   A    
C252  C268  A    
C56   C91   A    
C214  C295  S    
C416  H205  S    
C189  C205  A    
C452  C453  A    
C32   H144  S    
C287  C302  A    
C7    O95   A    
C145  C263  S    
C81   C329  S    
C403  C404  A    
C105  C163  S    
C4    C119  S    
C146  C264  S    
C475  H254  S    
C106  C164  S    
C44   C388  A    
C174  H190  S    
O80   Zn8   S    
C233  H57   S    
C478  H257  S    
C246  C262  A    
C456  C457  A    
C53   H149  S    
C293  C309  A    
C184  H24   S    
C43   C387  A    
C450  C451  A    
C245  C261  A    
C487  H264  S    
C408  C409  A    
C41   C385  A    
C64   C80   A    
C435  H221  S    
C442  H227  S    
C209  C225  A    
O7    Zn16  S    
C40   C96   S    
O41   Zn17  S    
C79   C88   A    
C344  C360  A    
C365  C374  A    
O103  Zn31  S    
C492  H268  S    
O73   Zn1   S    
C103  C119  A    
C362  H122  S    
O33   Zn25  S    
C327  O51   A    
C146  O74   A    
C68   C84   A    
C392  F8    S    
C122  C138  A    
O3    Zn19  S    
C417  H206  S    
C157  O85   A    
C465  C466  A    
O2    Zn18  S    
C326  C380  S    
C207  C223  A    
O1    Zn17  S    
C21   C34   A    
C168  H184  S    
C167  F23   S    
C176  F32   S    
C121  C137  A    
C440  H225  S    
C126  C142  A    
C75   H171  S    
C415  H204  S    
C334  O69   A    
C155  O35   A    
C120  C136  A    
C141  C143  A    
C151  O79   A    
C336  O71   A    
C130  C132  A    
C170  F26   S    
C493  H269  S    
C49   C65   A    
C135  C437  S    
C54   H150  S    
C312  H104  S    
C420  H208  S    
C286  C303  A    
C65   C81   A    
C468  C469  A    
C437  C442  A    
C112  C166  S    
C176  H192  S    
C342  C377  A    
C469  H249  S    
C241  H65   S    
C453  H236  S    
C48   C376  S    
C243  C259  A    
C431  C436  A    
C424  H212  S    
C44   C372  S    
C241  C257  A    
C87   C335  S    
C60   C96   A    
C182  H22   S    
C60   C76   A    
C144  C491  S    
C291  C307  A    
C487  C488  A    
C22   C390  A    
C351  H15   S    
C52   C92   A    
C340  C380  A    
C210  C291  S    
C397  F13   S    
O67   Zn16  S    
C214  C230  A    
C488  H265  S    
C197  C213  A    
C411  C412  A    
C395  F11   S    
C136  C443  S    
C350  H14   S    
C394  F10   S    
C462  H243  S    
O49   Zn25  S    
C317  H109  S    
C4    O92   A    
C479  C484  A    
C327  C377  S    
C329  O57   A    
C19   H131  S    
C9    C126  S    
C235  C251  A    
C197  H37   S    
C331  O64   A    
C345  H9    S    
C147  O27   A    
C5    O13   A    
C252  H76   S    
O68   Zn15  S    
C202  H42   S    
C488  C489  A    
C355  C371  A    
O35   Zn27  S    
C178  H18   S    
C7    O15   A    
C253  C269  A    
C432  H218  S    
C276  H84   S    
C183  H23   S    
C86   C334  S    
C155  O83   A    
O42   Zn18  S    
C308  H100  S    
C359  C372  A    
C486  H263  S    
C346  C362  A    
O7    Zn11  S    
C223  C239  A    
C473  C474  A    
C143  C485  S    
C171  H187  S    
C202  C218  A    
C446  C447  A    
C286  C287  A    
C277  C296  A    
C170  C172  S    
C242  H66   S    
O46   Zn22  S    
C278  C295  A    
C416  C417  A    
C21   C389  A    
C4    O12   A    
C70   H166  S    
C180  C196  A    
C328  O52   A    
C46   C397  A    
O91   Zn19  S    
C453  C454  A    
C98   C100  A    
C229  H53   S    
O1    Zn6   S    
C112  C128  A    
C72   C83   A    
C14   O22   A    
C210  C226  A    
C297  C313  A    
C458  C459  A    
C212  C228  A    
C152  C258  S    
C181  C261  A    
C421  C422  A    
O45   Zn21  S    
C449  C450  A    
C129  C401  S    
C53   C90   A    
O94   Zn22  S    
C103  C173  S    
C359  H119  S    
C423  C424  A    
C20   C388  A    
O93   Zn21  S    
C192  C272  A    
C481  C482  A    
C177  C257  A    
C27   C395  A    
C186  H26   S    
C483  C484  A    
C150  O30   A    
C25   C393  A    
C461  C462  A    
C20   H132  S    
O39   Zn31  S    
O99   Zn27  S    
C5    C114  S    
C393  F9    S    
C149  O29   A    
O52   Zn28  S    
C367  H127  S    
C437  C438  A    
O5    Zn9   S    
C335  O67   A    
C353  H113  S    
C464  H245  S    
C12   C127  S    
C255  C271  A    
C404  C405  A    
C191  H31   S    
C256  C272  A    
C200  H40   S    
C448  H232  S    
C325  O54   A    
C113  C129  A    
C422  H210  S    
O44   Zn20  S    
C215  C231  A    
C301  C317  A    
C16   C123  S    
C285  C288  A    
O85   Zn13  S    
O97   Zn25  S    
O78   Zn6   S    
C303  C319  A    
C476  H255  S    
C115  C131  A    
C353  C369  A    
C131  C413  S    
C170  H186  S    
C215  C294  S    
C196  H36   S    
C456  H238  S    
C361  H121  S    
C467  C472  A    
C436  H222  S    
C133  C425  S    
C445  C446  A    
O74   Zn2   S    
C226  C242  A    
C3    O11   A    
C451  H234  S    
C240  C256  A    
C45   C373  S    
C2    O10   A    
C70   C81   A    
C275  H83   S    
C349  C382  A    
C469  C470  A    
C109  C167  S    
C162  F18   S    
C25   C37   A    
C127  C143  A    
C110  C168  S    
C484  H262  S    
C68   H164  S    
O55   Zn31  S    
C30   C37   A    
C163  F19   S    
C74   H170  S    
C28   C396  A    
C421  H209  S    
C134  C431  S    
O7    Zn32  S    
C174  F30   S    
O34   Zn26  S    
C273  C292  A    
C243  H67   S    
C346  H10   S    
C186  C266  A    
C391  F7    S    
C274  C291  A    
C76   C88   A    
C460  H242  S    
C102  C118  A    
C299  C315  A    
C24   C392  A    
C402  H193  S    
C187  C203  A    
C150  C260  S    
O13   Zn2   S    
C219  C298  S    
C332  O60   A    
C41   C369  S    
C339  C355  A    
C461  C466  A    
C237  H61   S    
C192  C208  A    
O16   Zn3   S    
O3    Zn3   S    
C6    C113  S    
C273  H81   S    
C350  C366  A    
C191  C271  A    
C351  C384  A    
O1    Zn1   S    
C14   O102  A    
C16   O24   A    
C466  H247  S    
C180  H20   S    
C110  C112  A    
C31   C399  A    
C43   C392  A    
C157  C267  S    
C295  C311  A    
C32   C400  A    
C24   C35   A    
C158  C268  S    
C332  O63   A    
C239  H63   S    
C250  C266  A    
C159  O39   A    
C29   C38   A    
C17   C33   A    
C218  C234  A    
C8    O96   A    
C236  H60   S    
C419  C420  A    
C27   C39   A    
C30   H142  S    
C277  H85   S    
C20   C36   A    
C195  H35   S    
C184  C200  A    
C452  H235  S    
C427  H214  S    
C108  C162  S    
C406  H197  S    
C222  C238  A    
C183  C199  A    
C333  O70   A    
C323  O43   A    
C18   H130  S    
C304  C320  A    
C178  C194  A    
C34   C90   S    
C441  C442  A    
C195  C211  A    
C459  H241  S    
C253  H77   S    
C64   H160  S    
C360  C371  A    
C330  O58   A    
O25   Zn17  S    
C204  H44   S    
C294  C310  A    
C187  C267  A    
C220  C297  S    
O9    Zn6   S    
C305  C308  A    
C205  H45   S    
C38   C94   S    
C154  O34   A    
C280  C293  A    
C340  C356  A    
C105  C121  A    
C147  O75   A    
O30   Zn22  S    
C74   C86   A    
O29   Zn21  S    
C50   C66   A    
C399  F15   S    
C480  C481  A    
C193  H33   S    
C80   C87   A    
C88   C336  S    
C232  H56   S    
C109  C125  A    
C77   C86   A    
C216  C293  S    
C426  H213  S    
O2    Zn5   S    
C315  H107  S    
O50   Zn26  S    
O58   Zn5   S    
C11   O99   A    
C354  H114  S    
C344  H8    S    
C97   C113  A    
C417  C418  A    
C60   H156  S    
C390  F6    S    
C59   C75   A    
C77   H173  S    
C163  H179  S    
C9    O97   A    
C10   O18   A    
C71   C84   A    
C401  C402  A    
C350  C381  A    
C470  H250  S    
C22   C33   A    
C287  H95   S    
C440  C441  A    
O87   Zn15  S    
C172  F28   S    
O18   Zn13  S    
C364  H124  S    
C445  H229  S    
O7    Zn27  S    
O17   Zn14  S    
C220  C236  A    
C307  H99   S    
C64   C95   A    
C316  H108  S    
C493  C494  A    
C148  O28   A    
C78   H174  S    
C368  C375  A    
O101  Zn29  S    
C420  C421  A    
C16   O104  A    
C153  O81   A    
C441  H226  S    
C99   C169  S    
C23   C391  A    
C159  C265  S    
C279  C294  A    
C148  O76   A    
C66   H162  S    
O51   Zn27  S    
C13   O101  A    
C247  C263  A    
C97   C171  S    
C175  H191  S    
C222  C303  S    
C454  H237  S    
C15   O103  A    
C431  C432  A    
C107  C161  S    
O66   Zn13  S    
C496  H272  S    
C58   C94   A    
C98   C172  S    
O65   Zn14  S    
O28   Zn20  S    
C313  C316  A    
C27   H139  S    
C13   C122  S    
C447  C448  A    
C283  C298  A    
C282  H90   S    
C149  O77   A    
C183  C263  A    
C205  C221  A    
C216  C232  A    
C159  O87   A    
C142  C479  S    
C1    C118  S    
C310  H102  S    
C398  F14   S    
C139  C461  S    
C8    C115  S    
O77   Zn5   S    
C396  F12   S    
C3    C120  S    
C48   C396  A    
C132  C419  S    
C190  H30   S    
C156  O84   A    
C462  C463  A    
C323  O48   A    
C238  H62   S    
C402  C403  A    
O102  Zn30  S    
O60   Zn7   S    
C249  H73   S    
C426  C427  A    
C328  O55   A    
C57   C93   A    
C182  C198  A    
C24   H136  S    
O56   Zn32  S    
C463  C464  A    
C444  H228  S    
C13   O21   A    
C198  H38   S    
C485  C486  A    
C349  C365  A    
C129  C131  A    
O10   Zn5   S    
C35   C91   S    
