data_mof_unit_34249.cif
_audit_creation_date              2012-12-10T17:02:29-0500
_audit_creation_method            fapswitch 2.2
_symmetry_space_group_name_H-M    P1
_symmetry_Int_Tables_number       1
_space_group_crystal_system       triclinic
_cell_length_a                    10.940878
_cell_length_b                    11.028504
_cell_length_c                    9.853287
_cell_angle_alpha                 111.239274
_cell_angle_beta                  98.101811
_cell_angle_gamma                 91.800608
_cell_volume                      1092.70534518

loop_
_atom_site_label
_atom_site_type_symbol
_atom_type_description
_atom_site_fract_x
_atom_site_fract_y
_atom_site_fract_z
_atom_type_partial_charge
C1    C     C_R   0.490501 0.254030 0.440443 0.872977
C2    C     C_R   0.506765 0.745885 0.559519 0.902339
C3    C     C_2   0.484878 0.114350 0.406882 -0.324981
C4    C     C_2   0.509192 0.885539 0.593072 -0.307334
C5    C     C_2   0.497887 0.069576 0.516370 -0.155347
C6    C     C_2   0.494188 0.930309 0.483646 -0.115603
C7    C     C_2   0.511707 0.510287 0.081890 -0.065084
C8    C     C_2   0.499104 0.481217 0.917682 -0.036384
C9    C     C_R   0.262096 0.501684 0.501764 0.832205
C10   C     C_R   0.737374 0.501171 0.498844 0.882784
C11   C     C_R   0.141686 0.537188 0.771833 0.540225
C12   C     C_R   0.853207 0.372475 0.223925 0.537244
C13   C     C_R   0.114978 0.632296 0.899076 -0.254490
C14   C     C_R   0.898964 0.377447 0.097639 -0.292725
C15   C     C_R   0.012184 0.702254 0.892757 -0.236949
C16   C     C_R   0.003862 0.460587 0.115349 -0.236746
C17   C     C_R   0.929816 0.669387 0.760123 0.191388
C18   C     C_R   0.076101 0.520995 0.254559 0.215854
C19   C     C_R   0.954960 0.567879 0.631798 -0.019609
C20   C     C_R   0.044830 0.491023 0.372925 -0.017202
C21   C     C_R   0.075848 0.529647 0.634239 -0.063911
C22   C     C_R   0.920434 0.451937 0.364707 -0.034990
C23   C     C_R   0.870812 0.505913 0.497762 -0.150057
C24   C     C_R   0.127577 0.506160 0.503775 -0.161884
Cu1   Cu    Cu3+1 0.521920 0.521810 0.644910 0.988645
Cu2   Cu    Cu3+1 0.478080 0.478190 0.355090 0.984571
H1    H     H_    0.027862 0.478034 0.021257 0.184868
H2    H     H_    0.997006 0.782087 0.990632 0.199092
H3    H     H_    0.175275 0.651645 0.001730 0.201625
H4    H     H_    0.851689 0.324579 0.986347 0.153043
H5    H     H_    0.479799 0.864006 0.368751 0.191335
H6    H     H_    0.512096 0.135896 0.631275 0.168550
H7    H     H_    0.524097 0.952156 0.707795 0.146504
H8    H     H_    0.470315 0.047745 0.292174 0.152184
H9    H     H_    0.441238 0.395077 0.842723 0.190480
H10   H     H_    0.580098 0.587592 0.156354 0.161089
H11   H     H_    0.608589 0.636344 0.937015 0.205627
H12   H     H_    0.381886 0.371623 0.063828 0.202984
N1    N     N_2   0.445130 0.445420 0.137360 -0.273527
N2    N     N_2   0.554870 0.554580 0.862640 -0.281671
O1    O     O_R   0.511700 0.332340 0.577400 -0.590309
O2    O     O_R   0.488300 0.667660 0.422600 -0.572380
O3    O     O_R   0.474680 0.295500 0.332650 -0.569998
O4    O     O_R   0.525320 0.704500 0.667350 -0.563838
O5    O     O_R   0.338170 0.518410 0.622370 -0.529830
O6    O     O_R   0.661830 0.481590 0.377630 -0.545793
O7    O     O_R   0.301150 0.481570 0.377630 -0.564190
O8    O     O_R   0.698850 0.518430 0.622370 -0.570824
O9    O     O_3   0.225805 0.450289 0.787930 -0.582907
C25   C     C_3   0.171404 0.320727 0.715129 -0.331054
H13   H     H_    0.232856 0.254694 0.748297 0.176860
H14   H     H_    0.079625 0.307480 0.747077 0.164532
H15   H     H_    0.162670 0.290477 0.593404 0.170152
O10   O     O_3   0.755079 0.285581 0.218844 -0.570717
C26   C     C_3   0.690966 0.213327 0.075670 -0.270304
H16   H     H_    0.611592 0.153400 0.085111 0.189434
H17   H     H_    0.751340 0.144788 0.008634 0.174232
H18   H     H_    0.652085 0.278719 0.020425 0.146737
I1    I     I_    0.810884 0.814833 0.752167 -0.425414
I2    I     I_    0.185665 0.698641 0.300630 -0.411511

loop_
_geom_bond_atom_site_label_1
_geom_bond_atom_site_label_2
_ccdc_geom_bond_type
C10   O6    A    
C25   H14   S    
C26   H16   S    
C9    C24   S    
C9    O5    A    
C11   O9    S    
Cu1   O5    S    
C10   C23   S    
C7    H10   S    
C19   C23   A    
C11   C21   A    
C5    H6    S    
C16   H1    S    
C13   C15   A    
C25   H13   S    
C12   C14   A    
C7    C8    S    
C16   C18   A    
C11   C13   A    
Cu1   O8    S    
C15   H2    S    
C5    C6    S    
Cu2   O7    S    
C17   I1    S    
C2    C4    S    
Cu1   O4    S    
C1    O1    A    
C19   C21   A    
C2    O2    A    
Cu2   O3    S    
C9    O7    A    
H11   N2    S    
C18   C20   A    
C26   H17   S    
Cu1   N2    S    
C10   O8    A    
H12   N1    S    
C14   C16   A    
Cu2   N1    S    
C26   H18   S    
C25   H15   S    
C13   H3    S    
Cu1   O1    S    
C12   C22   A    
C2    O4    A    
Cu2   O2    S    
C4    C6    D    
O9    C25   S    
C21   C24   A    
C18   I2    S    
C1    C3    S    
C15   C17   A    
C4    H7    S    
C7    N1    D    
O10   C26   S    
C6    H5    S    
C8    N2    D    
C3    H8    S    
C17   C19   A    
Cu1   Cu2   S    
C14   H4    S    
Cu2   O6    S    
C1    O3    A    
C22   C23   A    
C12   O10   S    
C20   C24   A    
C20   C22   A    
C3    C5    D    
C8    H9    S    
