data_mof_unit_5867.cif
_audit_creation_date              2013-03-05T15:47:39-0500
_audit_creation_method            fapswitch 2.2
_symmetry_space_group_name_H-M    P1
_symmetry_Int_Tables_number       1
_space_group_crystal_system       triclinic
_cell_length_a                    10.152978
_cell_length_b                    10.647886
_cell_length_c                    10.799978
_cell_angle_alpha                 89.849691
_cell_angle_beta                  95.215089
_cell_angle_gamma                 80.992195
_cell_volume                      1148.21969702

loop_
_atom_site_label
_atom_site_type_symbol
_atom_site_description
_atom_site_fract_x
_atom_site_fract_y
_atom_site_fract_z
_atom_type_partial_charge
O1    O     O_R   0.568940 0.489540 0.307530 -0.640808
O2    O     O_R   0.348880 0.522880 0.340350 -0.616933
C1    C     C_R   0.443981 0.504363 0.267355 0.933812
O3    O     O_R   0.610030 0.298130 0.483570 -0.650075
O4    O     O_R   0.389960 0.331470 0.516390 -0.609017
C2    C     C_R   0.498706 0.258282 0.494836 0.843954
Zn1   Zn    Zn3+2 0.646940 0.477740 0.478080 0.945420
Zn2   Zn    Zn3+2 0.353060 0.522260 0.521920 0.957690
O5    O     O_R   0.651120 0.477120 0.659650 -0.605697
O6    O     O_R   0.431060 0.510460 0.692470 -0.614126
O7    O     O_R   0.610040 0.668530 0.483610 -0.636687
O8    O     O_R   0.389970 0.701870 0.516430 -0.614846
C3    C     C_R   0.556029 0.487859 0.732688 1.009454
C4    C     C_R   0.499037 0.742165 0.495505 0.873825
C5    C     C_3   0.615922 0.053822 0.419031 -0.157563
H1    H     H_    0.713921 0.074283 0.461953 0.113501
C6    C     C_3   0.620428 0.909502 0.427924 -0.388365
H2    H     H_    0.618721 0.865785 0.334303 0.216871
H3    H     H_    0.717111 0.866428 0.479055 0.144548
C7    C     C_3   0.518522 0.070668 0.632006 -0.257180
C8    C     C_3   0.363819 0.091902 0.433312 -0.351478
C9    C     C_3   0.500155 0.121530 0.494176 0.001080
H4    H     H_    0.281296 0.131293 0.490234 0.206940
H5    H     H_    0.338792 0.137025 0.339404 0.216119
C10   C     C_3   0.500401 0.878435 0.496041 0.025995
C11   C     C_3   0.509718 0.925823 0.632911 -0.240449
C12   C     C_3   0.368887 0.947768 0.424766 -0.386946
H6    H     H_    0.363710 0.919502 0.325480 0.212586
H7    H     H_    0.278967 0.922020 0.464281 0.188414
H8    H     H_    0.432174 0.119134 0.680015 0.185587
H9    H     H_    0.413581 0.915004 0.671242 0.185931
H10   H     H_    0.385359 0.459952 0.893584 0.178425
H11   H     H_    0.614865 0.425458 0.106755 0.174512
C13   C     C_2   0.412299 0.494019 0.135404 -0.350843
C14   C     C_2   0.512118 0.452834 0.066395 -0.119274
H12   H     H_    0.690159 0.465716 0.905581 0.145875
C15   C     C_2   0.587746 0.468653 0.864801 -0.240119
C16   C     C_2   0.488059 0.456815 0.933921 -0.098340
H13   H     H_    0.309874 0.521565 0.094531 0.153796
H14   H     H_    0.892221 0.583436 0.570628 0.138657
H15   H     H_    0.110640 0.443360 0.403917 0.200486
N1    N     N_2   0.157300 0.551950 0.551120 -0.213350
C17   C     C_2   0.073463 0.498332 0.481249 -0.077075
N2    N     N_2   0.842730 0.448000 0.448950 -0.152104
C18   C     C_2   0.928703 0.512166 0.504967 -0.095371
H16   H     H_    0.120977 0.603563 0.624772 0.162845
C19   C     C_2   0.883145 0.345051 0.369521 0.524621
H17   H     H_    0.817894 0.329780 0.287711 0.031330
O9    O     O_2   0.983839 0.267578 0.397046 -0.629548
C20   C     C_2   0.605714 0.101263 0.285142 0.420486
H18   H     H_    0.663962 0.173311 0.260987 0.066838
O10   O     O_2   0.530475 0.062792 0.204289 -0.554363
C21   C     C_2   0.644184 0.103724 0.703519 0.441925
H19   H     H_    0.742434 0.067630 0.674809 0.055845
O11   O     O_2   0.635943 0.170375 0.795137 -0.563586
C22   C     C_2   0.620278 0.845812 0.716402 0.429501
H20   H     H_    0.723683 0.835964 0.694994 0.043450
O12   O     O_2   0.593739 0.791268 0.808356 -0.566178

loop_
_geom_bond_atom_site_label_1
_geom_bond_atom_site_label_2
_geom_bond_distance
_ccdc_geom_bond_type
O4    Zn2   2.009312 S    
C20   O10   1.221651 D    
C5    C6    1.532701 S    
C15   C16   1.332047 D    
H10   C16   1.088387 S    
C12   H7    1.113272 S    
C17   C18   1.499434 S    
C3    C15   1.440715 S    
C19   H17   1.083539 S    
N2    C19   1.426169 S    
O8    C4    1.286524 A    
Zn2   O8    2.007325 S    
C6    C10   1.556798 S    
C21   O11   1.220604 D    
C6    H2    1.114068 S    
C8    C12   1.530821 S    
C11   H9    1.116140 S    
C19   O9    1.222062 D    
C7    H8    1.116292 S    
C21   H19   1.084306 S    
C22   H20   1.084639 S    
Zn1   O7    2.009312 S    
H15   C17   1.083199 S    
O4    C2    1.287925 A    
C7    C11   1.558853 S    
O3    Zn1   2.007324 S    
C8    C9    1.555666 S    
H12   C15   1.087477 S    
C6    H3    1.112662 S    
C22   O12   1.220978 D    
O2    C1    1.293153 A    
C8    H4    1.113901 S    
C4    C10   1.453242 S    
H14   C18   1.085589 S    
H11   C14   1.088419 S    
O7    C4    1.285129 A    
C5    C20   1.519647 S    
O3    C2    1.283450 A    
C10   C12   1.556266 S    
N1    C17   1.287471 D    
C7    C9    1.567664 S    
C13   H13   1.087507 S    
C2    C9    1.453938 S    
C14   C16   1.428740 S    
N2    C18   1.299099 D    
Zn2   O6    1.933424 S    
C13   C14   1.332198 D    
N1    H16   1.030975 S    
C8    H5    1.111929 S    
C12   H6    1.113347 S    
Zn1   O5    1.957523 S    
O5    C3    1.292961 A    
O1    Zn1   1.933422 S    
C1    C13   1.440489 S    
C20   H18   1.084160 S    
C10   C11   1.562706 S    
Zn1   N2    2.016904 S    
C5    C9    1.571956 S    
O2    Zn2   1.957521 S    
C5    H1    1.112161 S    
Zn2   N1    2.016792 S    
C7    C21   1.520224 S    
O1    C1    1.288269 A    
O6    C3    1.288448 A    
C11   C22   1.520341 S    
