data_mof_unit_62172.cif
_audit_creation_date              2012-10-26T18:07:34-0400
_audit_creation_method            fapswitch 2.2
_symmetry_space_group_name_H-M    P1
_symmetry_Int_Tables_number       1
_space_group_crystal_system       triclinic
_cell_length_a                    29.372303
_cell_length_b                    30.737477
_cell_length_c                    21.26772
_cell_angle_alpha                 89.999963
_cell_angle_beta                  133.684633
_cell_angle_gamma                 90.000049
_cell_volume                      13885.3551727

loop_
_atom_site_label
_atom_site_type_symbol
_atom_type_description
_atom_site_fract_x
_atom_site_fract_y
_atom_site_fract_z
_atom_type_partial_charge
C1    C     C_R   0.307125 0.190686 0.118729 0.607345
C2    C     C_R   0.617276 0.866966 0.671204 -0.009978
C3    C     C_R   0.306476 0.807486 0.257709 0.372794
C4    C     C_R   0.806469 0.692510 0.257703 0.372793
C5    C     C_R   0.193525 0.307487 0.742291 0.372794
C6    C     C_R   0.193519 0.692516 0.742286 0.372795
C7    C     C_R   0.806476 0.307486 0.257709 0.372794
C8    C     C_R   0.316725 0.198160 0.331636 -0.137161
C9    C     C_R   0.683265 0.801836 0.668355 -0.137162
C10   C     C_R   0.683256 0.198168 0.668347 -0.137162
C11   C     C_R   0.316736 0.801835 0.331646 -0.137161
C12   C     C_R   0.816725 0.698160 0.331636 -0.137161
C13   C     C_R   0.617274 0.133035 0.671202 -0.009978
C14   C     C_R   0.183265 0.301836 0.668355 -0.137162
C15   C     C_R   0.183256 0.698168 0.668347 -0.137162
C16   C     C_R   0.816736 0.301835 0.331646 -0.137161
C17   C     C_R   0.361844 0.173528 0.405566 -0.142063
C18   C     C_R   0.638146 0.826468 0.594426 -0.142062
C19   C     C_R   0.638137 0.173536 0.594419 -0.142062
C20   C     C_R   0.361855 0.826467 0.405574 -0.142062
C21   C     C_R   0.861844 0.673528 0.405566 -0.142063
C22   C     C_R   0.138146 0.326468 0.594426 -0.142062
C23   C     C_R   0.138137 0.673536 0.594419 -0.142062
C24   C     C_R   0.382724 0.866966 0.328796 -0.009978
C25   C     C_R   0.861855 0.326467 0.405574 -0.142062
C26   C     C_R   0.394739 0.141211 0.404910 0.390924
C27   C     C_R   0.605255 0.858787 0.595085 0.390923
C28   C     C_R   0.605249 0.141215 0.595081 0.390922
C29   C     C_R   0.394745 0.858787 0.404915 0.390923
C30   C     C_R   0.894739 0.641211 0.404910 0.390924
C31   C     C_R   0.105255 0.358787 0.595085 0.390923
C32   C     C_R   0.105249 0.641215 0.595081 0.390923
C33   C     C_R   0.894745 0.358787 0.404915 0.390923
C34   C     C_R   0.882721 0.633033 0.328794 -0.009978
C35   C     C_R   0.117276 0.366966 0.671204 -0.009978
C36   C     C_R   0.117273 0.633035 0.671202 -0.009977
C37   C     C_R   0.882724 0.366966 0.328796 -0.009978
C38   C     C_R   0.341971 0.161598 0.256851 -0.021628
C39   C     C_R   0.658026 0.838401 0.743146 -0.021628
C40   C     C_R   0.658023 0.161600 0.743143 -0.021628
C41   C     C_R   0.692875 0.809314 0.881271 0.607342
C42   C     C_R   0.341974 0.838401 0.256854 -0.021628
C43   C     C_R   0.841971 0.661598 0.256851 -0.021628
C44   C     C_R   0.158026 0.338401 0.743146 -0.021628
C45   C     C_R   0.158023 0.661600 0.743143 -0.021628
C46   C     C_R   0.841974 0.338401 0.256854 -0.021628
C47   C     C_R   0.337579 0.157737 0.186251 0.021440
C48   C     C_R   0.662421 0.842263 0.813748 0.021438
C49   C     C_R   0.662422 0.157737 0.813748 0.021437
C50   C     C_R   0.337579 0.842263 0.186251 0.021438
C51   C     C_R   0.837579 0.657737 0.186251 0.021440
C52   C     C_R   0.692875 0.190686 0.881271 0.607340
C53   C     C_R   0.162421 0.342263 0.813748 0.021438
C54   C     C_R   0.162422 0.657737 0.813748 0.021437
C55   C     C_R   0.837579 0.342263 0.186251 0.021438
C56   C     C_R   0.367824 0.123856 0.183555 -0.166174
C57   C     C_R   0.632180 0.876145 0.816448 -0.166172
C58   C     C_R   0.632183 0.123853 0.816451 -0.166171
C59   C     C_R   0.367820 0.876145 0.183552 -0.166171
C60   C     C_R   0.867824 0.623856 0.183555 -0.166173
C61   C     C_R   0.132180 0.376145 0.816448 -0.166172
C62   C     C_R   0.132183 0.623853 0.816451 -0.166171
C63   C     C_R   0.307125 0.809314 0.118729 0.607342
C64   C     C_R   0.867820 0.376145 0.183552 -0.166171
C65   C     C_R   0.403317 0.093904 0.250348 -0.164388
C66   C     C_R   0.596687 0.906097 0.749656 -0.164391
C67   C     C_R   0.596691 0.093901 0.749659 -0.164393
C68   C     C_R   0.403313 0.906098 0.250344 -0.164391
C69   C     C_R   0.903317 0.593904 0.250348 -0.164389
C70   C     C_R   0.096687 0.406097 0.749656 -0.164391
C71   C     C_R   0.096691 0.593901 0.749659 -0.164393
C72   C     C_R   0.903313 0.406098 0.250344 -0.164391
C73   C     C_R   0.410538 0.097789 0.322240 0.046279
C74   C     C_R   0.807125 0.690686 0.118729 0.607345
C75   C     C_R   0.589462 0.902211 0.677760 0.046277
C76   C     C_R   0.589462 0.097789 0.677761 0.046275
C77   C     C_R   0.410538 0.902211 0.322240 0.046277
C78   C     C_R   0.910538 0.597789 0.322240 0.046279
C79   C     C_R   0.089462 0.402211 0.677760 0.046277
C80   C     C_R   0.089462 0.597789 0.677761 0.046275
C81   C     C_R   0.910538 0.402211 0.322240 0.046277
C82   C     C_R   0.942382 0.437607 0.384928 0.658102
C83   C     C_R   0.057618 0.562392 0.615072 0.658099
C84   C     C_R   0.057618 0.437607 0.615072 0.658101
C85   C     C_R   0.192875 0.309314 0.881271 0.607342
C86   C     C_R   0.942382 0.562393 0.384928 0.658103
C87   C     C_R   0.442382 0.937607 0.384928 0.658102
C88   C     C_R   0.557618 0.062392 0.615072 0.658099
C89   C     C_R   0.557617 0.937607 0.615072 0.658101
C90   C     C_R   0.442383 0.062393 0.384928 0.658103
C91   C     C_R   0.334721 0.249814 0.000242 0.585380
C92   C     C_R   0.665279 0.750186 0.999757 0.585386
C93   C     C_R   0.665279 0.249814 0.999757 0.585381
C94   C     C_R   0.334720 0.750186 0.000242 0.585377
C95   C     C_R   0.834721 0.749814 0.000242 0.585380
C96   C     C_R   0.192875 0.690686 0.881271 0.607340
C97   C     C_R   0.165279 0.250186 0.999757 0.585386
C98   C     C_R   0.165279 0.749814 0.999757 0.585381
C99   C     C_R   0.834720 0.250186 0.000242 0.585377
C100  C     C_1   0.385975 0.249847 0.000187 0.010180
C101  C     C_1   0.614025 0.750153 0.999813 0.010184
C102  C     C_1   0.614025 0.249847 0.999813 0.010181
C103  C     C_1   0.385974 0.750153 0.000187 0.010178
C104  C     C_1   0.885975 0.749847 0.000187 0.010180
C105  C     C_1   0.114025 0.250153 0.999813 0.010184
C106  C     C_1   0.114025 0.749847 0.999813 0.010181
C107  C     C_R   0.807125 0.309314 0.118729 0.607342
C108  C     C_1   0.885974 0.250153 0.000187 0.010178
C109  C     C_1   0.428417 0.249867 0.000107 -0.019861
C110  C     C_1   0.571583 0.750133 0.999893 -0.019861
C111  C     C_1   0.571583 0.249867 0.999893 -0.019861
C112  C     C_1   0.428416 0.750133 0.000106 -0.019861
C113  C     C_1   0.928417 0.749867 0.000107 -0.019861
C114  C     C_1   0.071583 0.250133 0.999893 -0.019861
C115  C     C_1   0.071583 0.749867 0.999893 -0.019861
C116  C     C_1   0.928416 0.250133 0.000106 -0.019861
C117  C     C_1   0.478772 0.249878 0.000029 0.007860
C118  C     C_R   0.382721 0.133033 0.328794 -0.009978
C119  C     C_1   0.521227 0.750121 0.999971 0.007859
C120  C     C_1   0.521228 0.249878 0.999971 0.007860
C121  C     C_1   0.478772 0.750121 0.000029 0.007860
C122  C     C_1   0.978772 0.749878 0.000029 0.007860
C123  C     C_1   0.021227 0.250121 0.999971 0.007859
C124  C     C_1   0.021228 0.749878 0.999971 0.007860
C125  C     C_1   0.978772 0.250122 0.000029 0.007860
C126  C     C_R   0.306469 0.192511 0.257703 0.372793
C127  C     C_R   0.693525 0.807487 0.742291 0.372794
C128  C     C_R   0.693519 0.192516 0.742286 0.372795
Cu1   Cu    Cu3+1 0.280720 0.280980 0.061500 1.018492
Cu2   Cu    Cu3+1 0.957580 0.500000 0.500070 1.063419
Cu3   Cu    Cu3+1 0.542420 0.000000 0.499930 1.063411
Cu4   Cu    Cu3+1 0.457580 0.000000 0.500070 1.063420
Cu5   Cu    Cu3+1 0.719280 0.719020 0.938500 1.018497
Cu6   Cu    Cu3+1 0.719280 0.280980 0.938500 1.018498
Cu7   Cu    Cu3+1 0.280720 0.719020 0.061500 1.018494
Cu8   Cu    Cu3+1 0.780720 0.780980 0.061500 1.018492
Cu9   Cu    Cu3+1 0.219280 0.219020 0.938500 1.018497
Cu10  Cu    Cu3+1 0.219280 0.780980 0.938500 1.018498
Cu11  Cu    Cu3+1 0.780720 0.219020 0.061500 1.018494
Cu12  Cu    Cu3+1 0.042420 0.500000 0.499930 1.063411
F1    F     F_    0.259268 0.215807 0.186250 -0.631301
F2    F     F_    0.559571 0.879959 0.519304 -0.603158
F3    F     F_    0.559567 0.120041 0.519301 -0.603162
F4    F     F_    0.440428 0.879960 0.480696 -0.603158
F5    F     F_    0.940422 0.620039 0.480693 -0.603156
F6    F     F_    0.059571 0.379959 0.519304 -0.603158
F7    F     F_    0.059567 0.620041 0.519301 -0.603162
F8    F     F_    0.940428 0.379960 0.480696 -0.603158
F9    F     F_    0.740727 0.784190 0.813743 -0.631299
F10   F     F_    0.740723 0.215812 0.813737 -0.631297
F11   F     F_    0.259273 0.784190 0.186257 -0.631299
F12   F     F_    0.759268 0.715807 0.186250 -0.631301
F13   F     F_    0.240727 0.284190 0.813743 -0.631299
F14   F     F_    0.240722 0.715812 0.813737 -0.631297
F15   F     F_    0.759273 0.284190 0.186257 -0.631299
F16   F     F_    0.440422 0.120039 0.480693 -0.603155
H1    H     H_    0.364508 0.120848 0.129713 0.129816
H2    H     H_    0.710205 0.777886 0.668177 0.153081
H3    H     H_    0.710194 0.222119 0.668167 0.153081
H4    H     H_    0.289797 0.777885 0.331824 0.153081
H5    H     H_    0.789782 0.722108 0.331811 0.153081
H6    H     H_    0.210205 0.277886 0.668177 0.153081
H7    H     H_    0.210194 0.722119 0.668167 0.153081
H8    H     H_    0.789796 0.277885 0.331824 0.153081
H9    H     H_    0.371021 0.179237 0.463711 0.151007
H10   H     H_    0.628966 0.820758 0.536278 0.151007
H11   H     H_    0.628955 0.179246 0.536270 0.151007
H12   H     H_    0.635498 0.879154 0.870292 0.129819
H13   H     H_    0.371035 0.820757 0.463722 0.151007
H14   H     H_    0.871021 0.679237 0.463711 0.151007
H15   H     H_    0.128966 0.320758 0.536278 0.151007
H16   H     H_    0.128955 0.679246 0.536270 0.151007
H17   H     H_    0.871035 0.320757 0.463722 0.151007
H18   H     H_    0.424685 0.067125 0.245340 0.124648
H19   H     H_    0.575321 0.932878 0.754665 0.124645
H20   H     H_    0.575327 0.067120 0.754670 0.124644
H21   H     H_    0.424679 0.932878 0.245334 0.124645
H22   H     H_    0.924685 0.567125 0.245340 0.124648
H23   H     H_    0.635505 0.120843 0.870297 0.129822
H24   H     H_    0.075321 0.432878 0.754665 0.124646
H25   H     H_    0.075327 0.567120 0.754670 0.124644
H26   H     H_    0.924679 0.432878 0.245334 0.124645
H27   H     H_    0.364501 0.879155 0.129708 0.129819
H28   H     H_    0.864508 0.620848 0.129713 0.129816
H29   H     H_    0.135498 0.379155 0.870292 0.129819
H30   H     H_    0.135505 0.620843 0.870297 0.129822
H31   H     H_    0.864501 0.379155 0.129708 0.129819
H32   H     H_    0.289782 0.222109 0.331811 0.153081
O1    O     O_R   0.321010 0.231060 0.142100 -0.459715
O2    O     O_R   0.730960 0.821350 0.961860 -0.520481
O3    O     O_R   0.730960 0.178650 0.961860 -0.520484
O4    O     O_R   0.269040 0.821350 0.038140 -0.520482
O5    O     O_R   0.769040 0.678650 0.038140 -0.520479
O6    O     O_R   0.230960 0.321350 0.961860 -0.520481
O7    O     O_R   0.230960 0.678650 0.961860 -0.520484
O8    O     O_R   0.769040 0.321350 0.038140 -0.520482
O9    O     O_R   0.337910 0.276140 0.051940 -0.504793
O10   O     O_R   0.662090 0.723860 0.948060 -0.504792
O11   O     O_R   0.662090 0.276140 0.948060 -0.504793
O12   O     O_R   0.678990 0.768940 0.857900 -0.459712
O13   O     O_R   0.337910 0.723860 0.051940 -0.504794
O14   O     O_R   0.837910 0.776140 0.051940 -0.504793
O15   O     O_R   0.162090 0.223860 0.948060 -0.504792
O16   O     O_R   0.162090 0.776140 0.948060 -0.504793
O17   O     O_R   0.837910 0.223860 0.051940 -0.504794
O18   O     O_R   0.285940 0.223740 0.947980 -0.453060
O19   O     O_R   0.714060 0.776260 0.052020 -0.453062
O20   O     O_R   0.714060 0.223740 0.052020 -0.453058
O21   O     O_R   0.285940 0.776260 0.947980 -0.453058
O22   O     O_R   0.785940 0.723740 0.947980 -0.453060
O23   O     O_R   0.678990 0.231060 0.857900 -0.459708
O24   O     O_R   0.214060 0.276260 0.052020 -0.453062
O25   O     O_R   0.214060 0.723740 0.052020 -0.453058
O26   O     O_R   0.785940 0.276260 0.947980 -0.453058
O27   O     O_R   0.990910 0.454660 0.410130 -0.490088
O28   O     O_R   0.009090 0.545340 0.589870 -0.490085
O29   O     O_R   0.009090 0.454660 0.589870 -0.490088
O30   O     O_R   0.990910 0.545340 0.410130 -0.490092
O31   O     O_R   0.490910 0.954660 0.410130 -0.490088
O32   O     O_R   0.509090 0.045340 0.589870 -0.490085
O33   O     O_R   0.509090 0.954660 0.589870 -0.490088
O34   O     O_R   0.321010 0.768940 0.142100 -0.459711
O35   O     O_R   0.490910 0.045340 0.410130 -0.490092
O36   O     O_R   0.919170 0.454670 0.410130 -0.485208
O37   O     O_R   0.080830 0.545330 0.589870 -0.485211
O38   O     O_R   0.080830 0.454670 0.589870 -0.485209
O39   O     O_R   0.919170 0.545330 0.410130 -0.485206
O40   O     O_R   0.419170 0.954670 0.410130 -0.485208
O41   O     O_R   0.580830 0.045330 0.589870 -0.485211
O42   O     O_R   0.580830 0.954670 0.589870 -0.485209
O43   O     O_R   0.419170 0.045330 0.410130 -0.485206
O44   O     O_R   0.821010 0.731060 0.142100 -0.459714
O45   O     O_R   0.178990 0.268940 0.857900 -0.459712
O46   O     O_R   0.178990 0.731060 0.857900 -0.459708
O47   O     O_R   0.821010 0.268940 0.142100 -0.459711
O48   O     O_R   0.269040 0.178650 0.038140 -0.520479

loop_
_geom_bond_atom_site_label_1
_geom_bond_atom_site_label_2
_ccdc_geom_bond_type
C61   C70   A    
C60   H28   S    
Cu7   Cu10  S    
C3    C42   A    
Cu5   O10   S    
Cu5   O22   S    
C97   O24   A    
C65   H18   S    
C24   C42   A    
C71   H25   S    
C26   F16   S    
C84   O29   A    
C51   C74   S    
C57   C66   A    
C84   O38   A    
Cu8   O14   S    
C83   O28   A    
C102  C111  T    
C109  C117  S    
C48   C57   A    
Cu7   O13   S    
C32   F7    S    
C110  C119  S    
C16   H8    S    
C95   O14   A    
C99   C108  S    
Cu8   O44   S    
Cu12  O37   S    
C9    C127  A    
C19   H11   S    
C41   O2    A    
C99   O17   A    
C85   O45   A    
C17   C26   A    
C32   C36   A    
C15   H7    S    
C93   O11   A    
Cu9   O48   S    
C73   C90   S    
Cu11  O3    S    
Cu4   O40   S    
C89   O33   A    
C79   C84   S    
C69   H22   S    
C92   O10   A    
C85   O6    A    
C123  C125  T    
C82   O36   A    
C1    O48   A    
C21   H14   S    
C40   C128  A    
C68   H21   S    
C16   C25   A    
C27   F2    S    
C65   C73   A    
Cu3   O31   S    
C86   O30   A    
C24   C29   A    
C71   C80   A    
C13   C40   A    
Cu11  O17   S    
Cu12  O27   S    
C6    C15   A    
C31   F6    S    
Cu10  O16   S    
C2    C39   A    
C96   O7    A    
C23   H16   S    
Cu1   O1    S    
C46   C55   A    
C52   O23   A    
C13   C28   A    
Cu2   O28   S    
C2    C27   A    
C73   C118  A    
C87   O31   A    
C89   O42   A    
C4    C12   A    
C63   O4    A    
C67   H20   S    
C21   C30   A    
C54   C96   S    
C22   H15   S    
Cu9   O18   S    
C97   C105  S    
C15   C23   A    
Cu3   O41   S    
Cu6   O8    S    
C20   H13   S    
C12   H5    S    
C74   O5    A    
Cu2   Cu12  S    
C100  C109  T    
C50   C63   S    
C63   O34   A    
C37   C81   A    
C69   C78   A    
C128  F10   S    
C53   C61   A    
C97   O15   A    
C41   O12   A    
C10   C128  A    
C44   C53   A    
C107  O8    A    
C38   C126  A    
C11   H4    S    
Cu1   O6    S    
C86   O39   A    
C20   C29   A    
C119  C121  T    
C18   H10   S    
Cu6   O11   S    
C4    F12   S    
C11   C20   A    
C39   C127  A    
C22   C31   A    
C113  C122  S    
C6    C45   A    
Cu4   O33   S    
C7    C46   A    
C26   C118  A    
C105  C114  T    
C60   C69   A    
C74   O44   A    
C36   C80   A    
C117  C120  T    
Cu6   Cu11  S    
C57   H12   S    
C58   H23   S    
C30   C34   A    
C1    C47   S    
Cu9   O15   S    
C101  C110  T    
C29   F4    S    
C12   C21   A    
C81   C82   S    
C49   C58   A    
C88   O32   A    
Cu8   O2    S    
C103  C112  T    
Cu4   O32   S    
C52   O3    A    
C91   O9    A    
C14   H6    S    
Cu2   O29   S    
C56   H1    S    
C35   C44   A    
C33   F8    S    
C59   C68   A    
Cu5   Cu8   S    
C9    C18   A    
C13   C76   A    
C10   C19   A    
C49   C52   S    
C55   C64   A    
C61   H29   S    
C5    C14   A    
Cu1   Cu9   S    
C36   C45   A    
C28   F3    S    
Cu1   O24   S    
C59   H27   S    
C19   C28   A    
C38   C47   A    
C6    F14   S    
C92   C101  S    
C42   C50   A    
Cu1   O9    S    
C114  C123  S    
Cu3   O42   S    
C8    C126  A    
C7    C16   A    
C4    C43   A    
C98   O25   A    
C45   C54   A    
C87   O40   A    
Cu5   O12   S    
C116  C125  S    
Cu11  O47   S    
C14   C22   A    
C91   C100  S    
C31   C35   A    
C90   O43   A    
Cu10  O46   S    
C50   C59   A    
Cu9   O45   S    
C94   O13   A    
Cu4   O43   S    
C115  C124  S    
C91   O18   A    
C95   C104  S    
C30   F5    S    
C80   C83   S    
C76   C88   S    
C83   O37   A    
C98   O16   A    
C68   C77   A    
Cu7   O34   S    
C107  O47   A    
Cu12  O30   S    
Cu6   O23   S    
C126  F1    S    
C70   C79   A    
C95   O22   A    
C3    F11   S    
C5    C44   A    
Cu10  O4    S    
C34   C43   A    
C72   C81   A    
C98   C106  S    
C93   C102  S    
Cu2   O39   S    
Cu8   O19   S    
C53   C85   S    
C111  C120  S    
C99   O26   A    
C54   C62   A    
C94   C103  S    
Cu10  O21   S    
Cu12  O38   S    
C8    C17   A    
Cu6   O26   S    
C62   H30   S    
C106  C115  T    
C18   C27   A    
C23   C32   A    
C108  C116  T    
C51   C60   A    
Cu2   O36   S    
C72   H26   S    
C112  C121  S    
C92   O19   A    
C17   H9    S    
C34   C78   A    
C82   O27   A    
C70   H24   S    
C40   C49   A    
Cu7   O25   S    
C9    H2    S    
C43   C51   A    
C5    F13   S    
C66   C75   A    
C35   C79   A    
C41   C48   S    
C62   C71   A    
C88   O41   A    
C64   C72   A    
Cu3   Cu4   S    
C66   H19   S    
C33   C37   A    
C64   H31   S    
C3    C11   A    
Cu11  O20   S    
C75   C89   S    
Cu7   O7    S    
C104  C113  T    
C38   C118  A    
C25   H17   S    
C58   C67   A    
C90   O35   A    
C7    F15   S    
C77   C87   S    
C94   O21   A    
Cu5   O5    S    
C78   C86   S    
C55   C107  S    
C24   C77   A    
C96   O46   A    
C39   C48   A    
Cu3   O35   S    
C67   C76   A    
C37   C46   A    
C93   O20   A    
C122  C124  T    
C10   H3    S    
C8    H32   S    
C127  F9    S    
C2    C75   A    
C56   C65   A    
C25   C33   A    
C47   C56   A    
C1    O1    A    
