data_mof_unit_17994.cif
_audit_creation_date              2012-12-10T18:06:45-0500
_audit_creation_method            fapswitch 2.2
_symmetry_space_group_name_H-M    P1
_symmetry_Int_Tables_number       1
_space_group_crystal_system       triclinic
_cell_length_a                    12.627668
_cell_length_b                    13.184709
_cell_length_c                    15.515491
_cell_angle_alpha                 83.439123
_cell_angle_beta                  98.761649
_cell_angle_gamma                 97.004823
_cell_volume                      2521.92299703

loop_
_atom_site_label
_atom_site_type_symbol
_atom_type_description
_atom_site_fract_x
_atom_site_fract_y
_atom_site_fract_z
_atom_type_partial_charge
C1    C     C_R   0.443744 0.308075 0.511892 0.880775
C2    C     C_R   0.455783 0.566633 0.095947 0.089771
C3    C     C_R   0.348043 0.581221 0.060086 0.105804
C4    C     C_R   0.534910 0.568554 0.039849 0.085854
C5    C     C_R   0.500493 0.567619 0.948954 0.067306
C6    C     C_R   0.394436 0.589577 0.914715 -0.210601
C7    C     C_R   0.319897 0.597779 0.969772 -0.205130
C8    C     C_R   0.646458 0.569087 0.071145 -0.202626
C9    C     C_R   0.719886 0.557939 0.015377 -0.217554
C10   C     C_R   0.683728 0.541587 0.928151 0.164411
C11   C     C_R   0.573112 0.543977 0.895237 0.087070
C12   C     C_R   0.435463 0.514359 0.335904 0.919280
C13   C     C_R   0.756012 0.521292 0.873449 -0.189428
C14   C     C_R   0.718529 0.501511 0.786944 -0.203950
C15   C     C_R   0.536638 0.516504 0.810926 -0.204684
C16   C     C_R   0.728823 0.935639 0.550817 -0.220458
C17   C     C_R   0.595207 0.800636 0.497589 -0.073793
C18   C     C_R   0.297482 0.161949 0.499840 0.118842
C19   C     C_R   0.266787 0.057045 0.497588 -0.200750
C20   C     C_R   0.344271 0.988871 0.508761 -0.192019
C21   C     C_R   0.455109 0.023997 0.526377 0.103757
C22   C     C_R   0.484811 0.126651 0.544523 0.049728
C23   C     C_R   0.557351 0.691850 0.491310 0.877883
C24   C     C_R   0.537770 0.961077 0.525505 0.099158
C25   C     C_R   0.646425 0.996161 0.554881 0.145677
C26   C     C_R   0.671378 0.091515 0.587519 -0.209879
C27   C     C_R   0.591297 0.155732 0.583362 -0.160838
C28   C     C_R   0.515420 0.865671 0.492913 -0.235963
C29   C     C_R   0.704266 0.837676 0.521571 0.101195
C30   C     C_R   0.407756 0.197758 0.521789 -0.114762
C31   C     C_R   0.138111 0.637688 0.626614 -0.064228
C32   C     C_R   0.759893 0.380279 0.395328 0.522131
C33   C     C_R   0.855864 0.354813 0.375254 -0.278561
C34   C     C_R   0.565276 0.489388 0.663625 0.852492
C35   C     C_R   0.952294 0.398735 0.416518 -0.238764
C36   C     C_R   0.953280 0.468845 0.478970 0.056233
C37   C     C_R   0.853417 0.491918 0.498196 0.146628
C38   C     C_R   0.049170 0.517532 0.522135 -0.034013
C39   C     C_R   0.043813 0.586614 0.585084 0.117669
C40   C     C_R   0.944161 0.604759 0.604634 -0.239816
C41   C     C_R   0.850712 0.558995 0.560813 -0.198692
C42   C     C_R   0.150716 0.501184 0.504343 -0.085096
C43   C     C_R   0.236463 0.619560 0.604515 0.457036
C44   C     C_R   0.400243 0.535109 0.241316 -0.153006
C45   C     C_R   0.608095 0.498910 0.755670 -0.053250
C46   C     C_R   0.268672 0.575910 0.114670 -0.237226
C47   C     C_R   0.293326 0.552274 0.204799 0.398081
C48   C     C_R   0.479354 0.542602 0.186256 -0.291808
H1    H     H_    0.238616 0.612405 0.941404 0.146259
H2    H     H_    0.841200 0.521068 0.897453 0.141510
H3    H     H_    0.753301 0.117655 0.614150 0.144120
H4    H     H_    0.812023 0.964246 0.571243 0.132721
H5    H     H_    0.435004 0.838861 0.464520 0.167322
H6    H     H_    0.314897 0.908969 0.504845 0.164252
H7    H     H_    0.182455 0.028672 0.483060 0.146420
H8    H     H_    0.613926 0.228414 0.610732 0.159420
H9    H     H_    0.451486 0.506408 0.787637 0.175534
H10   H     H_    0.937371 0.656516 0.652488 0.185216
H11   H     H_    0.163225 0.449539 0.458955 0.187350
H12   H     H_    0.023860 0.375557 0.398078 0.180458
H13   H     H_    0.855823 0.300690 0.327705 0.191145
H14   H     H_    0.777140 0.579589 0.575803 0.231521
H15   H     H_    0.775601 0.488906 0.744788 0.162009
H16   H     H_    0.804603 0.558375 0.041411 0.159590
H17   H     H_    0.186355 0.587354 0.086867 0.171538
H18   H     H_    0.559077 0.525261 0.214625 0.201804
H19   H     H_    0.367532 0.602269 0.845316 0.185067
H20   H     H_    0.679610 0.580579 0.138050 0.156032
N1    N     N_R   0.239390 0.551900 0.544730 -0.138427
N2    N     N_R   0.759950 0.448600 0.455730 -0.168382
O1    O     O_R   0.374950 0.371210 0.521360 -0.598105
O2    O     O_R   0.542050 0.338030 0.492790 -0.568067
O3    O     O_R   0.368720 0.526070 0.390200 -0.564164
O4    O     O_R   0.535820 0.492890 0.361630 -0.577794
O5    O     O_R   0.457950 0.661970 0.507210 -0.557866
O6    O     O_R   0.625050 0.628790 0.478640 -0.632716
O7    O     O_R   0.464180 0.507110 0.638370 -0.570362
O8    O     O_R   0.631280 0.473930 0.609800 -0.659777
Zn1   Zn    Zn3+2 0.388420 0.522150 0.519080 1.020019
Zn2   Zn    Zn3+2 0.611580 0.477850 0.480920 0.969878
N3    N     N_3   0.789141 0.776301 0.517229 -0.452602
H21   H     H_    0.791985 0.770479 0.450995 0.204492
H22   H     H_    0.863835 0.813003 0.542151 0.180568
N4    N     N_3   0.216523 0.231578 0.477689 -0.437980
H23   H     H_    0.177321 0.220591 0.414532 0.189304
H24   H     H_    0.159841 0.212782 0.521118 0.177698
Cl1   Cl    Cl    0.355665 0.684975 0.654908 -0.662651
N5    N     N_3   0.133370 0.707777 0.689998 -0.468801
H25   H     H_    0.168758 0.780116 0.668124 0.224988
H26   H     H_    0.177811 0.682249 0.749315 0.213685
Cl2   Cl    Cl    0.640957 0.319582 0.341122 -0.598402
Cl3   Cl    Cl    0.185444 0.541543 0.266505 -0.643708

loop_
_geom_bond_atom_site_label_1
_geom_bond_atom_site_label_2
_ccdc_geom_bond_type
C12   O4    A    
C9    H16   S    
C17   C29   A    
C47   Cl3   S    
C35   C36   A    
C23   O6    A    
C4    C8    A    
O1    Zn1   S    
N3    H21   S    
C26   C27   A    
C17   C23   S    
C31   C43   A    
C21   C22   A    
C36   C37   A    
N4    H24   S    
C5    C11   A    
C3    C7    A    
C34   O7    A    
C5    C6    A    
O8    Zn2   S    
C32   Cl2   S    
C18   C19   A    
C11   C15   A    
C19   C20   A    
C8    C9    A    
C18   N4    S    
C18   C30   A    
C9    C10   A    
C44   C47   A    
C43   N1    A    
O4    Zn2   S    
C13   C14   A    
C15   H9    S    
C41   H14   S    
N3    H22   S    
C14   C45   A    
O7    Zn1   S    
C1    O2    A    
C40   H10   S    
N2    Zn2   S    
C24   C28   A    
C24   C25   A    
C7    H1    S    
C46   H17   S    
C20   H6    S    
C39   C40   A    
C27   H8    S    
C32   N2    A    
C2    C48   A    
C16   C29   A    
C42   N1    A    
C16   H4    S    
C35   H12   S    
C2    C4    A    
C29   N3    S    
C20   C21   A    
O3    Zn1   S    
C34   C45   S    
C1    O1    A    
N4    H23   S    
C6    H19   S    
N5    H26   S    
C8    H20   S    
C22   C27   A    
N1    Zn1   S    
C15   C45   A    
C19   H7    S    
C16   C25   A    
C46   C47   A    
C40   C41   A    
C31   N5    S    
C22   C30   A    
C17   C28   A    
O6    Zn2   S    
C23   O5    A    
C4    C5    A    
C10   C13   A    
C42   H11   S    
C28   H5    S    
C38   C42   A    
C6    C7    A    
C3    C46   A    
C43   Cl1   S    
C32   C33   A    
C36   C38   A    
C2    C3    A    
C25   C26   A    
O2    Zn2   S    
C26   H3    S    
C34   O8    A    
C38   C39   A    
C14   H15   S    
C1    C30   S    
C33   C35   A    
C31   C39   A    
C37   C41   A    
C10   C11   A    
C13   H2    S    
N5    H25   S    
C33   H13   S    
C21   C24   A    
C12   C44   S    
C48   H18   S    
C12   O3    A    
O5    Zn1   S    
C37   N2    A    
C44   C48   A    
