data_mof_unit_11186.cif
_audit_creation_date              2012-12-10T19:15:24-0500
_audit_creation_method            fapswitch 2.2
_symmetry_space_group_name_H-M    P1
_symmetry_Int_Tables_number       1
_space_group_crystal_system       triclinic
_cell_length_a                    11.00669
_cell_length_b                    10.033584
_cell_length_c                    22.854906
_cell_angle_alpha                 88.37811
_cell_angle_beta                  89.201994
_cell_angle_gamma                 89.381895
_cell_volume                      2522.624644

loop_
_atom_site_label
_atom_site_type_symbol
_atom_type_description
_atom_site_fract_x
_atom_site_fract_y
_atom_site_fract_z
_atom_type_partial_charge
C1    C     C_R   0.260203 0.500166 0.505328 0.884660
C2    C     C_R   0.282331 0.693618 0.966787 -0.121919
C3    C     C_R   0.280335 0.695950 0.027527 -0.132992
C4    C     C_R   0.318550 0.583878 0.060770 -0.031490
C5    C     C_R   0.352659 0.465073 0.032834 -0.012962
C6    C     C_R   0.389807 0.350655 0.066132 -0.094520
C7    C     C_R   0.425111 0.232941 0.036491 -0.040690
C8    C     C_R   0.421815 0.231995 0.975403 -0.187166
C9    C     C_R   0.328965 0.589701 0.121316 0.519320
C10   C     C_R   0.391381 0.360812 0.127546 0.529225
C11   C     C_R   0.511276 0.543632 0.227064 -0.105999
C12   C     C_R   0.496452 0.501450 0.389680 0.928681
C13   C     C_R   0.544826 0.547611 0.285390 -0.160117
C14   C     C_R   0.463585 0.503265 0.328885 -0.004783
C15   C     C_R   0.349121 0.455059 0.314443 -0.186236
C16   C     C_R   0.315716 0.450920 0.256227 -0.045337
C17   C     C_R   0.397097 0.494595 0.212605 0.285452
C18   C     C_R   0.317427 0.489234 0.748691 -0.067956
C19   C     C_R   0.348093 0.499373 0.689704 -0.126250
C20   C     C_R   0.470303 0.494607 0.672089 0.061784
C21   C     C_R   0.562445 0.481388 0.713208 -0.134891
C22   C     C_R   0.531736 0.471427 0.772379 -0.067681
C23   C     C_R   0.742826 0.498922 0.502720 0.955923
C24   C     C_R   0.409168 0.474710 0.790061 0.286577
C25   C     C_3   0.072154 0.632969 0.534608 -0.264774
C26   C     C_3   0.073667 0.384674 0.551830 -0.267022
C27   C     C_3   0.933819 0.610094 0.546051 0.134094
C28   C     C_3   0.937357 0.361231 0.534751 0.249392
C29   C     C_3   0.079801 0.481985 0.445412 -0.425598
C30   C     C_3   0.125625 0.499910 0.508994 -0.127019
C31   C     C_3   0.882142 0.496679 0.504148 -0.295343
C32   C     C_3   0.940547 0.512764 0.439301 -0.162013
C33   C     C_3   0.375646 0.080936 0.503004 -0.267624
C34   C     C_3   0.376511 0.924891 0.490795 -0.243514
C35   C     C_3   0.553550 0.084008 0.443172 -0.284153
C36   C     C_3   0.573463 0.925378 0.448650 -0.310596
C37   C     C_3   0.573124 0.066957 0.547825 0.246854
C38   C     C_3   0.538817 0.914050 0.556006 0.236674
C39   C     C_R   0.498331 0.498453 0.610367 0.901567
C40   C     C_R   0.401823 0.350897 0.881620 0.528137
C41   C     C_R   0.335620 0.578488 0.877421 0.521009
C42   C     C_R   0.321734 0.578772 0.938273 -0.029902
C43   C     C_R   0.353570 0.462948 0.971277 -0.011449
C44   C     C_R   0.390475 0.346866 0.942669 -0.038917
H1    H     H_    0.255971 0.783105 0.942323 0.208093
H2    H     H_    0.276653 0.510348 0.657759 0.143901
H3    H     H_    0.657020 0.478666 0.699565 0.146220
H4    H     H_    0.602737 0.461594 0.804586 0.149727
H5    H     H_    0.115172 0.644509 0.578024 0.143886
H6    H     H_    0.068103 0.429411 0.595684 0.044237
H7    H     H_    0.928634 0.561593 0.590089 0.114877
H8    H     H_    0.888545 0.347082 0.576890 0.123884
H9    H     H_    0.134270 0.540623 0.412778 0.233526
H10   H     H_    0.101960 0.377964 0.434235 0.262348
H11   H     H_    0.311357 0.135350 0.473972 0.236788
H12   H     H_    0.342062 0.909409 0.446494 0.231003
H13   H     H_    0.251839 0.787020 0.048289 0.224924
H14   H     H_    0.338169 0.098071 0.546843 0.233663
H15   H     H_    0.308731 0.876118 0.518639 0.256973
H16   H     H_    0.668788 0.064738 0.532188 0.163938
H17   H     H_    0.620891 0.860439 0.568267 0.221447
H18   H     H_    0.643646 0.125829 0.437538 0.220697
H19   H     H_    0.669701 0.909924 0.458127 0.220967
H20   H     H_    0.450893 0.142635 0.953287 0.210069
H21   H     H_    0.574776 0.575190 0.192940 0.149366
H22   H     H_    0.634702 0.580550 0.296417 0.172834
H23   H     H_    0.286590 0.419283 0.348245 0.162028
H24   H     H_    0.228138 0.411658 0.244883 0.167415
H25   H     H_    0.222854 0.492486 0.762330 0.153881
N1    N     N_R   0.378562 0.466835 0.850813 -0.362290
N2    N     N_R   0.368157 0.480513 0.152673 -0.359155
N3    N     N_3   0.499750 0.138610 0.498760 -0.163929
N4    N     N_3   0.499750 0.861390 0.498760 -0.170900
O1    O     O_R   0.314910 0.616040 0.499990 -0.587218
O2    O     O_R   0.314910 0.383960 0.499990 -0.627864
O3    O     O_R   0.500080 0.616070 0.416130 -0.600642
O4    O     O_R   0.500080 0.383930 0.416130 -0.608341
O5    O     O_R   0.685320 0.616040 0.499970 -0.537176
O6    O     O_R   0.685320 0.383960 0.499970 -0.537527
O7    O     O_R   0.500150 0.616010 0.583820 -0.541739
O8    O     O_R   0.500150 0.383990 0.583820 -0.519380
O9    O     O_2   0.438416 0.241049 0.853194 -0.501249
O10   O     O_2   0.310449 0.689957 0.845192 -0.511914
O11   O     O_2   0.302611 0.704042 0.148779 -0.516632
O12   O     O_2   0.416207 0.253587 0.162371 -0.506716
Zn1   Zn    Zn3+2 0.500150 0.654960 0.499970 1.068600
Zn2   Zn    Zn3+2 0.500150 0.345040 0.499970 1.066747
C45   C     C_2   0.099577 0.763154 0.501322 0.959494
O13   O     O_2   0.092352 0.867700 0.527375 -0.571023
O14   O     O_R   0.140162 0.766056 0.443178 -0.795832
H26   H     H_    0.145083 0.859812 0.425713 0.344258
C46   C     C_2   0.151286 0.268142 0.575777 0.997895
O15   O     O_2   0.246804 0.291901 0.599964 -0.626842
O16   O     O_R   0.106306 0.138882 0.580857 -0.655949
H27   H     H_    0.159575 0.075662 0.604636 0.387021
S1    S     S_3+6 0.853400 0.748726 0.576031 0.071232
O17   O     O_2   0.744885 0.696332 0.609674 -0.306392
O18   O     O_2   0.932984 0.816948 0.618702 -0.193387
O19   O     O_3   0.811345 0.859749 0.524599 -0.539671
H28   H     H_    0.885410 0.886409 0.502939 0.415467
S2    S     S_3+6 0.921492 0.203604 0.499009 0.059987
O20   O     O_2   0.887005 0.104158 0.546364 -0.181502
O21   O     O_2   0.825390 0.204971 0.454015 -0.330050
O22   O     O_3   0.052021 0.153690 0.466782 -0.538251
H29   H     H_    0.030538 0.073329 0.445154 0.389777
C47   C     C_2   0.922640 0.649782 0.410148 0.944432
O23   O     O_2   0.847904 0.728350 0.428808 -0.582632
O24   O     O_R   0.984179 0.680789 0.357505 -0.764049
H30   H     H_    0.962452 0.772814 0.341118 0.372665
C48   C     C_2   0.885398 0.423331 0.393727 1.027077
O25   O     O_2   0.776877 0.432094 0.383065 -0.631968
O26   O     O_R   0.958696 0.337830 0.360651 -0.759950
H31   H     H_    0.910725 0.286416 0.331373 0.372441
C49   C     C_2   0.492361 0.131041 0.386260 1.030140
O27   O     O_2   0.383887 0.116000 0.378244 -0.616542
O28   O     O_R   0.564972 0.184837 0.340872 -0.755052
H32   H     H_    0.516902 0.208846 0.304476 0.368050
C50   C     C_2   0.562270 0.862353 0.389281 1.043614
O29   O     O_2   0.463486 0.850112 0.366253 -0.587517
O30   O     O_R   0.668053 0.829649 0.358136 -0.759744
H33   H     H_    0.651249 0.803817 0.316541 0.338969
S3    S     S_3+6 0.604741 0.140553 0.617932 0.137230
O31   O     O_2   0.494665 0.186946 0.651384 -0.189998
O32   O     O_2   0.668987 0.036406 0.655028 -0.198208
O33   O     O_3   0.700853 0.267667 0.609222 -0.574476
H34   H     H_    0.734128 0.281053 0.648643 0.356577
S4    S     S_3+6 0.433073 0.875596 0.619101 0.094038
O34   O     O_2   0.507748 0.822345 0.669306 -0.190809
O35   O     O_2   0.363486 0.994802 0.639527 -0.262522
O36   O     O_3   0.326065 0.762252 0.605764 -0.591624
H35   H     H_    0.270151 0.763873 0.640083 0.378496
C51   C     C_2   0.475352 0.111537 0.065872 1.017057
O37   O     O_2   0.566397 0.118252 0.095671 -0.558107
O38   O     O_R   0.422970 0.988008 0.056164 -0.804084
H36   H     H_    0.466503 0.911882 0.077492 0.360457

loop_
_geom_bond_atom_site_label_1
_geom_bond_atom_site_label_2
_ccdc_geom_bond_type
C33   H11   S    
C22   H4    S    
C10   O12   S    
C34   H12   S    
C33   H14   S    
C28   H8    S    
C41   C42   A    
C35   C36   S    
O6    Zn2   S    
C49   O27   D    
C19   H2    S    
C24   N1    S    
C7    C8    A    
O24   H30   S    
S2    O20   D    
C40   N1    A    
C18   C24   A    
C1    O1    A    
C1    C30   S    
C37   C38   S    
C2    C42   A    
C29   C32   S    
C45   O13   D    
C26   H6    S    
C5    C6    A    
C29   H10   S    
C26   C46   S    
C15   C16   A    
C41   O10   S    
S1    O19   S    
O28   H32   S    
C35   C49   S    
C18   C19   A    
C50   O29   D    
O26   H31   S    
O7    Zn1   S    
C33   N3    S    
C48   O25   D    
C28   S2    S    
C31   C32   S    
C16   C17   A    
C25   H5    S    
S1    O18   D    
C16   H24   S    
C36   H19   S    
C36   C50   S    
C38   H17   S    
C10   N2    A    
O5    Zn1   S    
C18   H25   S    
C5    C43   A    
S2    O21   D    
C32   C47   S    
C21   C22   A    
S1    O17   D    
C27   S1    S    
O22   H29   S    
C27   H7    S    
C38   S4    S    
C48   O26   S    
C13   H22   S    
C2    H1    S    
C27   C31   S    
C1    O2    A    
C40   O9    S    
C39   O8    A    
C20   C39   S    
C51   O37   D    
C9    O11   S    
C25   C45   S    
C3    C4    A    
C29   H9    S    
C23   C31   S    
C43   C44   A    
S4    O35   D    
C29   C30   S    
O19   H28   S    
C15   H23   S    
C12   O4    A    
C46   O16   S    
C33   C34   S    
O1    Zn1   S    
C8    C44   A    
C7    C51   S    
O8    Zn2   S    
C32   C48   S    
C8    H20   S    
C3    H13   S    
O2    Zn2   S    
C12   C14   S    
C35   N3    S    
C17   N2    S    
S2    O22   S    
C12   O3    A    
C34   H15   S    
C22   C24   A    
C42   C43   A    
S3    O32   D    
S4    O34   D    
O3    Zn1   S    
N3    Zn2   S    
O30   H33   S    
C25   C30   S    
C11   C17   A    
C28   C31   S    
C9    N2    A    
C45   O14   S    
C4    C5    A    
C6    C10   A    
C49   O28   S    
C26   C30   S    
C6    C7    A    
C25   C27   S    
O38   H36   S    
C26   C28   S    
C39   O7    A    
C19   C20   A    
C2    C3    A    
S3    O31   D    
S4    O36   S    
C11   C13   A    
O14   H26   S    
O33   H34   S    
C47   O24   S    
S3    O33   S    
C46   O15   D    
O36   H35   S    
C35   H18   S    
C23   O5    A    
O16   H27   S    
C50   O30   S    
N4    Zn1   S    
C37   H16   S    
C36   N4    S    
C34   N4    S    
C37   S3    S    
C40   C44   A    
C20   C21   A    
O4    Zn2   S    
C51   O38   S    
C47   O23   D    
C37   N3    S    
C14   C15   A    
C23   O6    A    
C4    C9    A    
C13   C14   A    
C11   H21   S    
C41   N1    A    
C21   H3    S    
C38   N4    S    
