data_mof_unit_35645.cif
_audit_creation_date              2013-03-05T16:05:09-0500
_audit_creation_method            fapswitch 2.2
_symmetry_space_group_name_H-M    P1
_symmetry_Int_Tables_number       1
_space_group_crystal_system       triclinic
_cell_length_a                    10.882293
_cell_length_b                    9.490935
_cell_length_c                    10.855132
_cell_angle_alpha                 90.409396
_cell_angle_beta                  90.006173
_cell_angle_gamma                 90.171349
_cell_volume                      1121.11842621

loop_
_atom_site_label
_atom_site_type_symbol
_atom_site_description
_atom_site_fract_x
_atom_site_fract_y
_atom_site_fract_z
_atom_type_partial_charge
O1    O     O_R   0.319660 0.618740 0.499990 -0.586840
O2    O     O_R   0.319660 0.381260 0.499990 -0.618272
C1    C     C_R   0.262519 0.499777 0.501388 0.857758
O3    O     O_R   0.499990 0.618790 0.317690 -0.506357
O4    O     O_R   0.499990 0.381210 0.317690 -0.544825
C2    C     C_R   0.500283 0.499270 0.259861 0.930911
Cu1   Cu    Cu3+1 0.500020 0.640660 0.500000 1.043087
Cu2   Cu    Cu3+1 0.500020 0.359340 0.500000 1.021757
O5    O     O_R   0.680370 0.618830 0.500010 -0.546193
O6    O     O_R   0.680370 0.381170 0.500010 -0.542336
O7    O     O_R   0.500030 0.618780 0.682310 -0.618358
O8    O     O_R   0.500030 0.381220 0.682310 -0.615993
C3    C     C_R   0.738411 0.500107 0.499672 0.869692
C4    C     C_R   0.498689 0.500009 0.739893 0.831764
C5    C     C_3   0.381313 0.564942 0.069913 0.108754
C6    C     C_3   0.499577 0.340491 0.071311 0.075878
H1    H     H_    0.307669 0.483786 0.077497 0.138665
H2    H     H_    0.411123 0.298730 0.108118 0.142015
C7    C     C_3   0.394422 0.593034 0.930245 -0.105036
C8    C     C_3   0.490848 0.341341 0.928186 -0.114334
H3    H     H_    0.419367 0.704240 0.917734 0.239085
H4    H     H_    0.568206 0.279802 0.889191 0.217241
C9    C     C_3   0.628095 0.576848 0.073039 0.492800
C10   C     C_3   0.505827 0.497556 0.122120 -0.366902
C11   C     C_3   0.502242 0.499712 0.877452 -0.028061
C12   C     C_3   0.631542 0.565969 0.923532 0.062745
C13   C     C_R   0.066033 0.372830 0.488590 -0.213179
C14   C     C_R   0.066675 0.625724 0.517040 -0.169023
H5    H     H_    0.114936 0.274206 0.477472 0.189666
H6    H     H_    0.115925 0.724293 0.529348 0.191473
C15   C     C_R   0.938833 0.371290 0.485354 0.325453
C16   C     C_R   0.939614 0.627837 0.514886 0.320303
C17   C     C_R   0.873210 0.499976 0.498371 -0.256316
C18   C     C_R   0.129772 0.499337 0.502773 -0.140909
C19   C     C_R   0.417040 0.073695 0.430790 0.054294
C20   C     C_R   0.417326 0.924735 0.430485 0.061779
H7    H     H_    0.350947 0.129358 0.374973 0.138244
H8    H     H_    0.351217 0.868080 0.374760 0.189804
N1    N     N_R   0.500030 0.852070 0.500030 -0.193124
N2    N     N_R   0.500030 0.147930 0.500030 -0.184399
C21   C     C_R   0.581981 0.926607 0.570287 0.061665
C22   C     C_R   0.581995 0.075491 0.570426 0.072700
H9    H     H_    0.647659 0.871541 0.626265 0.156426
H10   H     H_    0.647402 0.132525 0.627025 0.151447
N3    N     N_R   0.330187 0.685516 0.139866 0.171670
O9    O     O_R   0.267034 0.658479 0.238781 -0.375279
O10   O     O_R   0.310940 0.806374 0.087157 -0.302240
N4    N     N_R   0.590845 0.238829 0.118586 0.206177
O11   O     O_R   0.553985 0.140834 0.193402 -0.261244
O12   O     O_R   0.697604 0.221968 0.067433 -0.296041
C23   C     C_3   0.269197 0.582236 0.862648 -0.808893
H11   H     H_    0.276724 0.621827 0.767011 0.230226
H12   H     H_    0.231525 0.474491 0.858909 0.236093
H13   H     H_    0.200296 0.649460 0.910154 0.287571
C24   C     C_3   0.375134 0.255224 0.888256 -0.802506
H14   H     H_    0.348063 0.268460 0.791019 0.258063
H15   H     H_    0.393629 0.141240 0.901728 0.261936
H16   H     H_    0.293407 0.280402 0.945120 0.230328
N5    N     N_R   0.626316 0.725889 0.117551 0.128857
O13   O     O_R   0.548101 0.817457 0.076927 -0.323831
O14   O     O_R   0.702420 0.767909 0.203003 -0.204769
N6    N     N_R   0.742285 0.514198 0.124660 0.141017
O15   O     O_R   0.848010 0.568766 0.094624 -0.302503
O16   O     O_R   0.739982 0.438256 0.223690 -0.303604
C25   C     C_3   0.662893 0.712862 0.864707 -0.655311
H17   H     H_    0.586666 0.788934 0.860797 0.226472
H18   H     H_    0.740455 0.763914 0.914673 0.277600
H19   H     H_    0.695588 0.701027 0.768316 0.226629
C26   C     C_3   0.740068 0.472849 0.872224 -0.727675
H20   H     H_    0.829934 0.528552 0.876721 0.269571
H21   H     H_    0.753307 0.373464 0.919803 0.277752
H22   H     H_    0.727459 0.446465 0.773343 0.181190
N7    N     N_R   0.879372 0.237528 0.468616 0.136328
O17   O     O_R   0.901790 0.136341 0.545555 -0.319619
O18   O     O_R   0.827072 0.207378 0.363902 -0.197822
N8    N     N_R   0.880878 0.761343 0.531046 0.124130
O19   O     O_R   0.842328 0.828955 0.434715 -0.217532
O20   O     O_R   0.895021 0.829507 0.634505 -0.367692

loop_
_geom_bond_atom_site_label_1
_geom_bond_atom_site_label_2
_geom_bond_distance
_ccdc_geom_bond_type
C24   H14   1.103966 S    
C13   H5    1.084121 S    
N7    O18   1.300815 A    
N7    O17   1.300825 A    
C19   C20   1.413759 A    
C6    N4    1.481031 S    
Cu1   Cu2   2.669990 S    
N1    C21   1.365931 A    
N3    O9    1.301581 A    
C9    N5    1.491689 S    
C7    H3    1.098384 S    
N8    O20   1.300950 A    
O3    Cu1   1.988380 S    
O4    C2    1.288262 A    
O7    C4    1.292899 A    
C15   N7    1.433590 S    
C8    C11   1.608942 S    
Cu1   O5    1.974143 S    
C21   C22   1.413042 A    
C9    C12   1.625900 S    
C26   H21   1.088572 S    
O5    C3    1.293375 A    
N6    O16   1.298724 A    
C5    C7    1.547784 S    
C9    N6    1.490219 S    
C25   H18   1.111340 S    
C9    C10   1.618792 S    
C15   C17   1.422812 A    
C6    C8    1.556615 S    
N2    C22   1.365007 A    
C14   C18   1.391622 A    
N5    O13   1.297704 A    
C6    C10   1.587020 S    
C21   H9    1.076980 S    
C22   H10   1.081650 S    
C8    C24   1.558919 S    
N3    O10   1.302984 A    
C13   C18   1.392408 A    
N5    O14   1.303054 A    
C13   C15   1.384698 A    
C23   H11   1.109529 S    
C14   C16   1.383121 A    
N8    O19   1.300894 A    
O3    C2    1.292553 A    
C1    C18   1.444671 S    
C11   C12   1.617271 S    
C23   H12   1.101055 S    
C26   H22   1.108853 S    
Cu1   O7    1.991339 S    
C3    C17   1.466995 S    
N6    O15   1.302765 A    
Cu2   O8    1.988387 S    
C25   H19   1.110246 S    
C2    C10   1.496389 S    
C6    H2    1.115051 S    
N4    O11   1.301585 A    
C8    H4    1.108361 S    
C24   H15   1.111654 S    
C5    N3    1.478911 S    
C5    H1    1.113349 S    
C5    C10   1.605127 S    
C19   H7    1.081791 S    
O1    Cu1   1.973107 S    
C12   C25   1.574086 S    
C20   N1    1.366219 A    
O2    Cu2   1.974344 S    
O8    C4    1.285312 A    
O6    C3    1.291899 A    
C16   N8    1.430584 S    
O4    Cu2   1.991330 S    
C23   H13   1.110604 S    
C16   C17   1.420766 A    
C20   H8    1.079603 S    
O2    C1    1.286893 A    
C14   H6    1.084194 S    
N4    O12   1.297558 A    
C19   N2    1.365805 A    
C4    C11   1.493744 S    
C26   H20   1.111219 S    
C7    C11   1.577563 S    
C7    C23   1.550433 S    
Cu2   O6    1.972911 S    
C25   H17   1.102363 S    
C24   H16   1.108330 S    
C12   C26   1.576528 S    
Cu1   N1    2.006476 S    
Cu2   N2    2.006482 S    
O1    C1    1.287530 A    
