data_mof_unit_8040.cif
_audit_creation_date              2012-12-11T14:57:54-0500
_audit_creation_method            fapswitch 2.2
_symmetry_space_group_name_H-M    P1
_symmetry_Int_Tables_number       1
_space_group_crystal_system       triclinic
_cell_length_a                    6.936979
_cell_length_b                    17.084934
_cell_length_c                    16.739053
_cell_angle_alpha                 100.232441
_cell_angle_beta                  90.092633
_cell_angle_gamma                 91.309014
_cell_volume                      1951.78105308

loop_
_atom_site_label
_atom_site_type_symbol
_atom_type_description
_atom_site_fract_x
_atom_site_fract_y
_atom_site_fract_z
_atom_type_partial_charge
O1    O     O_R   0.506180 0.438940 0.579430 -0.459665
O2    O     O_R   0.170520 0.406230 0.413590 -0.560633
O3    O     O_R   0.005180 0.561060 0.420570 -0.556338
C1    C     C_R   0.338338 0.382783 0.385262 0.665252
O4    O     O_R   0.176140 0.429310 0.578370 -0.542716
O5    O     O_R   0.010830 0.584300 0.586530 -0.546284
C2    C     C_R   0.343846 0.412133 0.603738 0.833409
O6    O     O_R   0.500520 0.415700 0.413470 -0.528786
O7    O     O_3   0.340830 0.550820 0.502480 -0.382074
V1    V     V_3+5 0.064040 0.490570 0.499540 1.540506
O8    O     O_R   0.681400 0.593770 0.586410 -0.514627
C3    C     C_R   0.851867 0.611915 0.619250 0.828774
O9    O     O_R   0.675790 0.570690 0.421630 -0.529079
C4    C     C_R   0.846150 0.586772 0.395059 0.662100
V2    V     V_3+5 0.564650 0.509430 0.500460 1.649495
O10   O     O_3   0.837730 0.449180 0.497520 -0.340722
C5    C     C_R   0.900847 0.869064 0.174231 -0.078720
C6    C     C_R   0.863963 0.638781 0.332781 -0.040934
C7    C     C_R   0.004532 0.663966 0.206353 -0.128309
C8    C     C_R   0.969133 0.613288 0.261942 -0.099841
C9    C     C_R   0.788943 0.715738 0.345964 -0.151654
C10   C     C_R   0.820044 0.767877 0.289275 0.132555
C11   C     C_R   0.933621 0.741511 0.219769 0.127330
C12   C     C_R   0.974312 0.792184 0.163912 -0.256581
C13   C     C_R   0.788459 0.897132 0.244275 -0.085580
C14   C     C_R   0.746321 0.846153 0.301232 -0.072051
H1    H     H_    0.058586 0.770687 0.110346 0.114243
H2    H     H_    0.088577 0.642434 0.152749 0.134290
H3    H     H_    0.023991 0.553736 0.249471 0.122309
H4    H     H_    0.713315 0.734872 0.402175 0.154038
H5    H     H_    0.979012 0.651711 0.998615 0.134018
C15   C     C_R   0.955872 0.899441 0.704764 0.391712
C16   C     C_R   0.040367 0.902851 0.629605 -0.113152
C17   C     C_R   0.058216 0.834207 0.572514 -0.152452
C18   C     C_R   0.991400 0.762009 0.590012 -0.156820
C19   C     C_R   0.929781 0.755027 0.669400 0.030390
C20   C     C_R   0.928362 0.824703 0.730301 -0.007044
C21   C     C_R   0.873747 0.679933 0.688398 -0.154775
C22   C     C_R   0.874258 0.670410 0.772270 -0.022575
C23   C     C_R   0.901883 0.739880 0.833650 0.032466
C24   C     C_R   0.904592 0.817053 0.813413 -0.145577
C25   C     C_R   0.862346 0.594944 0.799238 0.389859
C26   C     C_R   0.913862 0.589635 0.879020 -0.146167
C27   C     C_R   0.947954 0.657014 0.936421 -0.178260
C28   C     C_R   0.932574 0.731159 0.915300 -0.139424
H6    H     H_    0.070612 0.959539 0.611232 0.182589
H7    H     H_    0.111299 0.837713 0.512411 0.172040
H8    H     H_    0.996024 0.711786 0.540856 0.111845
H9    H     H_    0.915701 0.532886 0.899063 0.176026
H10   H     H_    0.953672 0.781478 0.963835 0.096928
H11   H     H_    0.664255 0.473725 0.150426 0.172064
C29   C     C_R   0.180223 0.224631 0.389843 -0.205831
C30   C     C_R   0.117747 0.148017 0.398078 0.006907
C31   C     C_R   0.158665 0.083951 0.336862 -0.047141
C32   C     C_R   0.255472 0.096323 0.267302 -0.138373
C33   C     C_R   0.315549 0.173514 0.256548 0.076717
C34   C     C_R   0.280142 0.239122 0.319840 0.097616
C35   C     C_R   0.416419 0.184890 0.185540 -0.112605
C36   C     C_R   0.488306 0.262256 0.179612 0.013090
C37   C     C_R   0.441790 0.329610 0.240048 -0.006920
C38   C     C_R   0.346461 0.317089 0.312894 -0.151415
C39   C     C_R   0.604572 0.274085 0.113270 -0.207768
C40   C     C_R   0.678280 0.348995 0.106604 0.455234
C41   C     C_R   0.619319 0.415227 0.160693 -0.202786
C42   C     C_R   0.492558 0.407390 0.224193 -0.069678
H12   H     H_    0.149936 0.272332 0.439432 0.114280
H13   H     H_    0.115557 0.023856 0.342587 0.154063
H14   H     H_    0.285702 0.044019 0.222850 0.108431
H15   H     H_    0.643293 0.225532 0.066126 0.160985
C43   C     C_R   0.406676 0.138788 0.833354 -0.048440
C44   C     C_R   0.349098 0.359640 0.665526 -0.045942
C45   C     C_R   0.310282 0.346475 0.807294 -0.060736
C46   C     C_R   0.298115 0.391570 0.745619 -0.057488
C47   C     C_R   0.394152 0.277806 0.645259 -0.084321
C48   C     C_R   0.387048 0.229982 0.707091 0.045267
C49   C     C_R   0.358375 0.266164 0.789273 0.132846
C50   C     C_R   0.375458 0.221001 0.852048 -0.110377
C51   C     C_R   0.404731 0.102164 0.751777 -0.015883
C52   C     C_R   0.405595 0.146767 0.689733 -0.097066
H16   H     H_    0.361315 0.249334 0.915009 0.152458
H17   H     H_    0.400462 0.038520 0.735068 0.166804
H18   H     H_    0.280023 0.374372 0.869193 0.173328
H19   H     H_    0.415476 0.114313 0.628474 0.132643
H20   H     H_    0.255616 0.452996 0.761224 0.158759
O11   O     O_R   0.265840 0.084300 0.086750 -0.536093
O12   O     O_R   0.589750 0.070740 0.921690 -0.508019
O13   O     O_R   0.755020 0.915730 0.913400 -0.533706
C53   C     C_R   0.420124 0.089335 0.897574 0.687307
O14   O     O_R   0.595830 0.093740 0.086480 -0.528663
O15   O     O_R   0.761150 0.938890 0.079360 -0.533634
C54   C     C_R   0.428010 0.117084 0.115068 0.686512
O16   O     O_R   0.259710 0.061140 0.920790 -0.521180
O17   O     O_3   0.425260 0.949200 0.997610 -0.392780
V3    V     V_3+5 0.702060 0.009430 0.000450 1.602067
O18   O     O_R   0.090530 0.929220 0.078150 -0.554904
C55   C     C_R   0.920338 0.915388 0.106721 0.746343
O19   O     O_R   0.084440 0.906220 0.913360 -0.553388
C56   C     C_R   0.915603 0.887342 0.881006 0.777330
V4    V     V_3+5 0.201450 0.990520 0.999290 1.509238
O20   O     O_3   0.928380 0.050800 0.002390 -0.334340
S1    S     S_3+6 0.736872 0.510375 0.747493 -0.056609
O21   O     O_2   0.548600 0.538170 0.719808 -0.364117
O22   O     O_2   0.849300 0.469052 0.676401 -0.365072
O23   O     O_3   0.691240 0.445093 0.809816 -0.489149
H21   H     H_    0.801499 0.408685 0.803098 0.368173
C57   C     C_2   0.011485 0.135948 0.471724 0.374962
H22   H     H_    0.982250 0.186444 0.519073 0.074429
O24   O     O_2   0.955389 0.069749 0.480537 -0.525402
C58   C     C_2   0.710067 0.979201 0.258234 0.336236
H23   H     H_    0.580032 0.992359 0.293406 0.046244
O25   O     O_2   0.791862 0.033597 0.232513 -0.531495
S2    S     S_3+6 0.833842 0.359983 0.025985 -0.012093
O26   O     O_2   0.975638 0.293748 0.013771 -0.321815
O27   O     O_2   0.716812 0.355339 0.949612 -0.338104
O28   O     O_3   0.955279 0.447746 0.045733 -0.507393
H24   H     H_    0.864034 0.487422 0.032562 0.328041
C59   C     C_2   0.396206 0.480888 0.263980 0.416614
H25   H     H_    0.257042 0.477303 0.292125 0.020131
O29   O     O_2   0.467205 0.546733 0.262718 -0.535078
C60   C     C_2   0.448763 0.242703 0.560639 0.307486
H26   H     H_    0.399889 0.183440 0.533231 0.055625
O30   O     O_2   0.553228 0.279214 0.520749 -0.521322
C61   C     C_2   0.626207 0.876164 0.373232 0.321923
H27   H     H_    0.657718 0.934350 0.409374 0.103247
O31   O     O_2   0.486060 0.837947 0.390271 -0.524666
S3    S     S_3+6 0.801190 0.977304 0.740140 -0.042451
O32   O     O_2   0.881187 0.028501 0.815684 -0.350086
O33   O     O_2   0.772469 0.028290 0.676729 -0.326314
O34   O     O_3   0.590245 0.931891 0.756424 -0.536812
H28   H     H_    0.549247 0.954757 0.811709 0.332722

loop_
_geom_bond_atom_site_label_1
_geom_bond_atom_site_label_2
_ccdc_geom_bond_type
C32   C33   A    
C48   C49   A    
O17   V3    S    
C43   C51   A    
C6    C9    A    
C4    C6    S    
O2    C1    A    
C7    C8    A    
C12   H1    S    
C1    O6    A    
C43   C53   S    
S2    O27   D    
O19   C56   A    
O11   C54   A    
C61   H27   S    
C30   C31   A    
C27   C28   A    
S3    O32   D    
C19   C20   A    
C59   O29   D    
C2    C44   S    
C21   C22   A    
O12   C53   A    
C61   O31   D    
C57   H22   S    
O18   V4    S    
V2    O10   S    
O13   V3    S    
O14   V3    S    
C33   C34   A    
C17   C18   A    
C15   S3    S    
C40   S2    S    
O23   H21   S    
O12   V3    S    
O8    V2    S    
C30   C57   S    
C53   O16   A    
C11   C12   A    
O1    V2    S    
O14   C54   A    
C35   C54   S    
O17   V4    S    
C46   H20   S    
C13   C58   S    
O13   C56   A    
C36   C37   A    
S1    O22   D    
O9    C4    A    
C43   C50   A    
C3    C21   S    
C16   H6    S    
C18   H8    S    
O5    C3    A    
S2    O26   D    
O19   V4    S    
C60   O30   D    
O15   V3    S    
C22   C25   A    
C8    H3    S    
C10   C11   A    
C23   C28   A    
C5    C12   A    
H5    C27   S    
S1    O21   D    
C49   C50   A    
C47   C48   A    
C22   C23   A    
C44   C46   A    
C32   H14   S    
C51   C52   A    
C26   H9    S    
C31   H13   S    
S3    O34   S    
C35   C36   A    
C1    C38   S    
C39   H15   S    
C37   C38   A    
C18   C19   A    
C7    C11   A    
C26   C27   A    
C39   C40   A    
O11   V4    S    
V4    O20   S    
V3    O20   S    
C16   C17   A    
C60   H26   S    
C45   C49   A    
C5    C55   S    
C15   C20   A    
C34   C38   A    
C7    H2    S    
O3    C4    A    
C23   C24   A    
C37   C42   A    
S1    O23   S    
O9    V2    S    
C10   C14   A    
C25   C26   A    
O2    V1    S    
C25   S1    S    
C29   H12   S    
C29   C30   A    
O4    C2    A    
O34   H28   S    
O7    V1    S    
C50   H16   S    
C31   C32   A    
C36   C39   A    
S3    O33   D    
O1    C2    A    
H11   C41   S    
C45   C46   A    
O5    V1    S    
C44   C47   A    
O8    C3    A    
O15   C55   A    
O6    V2    S    
C47   C60   S    
C9    H4    S    
C5    C13   A    
C41   C42   A    
C58   O25   D    
O7    V2    S    
O4    V1    S    
O3    V1    S    
V1    O10   S    
C59   H25   S    
C13   C14   A    
C52   H19   S    
C51   H17   S    
C57   O24   D    
C28   H10   S    
C19   C21   A    
C33   C35   A    
C6    C8    A    
C20   C24   A    
C15   C16   A    
C29   C34   A    
C40   C41   A    
C14   C61   S    
C58   H23   S    
O18   C55   A    
C42   C59   S    
C24   C56   S    
C17   H7    S    
C9    C10   A    
C48   C52   A    
S2    O28   S    
C45   H18   S    
O28   H24   S    
O16   V4    S    
