data_mof_unit_33661.cif
_audit_creation_date              2013-03-05T15:39:52-0500
_audit_creation_method            fapswitch 2.2
_symmetry_space_group_name_H-M    P1
_symmetry_Int_Tables_number       1
_space_group_crystal_system       triclinic
_cell_length_a                    16.900853
_cell_length_b                    16.867085
_cell_length_c                    16.900135
_cell_angle_alpha                 65.66351
_cell_angle_beta                  65.62582
_cell_angle_gamma                 65.558674
_cell_volume                      3822.09896959

loop_
_atom_site_label
_atom_site_type_symbol
_atom_site_description
_atom_site_fract_x
_atom_site_fract_y
_atom_site_fract_z
_atom_type_partial_charge
O1    O     O_R   0.982940 0.138950 0.510160 -0.571237
O2    O     O_R   0.017060 0.861050 0.489840 -0.584489
O3    O     O_R   0.138950 0.510160 0.982940 -0.572336
O4    O     O_R   0.861050 0.489840 0.017060 -0.574847
O5    O     O_R   0.510160 0.982940 0.138950 -0.584426
O6    O     O_R   0.489840 0.017060 0.861050 -0.570899
O7    O     O_R   0.489840 0.861050 0.017060 -0.574053
O8    O     O_R   0.510160 0.138950 0.982940 -0.587194
O9    O     O_R   0.017060 0.489840 0.861050 -0.571670
O10   O     O_R   0.982940 0.510160 0.138950 -0.571759
O11   O     O_R   0.861050 0.017060 0.489840 -0.582354
O12   O     O_R   0.138950 0.982940 0.510160 -0.574369
C1    C     C_R   0.589563 0.040472 0.586260 -0.176265
C2    C     C_R   0.411898 0.973698 0.402223 -0.172045
C3    C     C_R   0.026635 0.597509 0.588160 -0.172337
C4    C     C_R   0.959067 0.413892 0.410769 -0.176825
C5    C     C_R   0.596596 0.585311 0.032155 -0.171045
C6    C     C_R   0.414324 0.403859 0.967372 -0.173204
O13   O     O_R   0.867700 0.025880 0.612340 -0.576785
O14   O     O_R   0.132300 0.974120 0.387660 -0.580740
O15   O     O_R   0.025880 0.612340 0.867700 -0.583980
O16   O     O_R   0.974120 0.387660 0.132300 -0.582871
O17   O     O_R   0.612340 0.867700 0.025880 -0.580642
O18   O     O_R   0.387660 0.132300 0.974120 -0.575725
O19   O     O_R   0.387660 0.974120 0.132300 -0.579751
O20   O     O_R   0.612340 0.025880 0.867700 -0.580739
O21   O     O_R   0.132300 0.387660 0.974120 -0.584300
O22   O     O_R   0.867700 0.612340 0.025880 -0.581804
O23   O     O_R   0.974120 0.132300 0.387660 -0.580522
O24   O     O_R   0.025880 0.867700 0.612340 -0.579866
C7    C     C_R   0.964458 0.179110 0.436717 0.915346
C8    C     C_R   0.040674 0.821057 0.560696 0.913359
C9    C     C_R   0.178372 0.433011 0.971873 0.928352
C10   C     C_R   0.821161 0.560463 0.041295 0.909689
C11   C     C_R   0.439200 0.959591 0.178868 0.914319
C12   C     C_R   0.563678 0.034881 0.820971 0.908061
C13   C     C_R   0.566871 0.821601 0.028255 0.922032
C14   C     C_R   0.439648 0.178812 0.958501 0.908494
C15   C     C_R   0.027802 0.567005 0.821830 0.932506
C16   C     C_R   0.962656 0.437543 0.178975 0.907092
C17   C     C_R   0.821042 0.037718 0.562250 0.913394
C18   C     C_R   0.178159 0.972239 0.432970 0.923606
Zn1   Zn    Zn3+2 0.004880 0.004880 0.583590 1.246519
Zn2   Zn    Zn3+2 0.995120 0.995120 0.416410 1.238976
Zn3   Zn    Zn3+2 0.004880 0.583590 0.004880 1.243571
Zn4   Zn    Zn3+2 0.995120 0.416410 0.995120 1.242778
Zn5   Zn    Zn3+2 0.583590 0.004880 0.004880 1.234567
Zn6   Zn    Zn3+2 0.416410 0.995120 0.995120 1.245287
H1    H     H_    0.602730 0.878005 0.578874 0.155445
H2    H     H_    0.399968 0.137621 0.407531 0.159573
H3    H     H_    0.150488 0.499904 0.472072 0.163126
H4    H     H_    0.833813 0.513573 0.525335 0.169460
H5    H     H_    0.600856 0.586025 0.869286 0.162507
H6    H     H_    0.412894 0.400330 0.130264 0.155722
H7    H     H_    0.528116 0.849325 0.499382 0.162691
H8    H     H_    0.474844 0.166223 0.487053 0.168862
H9    H     H_    0.523307 0.508461 0.841611 0.163249
H10   H     H_    0.491160 0.477177 0.157931 0.163782
H11   H     H_    0.121407 0.420649 0.397409 0.162233
H12   H     H_    0.862806 0.592947 0.600179 0.159533
C19   C     C_R   0.543823 0.024135 0.538648 0.164604
C20   C     C_R   0.458783 0.991369 0.447821 0.176063
C21   C     C_R   0.008770 0.551999 0.541366 0.175373
C22   C     C_R   0.975567 0.461539 0.456316 0.159069
C23   C     C_R   0.551365 0.537171 0.015603 0.173427
C24   C     C_R   0.462375 0.449178 0.983940 0.178364
C25   C     C_R   0.486588 0.097038 0.489945 -0.077324
C26   C     C_R   0.516440 0.918593 0.496207 -0.059454
C27   C     C_R   0.919454 0.555485 0.555928 -0.066384
C28   C     C_R   0.064771 0.458229 0.441583 -0.031096
C29   C     C_R   0.498494 0.484115 0.088822 -0.063944
C30   C     C_R   0.516129 0.501355 0.910722 -0.062168
C31   C     C_R   0.444225 0.080741 0.444767 -0.067172
C32   C     C_R   0.558543 0.934873 0.541531 -0.038079
C33   C     C_R   0.453956 0.440643 0.073088 -0.063474
C34   C     C_R   0.560084 0.545414 0.926456 -0.051540
C35   C     C_R   0.902935 0.510436 0.513575 -0.078738
C36   C     C_R   0.081277 0.503379 0.483720 -0.060134
C37   C     C_R   0.547838 0.041774 0.676697 0.237569
C38   C     C_R   0.459539 0.947155 0.322447 0.221157
C39   C     C_R   0.053488 0.677110 0.540455 0.220004
C40   C     C_R   0.956278 0.323832 0.453203 0.235622
C41   C     C_R   0.677140 0.538559 0.057311 0.233479
C42   C     C_R   0.319723 0.437483 0.983248 0.227763
C43   C     C_R   0.317706 0.987731 0.436085 0.226625
C44   C     C_R   0.677076 0.049855 0.542853 0.224880
C45   C     C_R   0.461248 0.323444 0.941640 0.219936
C46   C     C_R   0.562531 0.679937 0.016948 0.229561
C47   C     C_R   0.951106 0.456815 0.322727 0.236868
C48   C     C_R   0.012433 0.563792 0.682315 0.227880
C49   C     C_R   0.594576 0.053834 0.722808 -0.271114
C50   C     C_R   0.410390 0.937782 0.277351 -0.240375
C51   C     C_R   0.062735 0.722366 0.589566 -0.237388
C52   C     C_R   0.944782 0.277537 0.406283 -0.259895
C53   C     C_R   0.722520 0.588846 0.064575 -0.238804
C54   C     C_R   0.275315 0.397795 0.959957 -0.287807
C55   C     C_R   0.274545 0.962093 0.397267 -0.280767
C56   C     C_R   0.722732 0.058900 0.591784 -0.253636
C57   C     C_R   0.411181 0.277655 0.934761 -0.237620
C58   C     C_R   0.602042 0.724522 0.040202 -0.280584
C59   C     C_R   0.941952 0.407767 0.277129 -0.261400
C60   C     C_R   0.038027 0.602634 0.725494 -0.287147
C61   C     C_R   0.676536 0.073826 0.675885 0.177423
C62   C     C_R   0.324280 0.928864 0.322589 0.181619
C63   C     C_R   0.071349 0.677232 0.675810 0.187962
C64   C     C_R   0.926119 0.323954 0.323776 0.174404
C65   C     C_R   0.677155 0.675439 0.072764 0.174912
C66   C     C_R   0.324526 0.322722 0.927047 0.184494
N1    N     N_R   0.456846 0.034920 0.719492 0.243882
O25   O     O_R   0.389839 0.105501 0.737678 -0.278618
O26   O     O_R   0.440017 0.960667 0.734098 -0.297765
N2    N     N_R   0.556339 0.931715 0.286228 0.235679
O27   O     O_R   0.592733 0.991263 0.275769 -0.314313
O28   O     O_R   0.608125 0.859081 0.260521 -0.277633
N3    N     N_R   0.069226 0.713115 0.443654 0.236053
O29   O     O_R   0.141676 0.738834 0.392224 -0.283087
O30   O     O_R   0.009952 0.723731 0.406940 -0.310848
N4    N     N_R   0.961132 0.281600 0.544908 0.243322
O31   O     O_R   0.033750 0.267995 0.563868 -0.295322
O32   O     O_R   0.890466 0.262134 0.610383 -0.271727
N5    N     N_R   0.713775 0.441443 0.073700 0.237491
O33   O     O_R   0.741330 0.390914 0.145268 -0.283376
O34   O     O_R   0.723410 0.403585 0.015691 -0.294192
N6    N     N_R   0.269725 0.511002 0.023275 0.235815
O35   O     O_R   0.216425 0.496184 0.106186 -0.348703
O36   O     O_R   0.283879 0.590260 0.980315 -0.289673
N7    N     N_R   0.266855 0.027787 0.509434 0.234163
O37   O     O_R   0.280601 0.984854 0.588749 -0.288496
O38   O     O_R   0.212462 0.110441 0.494679 -0.346174
N8    N     N_R   0.717564 0.053986 0.448434 0.240043
O39   O     O_R   0.733940 0.985199 0.421603 -0.323761
O40   O     O_R   0.738654 0.126786 0.389118 -0.267078
N9    N     N_R   0.558297 0.287154 0.924512 0.236858
O41   O     O_R   0.608351 0.259217 0.853025 -0.280730
O42   O     O_R   0.596550 0.277875 0.981943 -0.311565
N10   N     N_R   0.488724 0.729777 0.977599 0.235309
O43   O     O_R   0.503164 0.782563 0.894439 -0.340873
O44   O     O_R   0.409608 0.715720 0.021395 -0.286649
N11   N     N_R   0.947984 0.551130 0.281856 0.241476
O45   O     O_R   0.875224 0.611464 0.261393 -0.272819
O46   O     O_R   0.017580 0.576849 0.264680 -0.297551
N12   N     N_R   0.972521 0.490371 0.733054 0.234101
O47   O     O_R   0.889839 0.505365 0.787003 -0.359945
O48   O     O_R   0.015866 0.410575 0.719899 -0.287583
N13   N     N_R   0.710072 0.115118 0.710212 0.250043
O49   O     O_R   0.760797 0.065228 0.764336 -0.288950
O50   O     O_R   0.703503 0.201351 0.674029 -0.287816
N14   N     N_R   0.289819 0.883639 0.293545 0.245550
O51   O     O_R   0.236745 0.930481 0.241466 -0.293438
O52   O     O_R   0.326734 0.796786 0.303397 -0.308980
N15   N     N_R   0.116127 0.706405 0.710596 0.236774
O53   O     O_R   0.069106 0.758977 0.763324 -0.304291
O54   O     O_R   0.203060 0.695321 0.674996 -0.332520
N16   N     N_R   0.884478 0.289357 0.290967 0.249853
O55   O     O_R   0.933543 0.238569 0.236672 -0.287247
O56   O     O_R   0.797508 0.300162 0.324386 -0.282339
N17   N     N_R   0.706218 0.710887 0.117026 0.248474
O57   O     O_R   0.758822 0.763400 0.069734 -0.285496
O58   O     O_R   0.694861 0.676014 0.203996 -0.288530
N18   N     N_R   0.288863 0.292914 0.883627 0.239711
O59   O     O_R   0.323615 0.303285 0.796787 -0.317008
O60   O     O_R   0.236315 0.240403 0.931704 -0.297566

loop_
_geom_bond_atom_site_label_1
_geom_bond_atom_site_label_2
_geom_bond_distance
_ccdc_geom_bond_type
O24   C8    1.290839 A    
C1    C37   1.399645 A    
N17   O57   1.302084 A    
C40   C52   1.428039 A    
C28   C36   1.396992 A    
C5    C46   1.403051 A    
C22   C35   1.401073 A    
C45   N9    1.439488 S    
C27   C35   1.398729 A    
O1    C7    1.244576 A    
C30   C34   1.399133 A    
N2    O28   1.301233 A    
H7    C26   1.083111 S    
C3    C39   1.403103 A    
O4    Zn4   2.041673 S    
O21   C9    1.279626 A    
N13   O50   1.300462 A    
C57   C66   1.376363 A    
O5    Zn5   2.044260 S    
C23   C34   1.404253 A    
O6    Zn6   2.044260 S    
C14   C57   1.454729 S    
O2    C8    1.246665 A    
N14   O52   1.300556 A    
O12   Zn1   2.043264 S    
N1    O26   1.300929 A    
H10   C29   1.083055 S    
O3    C9    1.245986 A    
C26   C32   1.397646 A    
C56   C61   1.381816 A    
C2    C20   1.483022 S    
O9    C15   1.245605 A    
C60   C63   1.389499 A    
O10   C16   1.244399 A    
C42   C54   1.429383 A    
C62   N14   1.440224 S    
N4    O31   1.300981 A    
C48   C60   1.427562 A    
O12   C18   1.247015 A    
C51   C63   1.376237 A    
C16   C59   1.451226 S    
O1    Zn1   2.040661 S    
C24   C30   1.402595 A    
C21   C27   1.405165 A    
O2    Zn2   2.040661 S    
N3    O30   1.301397 A    
C1    C44   1.397570 A    
O18   C14   1.290537 A    
N15   O53   1.302136 A    
C20   C31   1.405354 A    
H2    C31   1.083065 S    
C25   C31   1.399354 A    
C2    C38   1.403420 A    
C45   C57   1.421956 A    
C11   C50   1.455084 S    
C8    C51   1.454382 S    
C54   C66   1.389836 A    
C41   C53   1.422886 A    
O9    Zn4   2.044262 S    
N17   O58   1.300452 A    
C39   N3    1.439297 S    
O8    C14   1.247858 A    
N2    O27   1.301384 A    
C65   N17   1.439877 S    
O13   Zn1   2.066222 S    
N13   O49   1.302146 A    
O15   Zn3   2.067026 S    
C63   N15   1.440234 S    
O4    C10   1.245339 A    
O22   Zn3   2.066079 S    
O17   Zn5   2.061795 S    
C37   N1    1.435824 S    
O18   Zn6   2.061797 S    
O21   Zn4   2.066080 S    
C10   C53   1.454884 S    
C46   N10   1.435658 S    
N10   O44   1.301069 A    
C18   C55   1.445741 S    
C44   N8    1.437337 S    
C64   N16   1.439416 S    
O17   C13   1.280638 A    
O3    Zn3   2.041673 S    
C5    C41   1.403095 A    
N18   O60   1.302146 A    
N16   O56   1.300246 A    
C38   C50   1.423503 A    
N8    O40   1.300952 A    
N7    O38   1.301158 A    
C39   C51   1.422644 A    
C19   C25   1.401392 A    
C6    C42   1.403887 A    
O15   C15   1.278251 A    
O16   C16   1.285945 A    
C38   N2    1.439172 S    
O10   Zn3   2.044262 S    
C4    C40   1.399109 A    
O7    C13   1.247455 A    
O11   Zn2   2.043264 S    
C48   N12   1.436176 S    
C41   N5    1.439329 S    
O19   Zn6   2.066924 S    
N16   O55   1.302087 A    
C46   C58   1.428867 A    
C53   C65   1.375706 A    
O20   Zn5   2.066924 S    
O19   C11   1.291670 A    
C12   C49   1.453647 S    
O20   C12   1.287260 A    
O16   Zn4   2.067026 S    
O14   Zn2   2.066222 S    
C22   C28   1.403576 A    
O23   Zn2   2.062039 S    
N9    O41   1.301173 A    
N12   O48   1.301489 A    
O24   Zn1   2.062041 S    
C43   N7    1.436022 S    
H5    C34   1.083134 S    
C42   N6    1.435893 S    
C40   N4    1.436247 S    
H4    C35   1.083015 S    
H8    C25   1.083004 S    
C9    C54   1.448693 S    
N5    O34   1.301339 A    
C61   N13   1.440138 S    
C15   C60   1.445339 S    
C47   N11   1.437210 S    
C59   C64   1.382737 A    
C52   C64   1.384083 A    
C58   C65   1.389678 A    
C47   C59   1.425467 A    
N12   O47   1.301517 A    
C37   C49   1.429784 A    
C2    C43   1.402009 A    
C49   C61   1.385929 A    
N10   O43   1.301094 A    
O14   C18   1.279674 A    
N11   O45   1.301061 A    
N5    O33   1.301162 A    
N7    O37   1.301119 A    
C66   N18   1.440295 S    
C19   C32   1.403800 A    
C6    C24   1.483220 S    
C7    C52   1.453221 S    
C5    C23   1.483011 S    
C6    C45   1.403271 A    
C20   C26   1.401986 A    
N18   O59   1.300530 A    
N6    O36   1.301090 A    
N8    O39   1.301015 A    
H3    C36   1.083119 S    
O23   C7    1.287815 A    
C23   C29   1.402467 A    
N1    O25   1.301090 A    
O7    Zn6   2.039066 S    
C3    C48   1.401754 A    
C29   C33   1.399153 A    
N11   O46   1.300996 A    
H12   C27   1.083074 S    
C24   C33   1.404331 A    
O5    C11   1.246032 A    
O6    C12   1.245550 A    
O11   C17   1.244852 A    
N14   O51   1.302110 A    
N15   O54   1.300536 A    
H9    C30   1.083054 S    
C44   C56   1.424986 A    
N4    O32   1.301106 A    
O8    Zn5   2.039064 S    
C55   C62   1.389613 A    
C43   C55   1.428050 A    
C50   C62   1.375912 A    
H11   C28   1.083262 S    
O22   C10   1.290225 A    
H6    C33   1.083114 S    
O13   C17   1.288276 A    
C4    C47   1.397478 A    
C1    C19   1.481033 S    
N9    O42   1.301347 A    
C3    C21   1.481559 S    
H1    C32   1.083225 S    
C4    C22   1.479423 S    
C13   C58   1.447908 S    
C17   C56   1.452131 S    
N3    O29   1.301279 A    
N6    O35   1.301221 A    
C21   C36   1.401720 A    
