data_mof_unit_63391.cif
_audit_creation_date              2012-12-11T14:47:39-0500
_audit_creation_method            fapswitch 2.2
_symmetry_space_group_name_H-M    P1
_symmetry_Int_Tables_number       1
_space_group_crystal_system       triclinic
_cell_length_a                    19.48605
_cell_length_b                    6.963761
_cell_length_c                    19.469451
_cell_angle_alpha                 89.417534
_cell_angle_beta                  95.73608
_cell_angle_gamma                 89.208267
_cell_volume                      2628.27382485

loop_
_atom_site_label
_atom_site_type_symbol
_atom_type_description
_atom_site_fract_x
_atom_site_fract_y
_atom_site_fract_z
_atom_type_partial_charge
O1    O     O_R   0.673510 0.377480 0.186100 -0.507987
O2    O     O_R   0.326490 0.622520 0.813900 -0.520425
O3    O     O_R   0.826490 0.877480 0.313900 -0.542989
O4    O     O_R   0.173510 0.122520 0.686100 -0.540578
O5    O     O_R   0.807790 0.705750 0.184090 -0.529825
O6    O     O_R   0.192210 0.294250 0.815910 -0.530280
O7    O     O_R   0.692210 0.205750 0.315910 -0.524259
O8    O     O_R   0.307790 0.794250 0.684090 -0.522474
C1    C     C_1   0.478129 0.994422 0.521193 0.031753
C2    C     C_1   0.521843 0.005573 0.478783 0.030766
C3    C     C_1   0.021873 0.494705 0.978799 0.032640
C4    C     C_1   0.978155 0.505320 0.021223 0.031371
C5    C     C_R   0.830887 0.538022 0.166250 0.719409
C6    C     C_R   0.169130 0.461982 0.833766 0.735476
C7    C     C_R   0.669121 0.038439 0.333734 0.722476
C8    C     C_R   0.330864 0.961564 0.666251 0.733399
O9    O     O_R   0.672870 0.707110 0.178120 -0.534304
O10   O     O_R   0.327130 0.292890 0.821880 -0.535539
O11   O     O_R   0.827130 0.207110 0.321880 -0.505880
O12   O     O_R   0.172870 0.792890 0.678120 -0.517893
O13   O     O_R   0.690610 0.878650 0.307880 -0.529548
O14   O     O_R   0.309390 0.121350 0.692120 -0.530929
O15   O     O_R   0.809390 0.378650 0.192120 -0.523518
O16   O     O_R   0.190610 0.621350 0.807880 -0.521768
C9    C     C_R   0.648544 0.540021 0.159636 0.764441
C10   C     C_R   0.351474 0.459871 0.839749 0.779087
C11   C     C_R   0.851674 0.035719 0.339862 0.761916
C12   C     C_R   0.148374 0.964110 0.660697 0.778792
C13   C     C_1   0.382855 0.971388 0.614218 -0.166257
C14   C     C_1   0.617120 0.028612 0.385760 -0.177967
C15   C     C_1   0.117146 0.472381 0.885769 -0.163870
C16   C     C_1   0.882881 0.527632 0.114254 -0.175841
O17   O     O_3   0.755980 0.544260 0.292580 -0.353404
O18   O     O_3   0.244020 0.455740 0.707420 -0.358653
O19   O     O_3   0.744020 0.044260 0.207420 -0.343121
O20   O     O_3   0.255980 0.955740 0.792580 -0.351640
V1    V     V_3+5 0.748890 0.818640 0.242100 1.527738
V2    V     V_3+5 0.251110 0.181360 0.757900 1.515592
V3    V     V_3+5 0.751110 0.318640 0.257900 1.570124
V4    V     V_3+5 0.248890 0.681360 0.742100 1.551442
C17   C     C_R   0.087299 0.984781 0.608792 -0.162717
C18   C     C_R   0.911809 0.010873 0.393733 -0.170505
C19   C     C_R   0.412177 0.461403 0.892667 -0.161426
C20   C     C_R   0.588841 0.541610 0.104521 -0.175863
C21   C     C_1   0.426343 0.981456 0.571547 0.035110
C22   C     C_1   0.573629 0.018541 0.428429 0.031337
C23   C     C_1   0.073656 0.482285 0.928440 0.036533
C24   C     C_1   0.926373 0.517736 0.071584 0.031792
C25   C     C_R   0.009885 0.805850 0.436788 0.283368
C26   C     C_R   0.978847 0.154988 0.575013 0.273679
C27   C     C_R   0.487357 0.718431 0.052026 0.274249
C28   C     C_R   0.523365 0.316989 0.934298 0.276043
C29   C     C_R   0.955375 0.852105 0.387460 -0.222452
C30   C     C_R   0.034676 0.110764 0.623332 -0.256191
C31   C     C_R   0.543272 0.698723 0.102212 -0.213081
C32   C     C_R   0.466587 0.334477 0.884902 -0.249779
C33   C     C_R   0.922039 0.124277 0.453675 0.382174
C34   C     C_R   0.082689 0.892086 0.544686 0.376905
C35   C     C_R   0.579706 0.402745 0.051840 0.376488
C36   C     C_R   0.415598 0.581501 0.950669 0.375790
C37   C     C_R   0.973956 0.069973 0.508316 -0.047910
C38   C     C_R   0.023029 0.920860 0.496365 -0.058846
C39   C     C_R   0.527105 0.430162 0.995301 -0.046245
C40   C     C_R   0.475762 0.578656 0.999464 -0.062578
H1    H     H_    0.037375 0.177054 0.673659 0.148982
H2    H     H_    0.946314 0.759320 0.343222 0.161979
H3    H     H_    0.464869 0.247294 0.838964 0.150930
H4    H     H_    0.551198 0.809600 0.140736 0.175468
Cl1   Cl    Cl    0.158984 0.779681 0.521650 -0.584296
Cl2   Cl    Cl    0.874451 0.342110 0.454498 -0.590395
Cl3   Cl    Cl    0.337816 0.698245 0.967224 -0.585355
Cl4   Cl    Cl    0.628850 0.187359 0.063090 -0.598314
I1    I     I_    0.054948 0.530597 0.420254 -0.232159
I2    I     I_    0.901893 0.321595 0.619220 -0.250636
I3    I     I_    0.436040 0.990582 0.056337 -0.240167
I4    I     I_    0.603160 0.141029 0.899111 -0.259386

loop_
_geom_bond_atom_site_label_1
_geom_bond_atom_site_label_2
_ccdc_geom_bond_type
C34   C38   A    
C1    C21   S    
O5    V1    S    
C5    C16   S    
C3    C23   S    
O10   C10   A    
C6    C15   S    
C4    C24   S    
C31   H4    S    
C30   H1    S    
C5    O15   A    
C26   C30   A    
C20   C31   A    
O19   V1    S    
C27   I3    S    
C17   C34   A    
C26   I2    S    
C18   C29   A    
O12   V4    S    
O15   V3    S    
C20   C35   A    
O14   V2    S    
C12   C17   S    
C9    C20   S    
C6    O16   A    
O17   V3    S    
C2    C22   S    
O6    V2    S    
C33   Cl2   S    
O11   C11   A    
C1    C2    T    
O5    C5    A    
C35   Cl4   S    
O7    C7    A    
O8    C8    A    
C15   C23   T    
O1    C9    A    
C16   C24   T    
C18   C33   A    
O4    C12   A    
C10   C19   S    
O20   V4    S    
O12   C12   A    
C36   Cl3   S    
C8    C13   S    
O17   V1    S    
C13   C21   T    
O19   V3    S    
O6    C6    A    
O2    C10   A    
O9    V1    S    
C29   H2    S    
O11   V3    S    
C19   C36   A    
O4    V2    S    
C25   I1    S    
C7    C14   S    
C8    O14   A    
C25   C38   A    
O18   V2    S    
C14   C22   T    
C27   C40   A    
C28   I4    S    
C28   C39   A    
C3    C4    T    
C34   Cl1   S    
C33   C37   A    
C32   H3    S    
C35   C39   A    
C36   C40   A    
O9    C9    A    
O3    C11   A    
O10   V2    S    
C11   C18   S    
C25   C29   A    
O20   V2    S    
O16   V4    S    
C27   C31   A    
C37   C38   A    
C17   C30   A    
O1    V3    S    
C39   C40   A    
O2    V4    S    
C19   C32   A    
C7    O13   A    
O13   V1    S    
O3    V1    S    
C26   C37   A    
O7    V3    S    
O18   V4    S    
O8    V4    S    
C28   C32   A    
