data_mof_unit_14660.cif
_audit_creation_date              2012-12-11T21:29:23-0500
_audit_creation_method            fapswitch 2.2
_symmetry_space_group_name_H-M    P1
_symmetry_Int_Tables_number       1
_space_group_crystal_system       triclinic
_cell_length_a                    8.210235
_cell_length_b                    18.956355
_cell_length_c                    18.771721
_cell_angle_alpha                 104.273856
_cell_angle_beta                  91.580452
_cell_angle_gamma                 92.431706
_cell_volume                      2826.63086695

loop_
_atom_site_label
_atom_site_type_symbol
_atom_type_description
_atom_site_fract_x
_atom_site_fract_y
_atom_site_fract_z
_atom_type_partial_charge
Ba1   Ba    Ba6+2 0.844980 0.532260 0.467660 1.745068
Ba2   Ba    Ba6+2 0.344840 0.467800 0.532350 1.726574
C1    C     C_3   0.631568 0.797938 0.315977 -0.345842
C2    C     C_R   0.918032 0.422931 0.085877 0.039061
C3    C     C_R   0.772701 0.383688 0.056230 -0.075030
C4    C     C_3   0.085364 0.678876 0.283051 0.367993
C5    C     C_R   0.709714 0.386720 0.987099 -0.098955
C6    C     C_R   0.794248 0.426676 0.944742 0.034880
C7    C     C_R   0.944111 0.463414 0.972038 0.012628
C8    C     C_R   0.731754 0.429538 0.875304 -0.111408
C9    C     C_R   0.821735 0.464535 0.829558 -0.008901
C10   C     C_R   0.974237 0.500595 0.856135 0.033025
C11   C     C_R   0.032719 0.501167 0.928278 -0.002980
C12   C     C_3   0.605018 0.722823 0.330232 0.339500
C13   C     C_R   0.764991 0.463800 0.757611 0.025205
C14   C     C_R   0.863256 0.494850 0.712082 -0.221313
C15   C     C_R   0.014408 0.530711 0.736770 0.062190
C16   C     C_3   0.068525 0.698739 0.209590 -0.342542
C17   C     C_R   0.067736 0.536577 0.811201 -0.022982
C18   C     C_R   0.151498 0.501350 0.072053 0.001912
C19   C     C_R   0.207817 0.503921 0.144939 -0.017789
C20   C     C_R   0.116114 0.466958 0.189613 -0.069234
C21   C     C_R   0.975803 0.423957 0.157540 -0.015003
C22   C     C_R   0.210484 0.577500 0.842587 -0.036008
C23   C     C_3   0.628878 0.306156 0.292002 0.743004
C24   C     C_R   0.266972 0.578810 0.914302 0.014956
C25   C     C_R   0.180345 0.539178 0.956692 0.012191
C26   C     C_R   0.239861 0.539235 0.028358 0.018989
C27   C     C_R   0.409714 0.619441 0.944480 -0.033907
C28   C     C_3   0.099780 0.699812 0.644557 0.271627
C29   C     C_R   0.471348 0.617989 0.014128 -0.066613
C30   C     C_R   0.387330 0.577971 0.056447 0.016949
C31   C     C_R   0.356393 0.543357 0.172718 -0.058123
C32   C     C_R   0.446396 0.578236 0.127158 -0.100757
C33   C     C_R   0.407884 0.548969 0.246202 0.028830
C34   C     C_3   0.691645 0.251422 0.225934 -0.310093
C35   C     C_R   0.302860 0.522981 0.292785 -0.163150
C36   C     C_R   0.165579 0.476400 0.265219 0.107507
C37   C     C_R   0.689312 0.955510 0.549680 0.001885
C38   C     C_R   0.774419 0.909739 0.585206 -0.075381
C39   C     C_R   0.907369 0.055260 0.579469 -0.102095
C40   C     C_3   0.181215 0.775938 0.653918 0.346101
C41   C     C_R   0.751398 0.026916 0.548944 0.020098
C42   C     C_R   0.964961 0.125324 0.578902 -0.107333
C43   C     C_R   0.870000 0.170640 0.548042 -0.037672
C44   C     C_R   0.715669 0.142975 0.514560 0.003842
C45   C     C_3   0.080461 0.326143 0.727182 0.377687
C46   C     C_R   0.656478 0.071122 0.514657 0.026322
C47   C     C_R   0.923652 0.243004 0.549717 -0.007879
C48   C     C_R   0.821063 0.287214 0.521158 -0.274105
C49   C     C_R   0.672954 0.259825 0.484898 -0.005928
C50   C     C_R   0.620948 0.186834 0.479965 -0.036060
C51   C     C_R   0.534784 0.929088 0.515108 0.032671
C52   C     C_3   0.034570 0.304816 0.367781 0.454910
C53   C     C_R   0.476041 0.856355 0.511601 0.014637
C54   C     C_R   0.571397 0.809828 0.542312 -0.044198
C55   C     C_R   0.715762 0.839088 0.582201 -0.002698
C56   C     C_3   0.991452 0.283299 0.775420 -0.220072
C57   C     C_R   0.478189 0.156006 0.440140 -0.023651
C58   C     C_R   0.420067 0.086674 0.440243 -0.094985
C59   C     C_R   0.502565 0.044155 0.480114 0.012281
C60   C     C_R   0.438451 0.974514 0.483364 0.022235
C61   C     C_R   0.278599 0.949160 0.456839 -0.100049
C62   C     C_R   0.321628 0.830209 0.477218 -0.025517
C63   C     C_R   0.222471 0.878493 0.453124 -0.083351
C64   C     C_3   0.090939 0.227201 0.347723 -0.314974
C65   C     C_R   0.270122 0.756636 0.468364 -0.008726
C66   C     C_R   0.371325 0.710024 0.493723 -0.312694
C67   C     C_3   0.593149 0.283534 0.679714 0.362316
C68   C     C_R   0.518689 0.735651 0.532109 0.003115
C69   C     C_3   0.556773 0.667906 0.703179 0.261282
C70   C     C_3   0.561620 0.716975 0.781174 0.353958
C71   C     C_3   0.086939 0.282469 0.846863 -0.195457
C72   C     C_3   0.244790 0.241255 0.835254 -0.183045
C73   C     C_3   0.214561 0.159771 0.800251 -0.373211
C74   C     C_3   0.576801 0.210551 0.699667 -0.385316
C75   C     C_R   0.004642 0.462629 0.043399 0.004701
H1    H     H_    0.664313 0.723520 0.384289 0.083604
H2    H     H_    0.437914 0.672246 0.677109 -0.020975
H3    H     H_    0.764092 0.812149 0.315707 0.150375
H4    H     H_    0.569284 0.775080 0.779041 0.092417
H5    H     H_    0.447616 0.707626 0.808420 -0.012774
H6    H     H_    0.471770 0.711494 0.332209 -0.076524
H7    H     H_    0.576086 0.839353 0.359700 0.068709
H8    H     H_    0.730021 0.343159 0.319660 0.000607
H9    H     H_    0.589494 0.215807 0.194588 0.138454
H10   H     H_    0.754730 0.280151 0.188898 0.084041
H11   H     H_    0.779024 0.216345 0.244774 0.065748
H12   H     H_    0.315164 0.772574 0.650317 -0.051940
H13   H     H_    0.573706 0.798666 0.261999 0.118008
H14   H     H_    0.107732 0.653484 0.164796 0.073690
H15   H     H_    0.161020 0.370723 0.761870 0.065692
H16   H     H_    0.987146 0.353324 0.700827 -0.104966
H17   H     H_    0.875616 0.309538 0.791952 0.052725
H18   H     H_    0.956257 0.227089 0.743057 0.112536
H19   H     H_    0.724719 0.298464 0.677954 -0.089356
H20   H     H_    0.534358 0.277454 0.624501 0.088112
H21   H     H_    0.655470 0.170891 0.665215 0.083896
H22   H     H_    0.448441 0.188597 0.690256 0.138684
H23   H     H_    0.135683 0.799308 0.608892 -0.042550
H24   H     H_    0.010000 0.628020 0.279707 0.077677
H25   H     H_    0.614761 0.217053 0.758273 0.113829
H26   H     H_    0.706808 0.350874 0.086620 0.106407
H27   H     H_    0.595501 0.357024 0.966370 0.068616
H28   H     H_    0.819762 0.492263 0.656522 0.056530
H29   H     H_    0.614113 0.402599 0.857097 0.100913
H30   H     H_    0.907164 0.392759 0.188505 0.109121
H31   H     H_    0.279550 0.608382 0.811591 0.089266
H32   H     H_    0.472496 0.653156 0.914498 0.158328
H33   H     H_    0.583246 0.649395 0.035461 0.108639
H34   H     H_    0.908822 0.303555 0.386428 -0.218873
H35   H     H_    0.559948 0.608460 0.146970 0.102196
H36   H     H_    0.215327 0.669511 0.293033 -0.088844
H37   H     H_    0.337212 0.533556 0.350644 0.083937
H38   H     H_    0.861296 0.342732 0.522915 0.058108
H39   H     H_    0.084877 0.143533 0.603450 0.099079
H40   H     H_    0.787202 0.807729 0.611100 0.127311
H41   H     H_    0.406698 0.185115 0.408996 0.106164
H42   H     H_    0.099948 0.862622 0.430836 0.111954
H43   H     H_    0.331621 0.653395 0.486057 0.072815
H44   H     H_    0.989931 0.024375 0.603780 0.085934
H45   H     H_    0.112319 0.335687 0.414845 0.089465
H46   H     H_    0.887260 0.926845 0.616509 0.105220
H47   H     H_    0.310809 0.067401 0.406788 0.064583
H48   H     H_    0.939441 0.708970 0.198067 0.150768
H49   H     H_    0.191819 0.983090 0.439247 0.072518
H50   H     H_    0.146051 0.748495 0.210746 0.117309
H51   H     H_    0.117884 0.668953 0.587075 -0.030606
H52   H     H_    0.970079 0.706160 0.655304 0.141073
H53   H     H_    0.189869 0.952712 0.786163 0.362870
H54   H     H_    0.992671 0.701478 0.828554 0.370261
H55   H     H_    0.473806 0.397355 0.164069 0.333261
H56   H     H_    0.009061 0.191918 0.304285 0.092819
H57   H     H_    0.124686 0.135433 0.831634 0.141407
H58   H     H_    0.169473 0.150228 0.742233 0.141372
H59   H     H_    0.330830 0.131988 0.800674 0.131202
H60   H     H_    0.327283 0.265768 0.801324 0.180866
H61   H     H_    0.308175 0.247889 0.889769 0.104751
H62   H     H_    0.006301 0.257635 0.881689 0.119749
H63   H     H_    0.117713 0.339549 0.878237 0.086063
H64   H     H_    0.090282 0.204552 0.396935 0.044903
H65   H     H_    0.216460 0.226764 0.327235 0.160318
H66   H     H_    0.575646 0.610652 0.704694 0.073180
O1    O     O_2   0.885040 0.450540 0.321170 -0.469697
O2    O     O_2   0.264997 0.247647 0.539587 -0.506434
O3    O     O_3   0.176682 0.279284 0.676745 -0.591905
O4    O     O_3   0.133000 0.456200 0.410860 -0.484550
O5    O     O_3   0.556800 0.589310 0.543550 -0.477284
O6    O     O_2   0.384750 0.321010 0.451130 -0.450565
O7    O     O_3   0.555213 0.268517 0.338689 -0.671297
O8    O     O_2   0.424347 0.469117 0.753466 -0.478476
O9    O     O_3   0.515489 0.335968 0.732168 -0.606884
O10   O     O_3   0.639000 0.584840 0.375630 -0.465504
O11   O     O_2   0.748079 0.534308 0.243755 -0.445734
O12   O     O_3   0.680338 0.691690 0.664407 -0.624795
O13   O     O_3   0.040190 0.333823 0.305474 -0.607389
O14   O     O_3   0.674325 0.670973 0.273948 -0.618075
O15   O     O_2   0.804950 0.679010 0.548920 -0.473723
O16   O     O_3   0.051170 0.624120 0.414780 -0.502560
O17   O     O_2   0.930944 0.752940 0.471014 -0.500524
O18   O     O_2   0.957485 0.844306 0.745187 -0.270306
O19   O     O_2   0.206661 0.811042 0.802241 -0.263979
O20   O     O_3   0.227255 0.919661 0.740738 -0.527399
O21   O     O_2   0.730369 0.750501 0.910696 -0.269365
O22   O     O_2   0.717671 0.622423 0.841452 -0.386959
O23   O     O_3   0.031384 0.736107 0.338592 -0.600372
O24   O     O_3   0.906765 0.713715 0.796156 -0.447211
O25   O     O_2   0.336486 0.308578 0.226373 -0.351896
O26   O     O_2   0.429713 0.409233 0.330973 -0.347371
O27   O     O_3   0.558430 0.402734 0.203927 -0.577445
O28   O     O_2   0.304650 0.549490 0.678880 -0.482973
O29   O     O_3   0.056690 0.543860 0.589150 -0.497358
O30   O     O_3   0.550690 0.415220 0.624380 -0.485710
O31   O     O_3   0.165601 0.665727 0.696145 -0.634280
O32   O     O_3   0.632900 0.410750 0.456460 -0.440669
O33   O     O_3   0.138520 0.375940 0.585230 -0.477605
P1    P     P_3+3 0.058010 0.429760 0.330690 1.076623
P2    P     P_3+3 0.631910 0.669560 0.569730 0.970525
P3    P     P_3+3 0.071475 0.717768 0.424187 0.926985
P4    P     P_3+3 0.131690 0.570300 0.669320 0.992724
P5    P     P_3+3 0.126468 0.284430 0.586795 0.949372
P6    P     P_3+3 0.616258 0.583920 0.283341 1.012602
P7    P     P_3+3 0.570017 0.316668 0.432021 1.004494
P8    P     P_3+3 0.564220 0.422206 0.718327 0.968020
S1    S     S_3+6 0.138602 0.837637 0.739007 -0.045464
S2    S     S_3+6 0.731207 0.699855 0.835253 -0.084176
S3    S     S_3+6 0.480103 0.357452 0.262429 -0.121184

loop_
_geom_bond_atom_site_label_1
_geom_bond_atom_site_label_2
_ccdc_geom_bond_type
H53   O20   S    
C53   C54   A    
C4    O23   S    
C44   C50   A    
C32   H35   S    
C45   H15   S    
C67   H19   S    
Ba1   P1    S    
C61   C63   A    
C73   H57   S    
C5    C6    A    
O17   P3    D    
C64   H64   S    
C43   C44   A    
C34   H11   S    
C33   P6    S    
C72   H61   S    
C24   C25   A    
C35   C36   A    
Ba2   P4    S    
C18   C75   A    
Ba2   O30   S    
C1    H13   S    
C16   H14   S    
C55   H40   S    
Ba1   O15   S    
C33   C35   A    
C22   C24   A    
C48   H38   S    
O21   S2    D    
C16   H48   S    
C52   O13   S    
Ba2   O32   S    
C73   H58   S    
C19   C31   A    
C74   H21   S    
C13   C14   A    
C20   C36   A    
O2    P5    D    
C54   C55   A    
C67   C74   S    
Ba1   Ba2   S    
C71   C72   S    
C4    H24   S    
C39   H44   S    
C58   H47   S    
C7    C11   A    
O18   S1    D    
C23   S3    S    
Ba2   O33   S    
C9    C13   A    
O30   P8    S    
C6    C7    A    
O27   S3    S    
C67   H20   S    
C22   H31   S    
C43   C47   A    
O9    P8    S    
C41   C46   A    
C70   H4    S    
O12   P2    S    
Ba2   O28   S    
O29   P4    S    
Ba2   O6    S    
C52   H45   S    
C45   O3    S    
C69   O12   S    
C57   C58   A    
C36   P1    S    
C19   C20   A    
C13   P8    S    
C3    H26   S    
C39   C41   A    
H55   O27   S    
C12   H6    S    
C58   C59   A    
C1    H3    S    
C69   H2    S    
C48   C49   A    
C44   C46   A    
C51   C53   A    
C34   H10   S    
C74   H25   S    
O33   P5    S    
C4    C16   S    
C72   H60   S    
C28   H51   S    
C72   C73   S    
C12   O14   S    
C49   C50   A    
C62   C65   A    
C26   C30   A    
O26   S3    D    
C37   C38   A    
C3    C5    A    
C2    C21   A    
C73   H59   S    
C14   C15   A    
C37   C41   A    
C35   H37   S    
C18   C26   A    
C34   H9    S    
Ba2   O4    S    
O24   S2    S    
C65   C66   A    
C64   H65   S    
C23   O7    S    
C74   H22   S    
C30   C32   A    
C56   H18   S    
C4    H36   S    
C60   C61   A    
C50   C57   A    
C40   H23   S    
C16   H50   S    
C64   H56   S    
Ba1   P2    S    
O4    P1    S    
C29   C30   A    
Ba1   O16   S    
C21   H30   S    
C53   C62   A    
C18   C19   A    
C23   H8    S    
C31   C32   A    
C45   H16   S    
C7    C75   A    
O1    P1    D    
Ba1   O10   S    
C70   S2    S    
C1    C12   S    
C14   H28   S    
C24   C27   A    
C47   P5    S    
C15   P4    S    
C66   C68   A    
O25   S3    D    
C57   H41   S    
C54   C68   A    
C5    H27   S    
C39   C42   A    
C68   P2    S    
O28   P4    D    
Ba1   O4    S    
O14   P6    S    
C15   C17   A    
O31   P4    S    
C25   C26   A    
C42   C43   A    
C40   S1    S    
O32   P7    S    
C27   H32   S    
C38   H46   S    
Ba1   O32   S    
O5    P2    S    
C38   C55   A    
O3    P5    S    
C20   C21   A    
C67   O9    S    
C28   C40   S    
O16   P3    S    
C2    C3    A    
O19   S1    D    
C9    C10   A    
O7    P7    S    
C52   C64   S    
C71   H63   S    
C28   H52   S    
C71   H62   S    
Ba1   O29   S    
C49   P7    S    
O22   S2    D    
O20   S1    S    
C40   H12   S    
C62   C63   A    
C17   C22   A    
C56   H17   S    
C2    C75   A    
C27   C29   A    
Ba1   O1    S    
O10   P6    S    
C66   H43   S    
C45   C56   S    
C46   C59   A    
C37   C51   A    
C69   H66   S    
O11   P6    D    
C10   C17   A    
C31   C33   A    
C29   H33   S    
C52   H34   S    
C12   H1    S    
O15   P2    D    
C59   C60   A    
C63   H42   S    
C61   H49   S    
C8    H29   S    
C8    C9    A    
C23   C34   S    
H54   O24   S    
C69   C70   S    
C10   C11   A    
C42   H39   S    
C51   C60   A    
C6    C8    A    
C47   C48   A    
C1    H7    S    
O6    P7    D    
O13   P1    S    
C11   C25   A    
Ba1   O5    S    
C65   P3    S    
O23   P3    S    
Ba2   O5    S    
C28   O31   S    
C70   H5    S    
C56   C71   S    
Ba2   O29   S    
O8    P8    D    
