data_mof_unit_14012.cif
_audit_creation_date              2012-12-11T14:43:59-0500
_audit_creation_method            fapswitch 2.2
_symmetry_space_group_name_H-M    P1
_symmetry_Int_Tables_number       1
_space_group_crystal_system       triclinic
_cell_length_a                    18.927838
_cell_length_b                    10.998571
_cell_length_c                    18.809918
_cell_angle_alpha                 90.040846
_cell_angle_beta                  89.547825
_cell_angle_gamma                 90.040409
_cell_volume                      3915.70922199

loop_
_atom_site_label
_atom_site_type_symbol
_atom_type_description
_atom_site_fract_x
_atom_site_fract_y
_atom_site_fract_z
_atom_type_partial_charge
C1    C     C_R   0.731598 0.381993 0.147451 0.551813
C2    C     C_R   0.268394 0.382039 0.852536 0.549169
C3    C     C_R   0.231598 0.881992 0.147451 0.552555
C4    C     C_R   0.768395 0.882039 0.852536 0.550968
C5    C     C_R   0.504410 0.389717 0.926614 -0.068996
C6    C     C_R   0.494721 0.389264 0.074020 -0.069225
C7    C     C_R   0.004410 0.889718 0.926614 -0.069074
C8    C     C_R   0.994720 0.889263 0.074020 -0.069391
C9    C     C_R   0.999532 0.998231 0.963709 -0.072689
C10   C     C_R   0.999446 0.998010 0.037253 -0.072627
C11   C     C_R   0.499532 0.498231 0.963708 -0.072704
C12   C     C_R   0.499446 0.498010 0.037252 -0.072651
C13   C     C_R   0.674420 0.949531 0.025657 -0.142867
C14   C     C_R   0.325638 0.950319 0.974409 -0.142988
C15   C     C_R   0.174420 0.449532 0.025656 -0.142810
C16   C     C_R   0.825639 0.450321 0.974409 -0.142864
C17   C     C_R   0.681236 0.924232 0.952789 -0.115062
C18   C     C_R   0.318809 0.925025 0.047267 -0.114535
C19   C     C_R   0.181235 0.424234 0.952788 -0.114965
C20   C     C_R   0.818809 0.425026 0.047268 -0.114494
C21   C     C_R   0.745868 0.944454 0.918432 -0.000183
C22   C     C_R   0.254043 0.944404 0.081527 0.000127
C23   C     C_R   0.245866 0.444458 0.918431 0.000058
C24   C     C_R   0.754044 0.444406 0.081527 0.000186
C25   C     C_R   0.795758 0.018229 0.952113 -0.086567
C26   C     C_R   0.203968 0.017564 0.047783 -0.086524
C27   C     C_R   0.295755 0.518236 0.952110 -0.086571
C28   C     C_R   0.703969 0.517566 0.047784 -0.086587
C29   C     C_R   0.788093 0.049805 0.022604 0.149392
C30   C     C_R   0.211644 0.049242 0.977337 0.149927
C31   C     C_R   0.288091 0.549809 0.022603 0.149275
C32   C     C_R   0.711645 0.549245 0.977338 0.149636
C33   C     C_R   0.730092 0.005948 0.062467 0.029490
C34   C     C_R   0.269837 0.006021 0.937534 0.029987
C35   C     C_R   0.230091 0.505950 0.062466 0.029023
C36   C     C_R   0.769838 0.506023 0.937535 0.029747
C37   C     C_R   0.514189 0.053688 0.467052 -0.137859
C38   C     C_R   0.508409 0.055721 0.539373 -0.142021
C39   C     C_R   0.031736 0.558176 0.471659 -0.134448
C40   C     C_R   0.023934 0.561934 0.544162 -0.140016
C41   C     C_R   0.495239 0.165143 0.574729 0.032982
C42   C     C_R   0.511070 0.162076 0.428002 0.033986
C43   C     C_R   0.999627 0.667949 0.576815 0.032017
C44   C     C_R   0.017890 0.661849 0.430434 0.032667
C45   C     C_R   0.531471 0.155391 0.146846 0.531906
C46   C     C_R   0.468504 0.155500 0.853182 0.530468
C47   C     C_R   0.031471 0.655391 0.146846 0.532420
C48   C     C_R   0.968504 0.655500 0.853182 0.530190
C49   C     C_R   0.492304 0.274770 0.536519 -0.136437
C50   C     C_R   0.500706 0.273251 0.462964 -0.141855
C51   C     C_R   0.989930 0.774431 0.536711 -0.138194
C52   C     C_R   0.999188 0.771368 0.463366 -0.147235
C53   C     C_R   0.812364 0.959271 0.460958 -0.141255
C54   C     C_R   0.184389 0.933765 0.543035 -0.135608
C55   C     C_R   0.291840 0.517818 0.472040 -0.139734
C56   C     C_R   0.684818 0.432214 0.542974 -0.137792
C57   C     C_R   0.814627 0.954012 0.533532 -0.155940
C58   C     C_R   0.179519 0.924911 0.470472 -0.151962
C59   C     C_R   0.292234 0.505398 0.544561 -0.164877
C60   C     C_R   0.679694 0.423088 0.470453 -0.148962
C61   C     C_R   0.757544 0.906302 0.572645 0.056310
C62   C     C_R   0.239811 0.900598 0.428608 0.060970
C63   C     C_R   0.249195 0.418356 0.577227 0.052041
C64   C     C_R   0.740133 0.402075 0.428183 0.060848
C65   C     C_R   0.696133 0.866369 0.537312 0.093671
C66   C     C_R   0.305660 0.881162 0.460898 0.080102
C67   C     C_R   0.199069 0.352209 0.536619 0.092887
C68   C     C_R   0.806626 0.387346 0.459875 0.086338
C69   C     C_R   0.693368 0.876865 0.463391 -0.110264
C70   C     C_R   0.310124 0.891459 0.534645 -0.117201
C71   C     C_R   0.198596 0.367175 0.463016 -0.121788
C72   C     C_R   0.811331 0.397660 0.533619 -0.111619
C73   C     C_R   0.750931 0.925548 0.425554 0.007840
C74   C     C_R   0.249970 0.921948 0.575196 0.011119
C75   C     C_R   0.246273 0.446891 0.430665 0.009377
C76   C     C_R   0.750741 0.423697 0.574684 0.008722
C77   C     C_R   0.727057 0.023030 0.140368 0.586076
C78   C     C_R   0.272933 0.023045 0.859637 0.586370
C79   C     C_R   0.227056 0.523031 0.140368 0.586884
C80   C     C_R   0.772933 0.523046 0.859637 0.586196
C81   C     C_R   0.728370 0.375668 0.353733 0.559034
C82   C     C_R   0.269569 0.378774 0.647868 0.557918
C83   C     C_R   0.228178 0.875090 0.353977 0.558547
C84   C     C_R   0.771126 0.876439 0.646525 0.556436
C85   C     C_R   0.533532 0.156620 0.354372 0.546462
C86   C     C_R   0.467766 0.157177 0.646513 0.548237
C87   C     C_R   0.035549 0.656353 0.355493 0.545002
C88   C     C_R   0.968585 0.657541 0.647082 0.546996
C89   C     C_R   0.741552 0.970489 0.354059 0.553658
C90   C     C_R   0.258600 0.970130 0.646064 0.558648
C91   C     C_R   0.240285 0.476107 0.356116 0.553010
C92   C     C_R   0.758776 0.470582 0.645879 0.555229
C93   C     C_R   0.496668 0.164422 0.925462 0.004416
C94   C     C_R   0.503264 0.164147 0.074595 0.004290
C95   C     C_R   0.996669 0.664422 0.925462 0.004335
C96   C     C_R   0.003264 0.664147 0.074595 0.003960
C97   C     C_R   0.500452 0.276860 0.962426 0.026720
C98   C     C_R   0.499039 0.276668 0.037899 0.026435
C99   C     C_R   0.000453 0.776860 0.962426 0.026766
C100  C     C_R   0.999039 0.776668 0.037899 0.026416
C101  C     C_R   0.500283 0.055242 0.036347 -0.164646
C102  C     C_R   0.500105 0.055398 0.963469 -0.164644
C103  C     C_R   0.000284 0.555243 0.036347 -0.164707
C104  C     C_R   0.000106 0.555398 0.963469 -0.164690
Cr1   Cr    Cr6+3 0.772000 0.169640 0.250110 1.071897
Cr2   Cr    Cr6+3 0.228000 0.169640 0.749890 1.065023
Cr3   Cr    Cr6+3 0.272000 0.669640 0.250110 1.069353
Cr4   Cr    Cr6+3 0.728000 0.669640 0.749890 1.070415
Cr5   Cr    Cr6+3 0.614960 0.323350 0.249260 1.007601
Cr6   Cr    Cr6+3 0.385040 0.323350 0.750740 1.007849
Cr7   Cr    Cr6+3 0.114960 0.823350 0.249260 1.005613
Cr8   Cr    Cr6+3 0.885040 0.823350 0.750740 1.004456
Cr9   Cr    Cr6+3 0.616670 0.010620 0.250840 1.019003
Cr10  Cr    Cr6+3 0.383330 0.010620 0.749160 1.016252
Cr11  Cr    Cr6+3 0.116670 0.510620 0.250840 1.019391
Cr12  Cr    Cr6+3 0.883330 0.510620 0.749160 1.015944
H1    H     H_    0.501897 0.967642 0.062577 0.149641
H2    H     H_    0.498824 0.967877 0.937046 0.149464
H3    H     H_    0.001898 0.467642 0.062576 0.149639
H4    H     H_    0.998826 0.467877 0.937046 0.149336
H5    H     H_    0.857627 0.997034 0.433042 0.144798
H6    H     H_    0.137397 0.956468 0.573557 0.140091
H7    H     H_    0.326860 0.585023 0.448683 0.166457
H8    H     H_    0.637622 0.452039 0.573871 0.139757
H9    H     H_    0.862913 0.984133 0.558551 0.135762
H10   H     H_    0.127634 0.935543 0.447409 0.140650
H11   H     H_    0.329651 0.559125 0.574590 0.136033
H12   H     H_    0.627532 0.430847 0.447701 0.141103
H13   H     H_    0.645406 0.851857 0.435923 0.122579
H14   H     H_    0.361318 0.883370 0.559576 0.130136
H15   H     H_    0.161130 0.317007 0.431048 0.117260
H16   H     H_    0.862848 0.392950 0.558187 0.134228
H17   H     H_    0.513829 0.397061 0.870157 0.151805
H18   H     H_    0.485265 0.396161 0.130499 0.152314
H19   H     H_    0.013829 0.897061 0.870157 0.151653
H20   H     H_    0.985264 0.896161 0.130500 0.151845
H21   H     H_    0.997706 0.083377 0.935079 0.171512
H22   H     H_    0.001201 0.082964 0.066151 0.171894
H23   H     H_    0.497705 0.583377 0.935078 0.171623
H24   H     H_    0.501201 0.582964 0.066150 0.171943
H25   H     H_    0.626757 0.922284 0.053359 0.152749
H26   H     H_    0.373433 0.923649 0.946761 0.152853
H27   H     H_    0.126757 0.422284 0.053358 0.152672
H28   H     H_    0.873434 0.423652 0.946761 0.152869
H29   H     H_    0.637481 0.885749 0.924129 0.177211
H30   H     H_    0.362667 0.887135 0.075971 0.177538
H31   H     H_    0.137481 0.385749 0.924129 0.176950
H32   H     H_    0.862667 0.387135 0.075971 0.177535
H33   H     H_    0.843723 0.046578 0.925020 0.169221
H34   H     H_    0.155862 0.045393 0.074786 0.169850
H35   H     H_    0.343719 0.546586 0.925017 0.169105
H36   H     H_    0.655863 0.545395 0.074787 0.169822
H37   H     H_    0.523428 0.966115 0.442307 0.128915
H38   H     H_    0.509774 0.969432 0.566941 0.122713
H39   H     H_    0.049363 0.473366 0.448218 0.136068
H40   H     H_    0.032467 0.479236 0.574074 0.120884
H41   H     H_    0.481002 0.360211 0.562908 0.130307
H42   H     H_    0.499541 0.358010 0.433725 0.121923
H43   H     H_    0.971532 0.857701 0.561305 0.124223
H44   H     H_    0.990914 0.853226 0.432552 0.115801
O1    O     O_R   0.787540 0.042690 0.170470 -0.456680
O2    O     O_R   0.212460 0.042690 0.829530 -0.458052
O3    O     O_R   0.287540 0.542690 0.170470 -0.454327
O4    O     O_R   0.712460 0.542690 0.829530 -0.457279
O5    O     O_R   0.556540 0.252920 0.323970 -0.505283
O6    O     O_R   0.443460 0.252920 0.676030 -0.502641
O7    O     O_R   0.056540 0.752920 0.323970 -0.505516
O8    O     O_R   0.943460 0.752920 0.676030 -0.506625
O9    O     O_R   0.545870 0.051100 0.330840 -0.526154
O10   O     O_R   0.454130 0.051100 0.669160 -0.527333
O11   O     O_R   0.045870 0.551100 0.330840 -0.525241
O12   O     O_R   0.954130 0.551100 0.669160 -0.525658
O13   O     O_R   0.681340 0.959300 0.325510 -0.505517
O14   O     O_R   0.318660 0.959300 0.674490 -0.507980
O15   O     O_R   0.181340 0.459300 0.325510 -0.505404
O16   O     O_R   0.818660 0.459300 0.674490 -0.506665
O17   O     O_3   0.667880 0.167870 0.250070 -0.279473
O18   O     O_3   0.332120 0.167870 0.749930 -0.274775
O19   O     O_3   0.167880 0.667870 0.250070 -0.281519
O20   O     O_3   0.832120 0.667870 0.749930 -0.276754
O21   O     O_R   0.765660 0.292160 0.175050 -0.479044
O22   O     O_R   0.234340 0.292160 0.824950 -0.482121
O23   O     O_R   0.265660 0.792160 0.175050 -0.478504
O24   O     O_R   0.734340 0.792160 0.824950 -0.480713
O25   O     O_R   0.670190 0.408980 0.168550 -0.531050
O26   O     O_R   0.329810 0.408980 0.831450 -0.532431
O27   O     O_R   0.170190 0.908980 0.168550 -0.530734
O28   O     O_R   0.829810 0.908980 0.831450 -0.531161
O29   O     O_R   0.556580 0.251450 0.175160 -0.513304
O30   O     O_R   0.443420 0.251450 0.824840 -0.514287
O31   O     O_R   0.056580 0.751450 0.175160 -0.512946
O32   O     O_R   0.943420 0.751450 0.824840 -0.514090
O33   O     O_R   0.545920 0.049510 0.170320 -0.528737
O34   O     O_R   0.454080 0.049510 0.829680 -0.530194
O35   O     O_R   0.045920 0.549510 0.170320 -0.528129
O36   O     O_R   0.954080 0.549510 0.829680 -0.530721
O37   O     O_R   0.681390 0.957840 0.176710 -0.509046
O38   O     O_R   0.318610 0.957840 0.823290 -0.510092
O39   O     O_R   0.181390 0.457840 0.176710 -0.507543
O40   O     O_R   0.818610 0.457840 0.823290 -0.509300
O41   O     O_R   0.787500 0.044280 0.330990 -0.509958
O42   O     O_R   0.212500 0.044280 0.669010 -0.495789
O43   O     O_R   0.287500 0.544280 0.330990 -0.513120
O44   O     O_R   0.712500 0.544280 0.669010 -0.500146
O45   O     O_R   0.765610 0.293630 0.323860 -0.465466
O46   O     O_R   0.234390 0.293630 0.676140 -0.469496
O47   O     O_R   0.265610 0.793630 0.323860 -0.469795
O48   O     O_R   0.734390 0.793630 0.676140 -0.466344
O49   O     O_R   0.670140 0.410570 0.329080 -0.536771
O50   O     O_R   0.329860 0.410570 0.670920 -0.532158
O51   O     O_R   0.170140 0.910570 0.329080 -0.536777
O52   O     O_R   0.829860 0.910570 0.670920 -0.537603
N1    N     N_3   0.637418 0.815739 0.576194 -0.593710
H45   H     H_    0.596926 0.790324 0.541709 0.205404
H46   H     H_    0.617147 0.884249 0.609015 0.224078
N2    N     N_3   0.367468 0.854317 0.418870 -0.611560
H47   H     H_    0.410267 0.833921 0.451572 0.208391
H48   H     H_    0.380836 0.933194 0.390825 0.234948
N3    N     N_3   0.151092 0.267137 0.569348 -0.582086
H49   H     H_    0.121037 0.221995 0.531081 0.207700
H50   H     H_    0.115622 0.317009 0.600636 0.218505
N4    N     N_3   0.868731 0.365538 0.417246 -0.601559
H51   H     H_    0.912684 0.351323 0.449533 0.215114
H52   H     H_    0.878896 0.444657 0.388114 0.231733
Br1   Br    Br    0.861771 0.148677 0.059186 -0.610140
Br2   Br    Br    0.137714 0.147374 0.940762 -0.611288
Br3   Br    Br    0.361771 0.648677 0.059184 -0.609938
Br4   Br    Br    0.637714 0.647374 0.940763 -0.610804

loop_
_geom_bond_atom_site_label_1
_geom_bond_atom_site_label_2
_ccdc_geom_bond_type
C52   H44   S    
C89   O41   A    
C62   C83   S    
C14   H26   S    
C58   C62   A    
C101  C102  A    
C56   C76   A    
C48   C95   S    
C55   C59   A    
C8    H20   S    
C14   C18   A    
C101  H1    S    
C81   O49   A    
C86   O6    A    
C89   O13   A    
C72   C76   A    
C33   C77   S    
C97   C98   A    
N1    H45   S    
C50   H42   S    
C5    H17   S    
C41   C86   S    
Cr4   O4    S    
Cr4   O20   S    
C7    C99   A    
C88   O12   A    
C43   C88   S    
Cr8   O52   S    
C47   O35   A    
C69   C73   A    
C16   H28   S    
N2    H48   S    
C5    C11   A    
C31   Br3   S    
C67   N3    S    
C6    C12   A    
C84   O52   A    
Cr12  O40   S    
C95   C99   A    
N3    H50   S    
Cr6   O18   S    
C59   H11   S    
Cr8   O8    S    
C29   C33   A    
C70   H14   S    
Cr12  O12   S    
C25   H33   S    
C2    O22   A    
C81   O45   A    
C15   C35   A    
C37   C42   A    
C11   H23   S    
C53   C73   A    
C80   O4    A    
Cr11  O15   S    
C103  C104  A    
Cr1   O21   S    
C54   C74   A    
Cr9   O37   S    
C9    H21   S    
Cr3   O19   S    
C40   C43   A    
Cr2   O22   S    
C20   C24   A    
C94   C101  A    
Cr5   O29   S    
C88   O8    A    
C70   C74   A    
C83   O47   A    
C47   C96   S    
C12   H24   S    
C46   O34   A    
C13   H25   S    
C44   C87   S    
C9    C10   A    
C34   C78   S    
Cr3   O47   S    
C92   O44   A    
Cr4   O48   S    
Cr8   O20   S    
C55   C75   A    
C44   C52   A    
Cr9   O17   S    
C54   H6    S    
C69   H13   S    
C18   C22   A    
C29   Br1   S    
C48   O36   A    
Cr7   O19   S    
C49   H41   S    
Cr2   O46   S    
Cr6   O50   S    
C46   O30   A    
Cr5   O49   S    
C45   C94   S    
C41   C49   A    
C83   O51   A    
C72   H16   S    
C63   C67   A    
N1    H46   S    
C25   C29   A    
C55   H7    S    
C71   C75   A    
C79   O39   A    
C30   C34   A    
C63   C82   S    
C27   C31   A    
C30   Br2   S    
C6    C98   A    
C32   Br4   S    
Cr7   O31   S    
C28   C32   A    
C62   C66   A    
N2    H47   S    
C38   C41   A    
Cr11  O11   S    
C21   C25   A    
C36   C80   S    
C79   O3    A    
N3    H49   S    
C1    O21   A    
C19   C23   A    
C82   O50   A    
Cr9   O9    S    
Cr10  O18   S    
Cr11  O39   S    
Cr6   O30   S    
C85   O9    A    
C56   C60   A    
C13   C33   A    
C39   H39   S    
C68   C72   A    
C45   O33   A    
C15   C19   A    
C2    O26   A    
Cr3   O43   S    
C37   C38   A    
C37   H37   S    
Cr8   O32   S    
C84   O48   A    
C93   C97   A    
Cr1   O41   S    
C99   C100  A    
C60   H12   S    
C16   C20   A    
C26   H34   S    
C87   O11   A    
C20   H32   S    
C91   O15   A    
Cr4   O44   S    
C42   C85   S    
C4    O24   A    
C40   H40   S    
N4    H52   S    
Cr5   O5    S    
C76   C92   S    
C15   H27   S    
Cr12  O16   S    
C45   O29   A    
C42   C50   A    
C58   H10   S    
C23   C27   A    
Cr12  O20   S    
Cr10  O38   S    
C17   H29   S    
Cr1   O1    S    
C59   C63   A    
C35   C79   S    
Cr7   O7    S    
C38   H38   S    
Cr11  O19   S    
C64   C68   A    
C39   C40   A    
C95   C104  A    
C78   O2    A    
Cr9   O13   S    
Cr8   O28   S    
C54   C58   A    
Cr10  O10   S    
Cr11  O35   S    
Cr6   O26   S    
C53   C57   A    
Cr10  O34   S    
C80   O40   A    
C27   H35   S    
C86   O10   A    
Cr9   O33   S    
C92   O16   A    
C103  H3    S    
C24   C28   A    
Cr1   O17   S    
C18   H30   S    
C61   C84   S    
C3    O27   A    
C93   C102  A    
C14   C34   A    
C11   C12   A    
C32   C36   A    
C57   C61   A    
C39   C44   A    
Cr1   O45   S    
C75   C91   S    
C87   O7    A    
C78   O38   A    
C90   O14   A    
Cr7   O27   S    
C82   O46   A    
C13   C17   A    
C60   C64   A    
Cr5   O25   S    
C1    O25   A    
C74   C90   S    
C28   H36   S    
C19   H31   S    
Cr4   O24   S    
C8    C100  A    
C85   O5    A    
C51   C52   A    
C6    H18   S    
C53   H5    S    
C1    C24   S    
C16   C36   A    
C57   H9    S    
C4    C21   S    
Cr6   O6    S    
C43   C51   A    
C66   C70   A    
C46   C93   S    
C77   O37   A    
C66   N2    S    
C65   C69   A    
C68   N4    S    
C96   C100  A    
C31   C35   A    
C51   H43   S    
C77   O1    A    
C5    C97   A    
C67   C71   A    
Cr2   O2    S    
C61   C65   A    
C47   O31   A    
N4    H51   S    
C102  H2    S    
Cr7   O51   S    
C64   C81   S    
C48   O32   A    
C65   N1    S    
C7    H19   S    
C73   C89   S    
Cr12  O36   S    
C7    C9    A    
Cr10  O14   S    
Cr2   O42   S    
C71   H15   S    
C8    C10   A    
C49   C50   A    
C22   C26   A    
C96   C103  A    
Cr3   O23   S    
C2    C23   S    
Cr5   O17   S    
C94   C98   A    
C56   H8    S    
C3    C22   S    
Cr3   O3    S    
C10   H22   S    
C90   O42   A    
C3    O23   A    
Cr2   O18   S    
C91   O43   A    
C4    O28   A    
C104  H4    S    
C26   C30   A    
C17   C21   A    
