data_mof_unit_8466.cif
_audit_creation_date              2013-03-05T15:52:29-0500
_audit_creation_method            fapswitch 2.2
_symmetry_space_group_name_H-M    P1
_symmetry_Int_Tables_number       1
_space_group_crystal_system       triclinic
_cell_length_a                    11.167098
_cell_length_b                    11.059565
_cell_length_c                    18.715375
_cell_angle_alpha                 90.225907
_cell_angle_beta                  89.691177
_cell_angle_gamma                 58.756939
_cell_volume                      1976.10659704

loop_
_atom_site_label
_atom_site_type_symbol
_atom_site_description
_atom_site_fract_x
_atom_site_fract_y
_atom_site_fract_z
_atom_type_partial_charge
O1    O     O_R   0.748670 0.497520 0.427970 -0.513861
O2    O     O_R   0.476470 0.723930 0.429450 -0.499410
C1    C     C_R   0.360308 0.769352 0.397469 0.535712
O3    O     O_R   0.264730 0.744140 0.416740 -0.557855
O4    O     O_R   0.309440 0.472410 0.418220 -0.527536
C2    C     C_R   0.386464 0.357294 0.386040 0.526411
O5    O     O_R   0.501630 0.260530 0.414310 -0.523811
O6    O     O_R   0.727920 0.305730 0.428950 -0.509161
C3    C     C_R   0.787099 0.371717 0.406815 0.522840
O7    O     O_R   0.738670 0.496020 0.588600 -0.475647
O8    O     O_R   0.467190 0.722540 0.578350 -0.503178
C4    C     C_R   0.341722 0.772417 0.603113 0.534680
O9    O     O_R   0.254720 0.742640 0.577370 -0.520736
O10   O     O_R   0.300170 0.471020 0.567120 -0.498964
C5    C     C_R   0.370341 0.350129 0.595913 0.542633
O11   O     O_R   0.491630 0.259030 0.574940 -0.515727
O12   O     O_R   0.718640 0.304340 0.577850 -0.513363
C6    C     C_R   0.766415 0.375084 0.609101 0.532866
Cr1   Cr    Cr6+3 0.601740 0.606840 0.505840 1.047346
Cr2   Cr    Cr6+3 0.291500 0.601560 0.495070 0.997931
Cr3   Cr    Cr6+3 0.606780 0.291630 0.499130 1.009480
O13   O     O_3   0.500010 0.500010 0.500020 -0.254347
C7    C     C_R   0.776158 0.850448 0.077616 -0.106422
C8    C     C_R   0.756522 0.981854 0.061453 -0.103315
C9    C     C_R   0.663688 0.099639 0.102439 -0.059238
C10   C     C_R   0.595265 0.087530 0.164167 0.055118
H1    H     H_    0.535556 0.135880 0.303683 0.131345
C11   C     C_R   0.367521 0.331456 0.159285 -0.012883
C12   C     C_R   0.459376 0.226138 0.273277 -0.166639
C13   C     C_R   0.474343 0.218693 0.199387 -0.016190
C14   C     C_R   0.059072 0.661796 0.352400 -0.095441
C15   C     C_R   0.920798 0.743201 0.376909 -0.133188
C16   C     C_R   0.619629 0.952858 0.180389 -0.072172
C17   C     C_R   0.704763 0.837090 0.135291 -0.086752
C18   C     C_R   0.268801 0.457779 0.192683 -0.161150
C19   C     C_R   0.249080 0.467545 0.267113 -0.024531
C20   C     C_R   0.814748 0.741111 0.340092 -0.092732
C21   C     C_R   0.846870 0.665644 0.276503 -0.101611
C22   C     C_R   0.983774 0.594553 0.249121 -0.098239
C23   C     C_R   0.097721 0.576774 0.290622 0.010484
C24   C     C_R   0.356752 0.350009 0.308855 -0.025532
H2    H     H_    0.713091 0.736754 0.142810 0.109171
H3    H     H_    0.896797 0.805550 0.425424 0.117916
H4    H     H_    0.842945 0.759723 0.044017 0.107188
H5    H     H_    0.807571 0.994037 0.015065 0.108742
H6    H     H_    0.638594 0.202546 0.083601 0.104383
H7    H     H_    0.131306 0.670929 0.381931 0.210931
H8    H     H_    0.564496 0.939945 0.224494 0.102324
H9    H     H_    0.192337 0.542364 0.159330 0.129998
H10   H     H_    0.708145 0.798541 0.360269 0.125654
H11   H     H_    0.765798 0.659621 0.249314 0.108534
H12   H     H_    0.000225 0.543424 0.197666 0.127418
C25   C     C_R   0.958319 0.290496 0.197872 -0.027914
C26   C     C_R   0.876844 0.242202 0.225734 -0.005916
C27   C     C_R   0.852103 0.235843 0.295975 -0.012140
C28   C     C_R   0.993839 0.325834 0.326244 0.000504
C29   C     C_R   0.037445 0.309679 0.251684 -0.161829
C30   C     C_3   0.771975 0.212492 0.202537 -0.265584
C31   C     C_3   0.736803 0.212207 0.281104 -0.252833
C32   C     C_R   0.880093 0.310005 0.344520 0.021105
H13   H     H_    0.129219 0.312304 0.236270 0.124554
H14   H     H_    0.831340 0.104867 0.178923 0.166411
H15   H     H_    0.688305 0.302786 0.172304 0.140902
H16   H     H_    0.635348 0.304438 0.298000 0.158552
H17   H     H_    0.760505 0.107090 0.300297 0.146137
C33   C     C_R   0.331067 0.873668 0.180624 0.034170
C34   C     C_R   0.458764 0.770997 0.207789 -0.020833
C35   C     C_R   0.469869 0.745570 0.280836 0.012267
C36   C     C_R   0.228304 0.928977 0.300082 -0.164651
C37   C     C_R   0.217171 0.952705 0.227353 -0.138149
C38   C     C_3   0.535652 0.617006 0.189627 -0.296758
C39   C     C_3   0.548064 0.589471 0.268898 -0.255873
C40   C     C_R   0.354569 0.822549 0.327061 0.022285
H18   H     H_    0.136247 0.985296 0.334021 0.132913
H19   H     H_    0.116116 0.024708 0.206282 0.151129
H20   H     H_    0.638179 0.579709 0.162986 0.143904
H21   H     H_    0.468745 0.583806 0.162501 0.142337
H22   H     H_    0.487891 0.541121 0.287822 0.140243
H23   H     H_    0.656928 0.538810 0.287960 0.150875
C41   C     C_R   0.312804 0.335170 0.817262 0.009350
C42   C     C_R   0.445624 0.270134 0.785921 -0.002218
C43   C     C_R   0.458115 0.269791 0.713505 0.023689
C44   C     C_R   0.208736 0.420135 0.700586 -0.169610
C45   C     C_R   0.194026 0.419532 0.774820 -0.155954
C46   C     C_3   0.570639 0.122455 0.790854 -0.240739
C47   C     C_3   0.580028 0.121971 0.710383 -0.215652
C48   C     C_R   0.341571 0.336767 0.669389 0.007888
H24   H     H_    0.117683 0.482434 0.667816 0.188991
H25   H     H_    0.089684 0.475035 0.797931 0.160730
H26   H     H_    0.547480 0.042233 0.810083 0.172259
H27   H     H_    0.660383 0.120057 0.817605 0.132751
H28   H     H_    0.675941 0.115645 0.689937 0.159759
H29   H     H_    0.554100 0.048118 0.684151 0.164257
C49   C     C_R   0.854753 0.315294 0.827850 0.009793
C50   C     C_R   0.848420 0.427375 0.791238 -0.019999
C51   C     C_R   0.842013 0.436161 0.718722 0.042017
C52   C     C_R   0.861992 0.208403 0.712526 -0.160786
C53   C     C_R   0.873346 0.198811 0.787502 -0.154355
C54   C     C_3   0.756945 0.581855 0.804220 -0.249307
C55   C     C_3   0.747646 0.595027 0.723507 0.110555
C56   C     C_R   0.832369 0.334260 0.678605 -0.002119
H30   H     H_    0.869837 0.121612 0.681819 0.127062
H31   H     H_    0.893933 0.102933 0.813602 0.133305
H32   H     H_    0.814831 0.626367 0.830583 0.178711
H33   H     H_    0.655965 0.609810 0.830287 0.102828
H34   H     H_    0.641656 0.633227 0.702369 0.127286
C57   C     C_R   0.291375 0.867455 0.820623 0.016456
C58   C     C_R   0.181785 0.872624 0.782982 0.019329
C59   C     C_R   0.187100 0.861602 0.709650 0.008613
C60   C     C_R   0.397219 0.871749 0.707169 -0.171690
C61   C     C_R   0.394347 0.877665 0.781638 -0.160131
C62   C     C_3   0.117103 0.784761 0.791548 -0.265070
C63   C     C_3   0.122176 0.772365 0.710886 -0.233007
C64   C     C_R   0.302608 0.846443 0.671303 0.013173
H35   H     H_    0.482430 0.870684 0.678734 0.149620
H36   H     H_    0.475439 0.885367 0.808567 0.142447
H37   H     H_    0.008712 0.846088 0.813466 0.156180
H38   H     H_    0.187422 0.682859 0.818751 0.140424
H39   H     H_    0.195458 0.663234 0.691622 0.174059
H40   H     H_    0.016870 0.826429 0.686037 0.187258
O14   O     O_R   0.186620 0.923750 0.087000 -0.533058
O15   O     O_R   0.957350 0.194160 0.084660 -0.503351
C65   C     C_R   0.979139 0.286193 0.118311 0.548812
O16   O     O_R   0.935120 0.407280 0.085350 -0.526336
O17   O     O_R   0.203800 0.365060 0.067090 -0.526209
C66   C     C_R   0.330547 0.296600 0.090438 0.528955
O18   O     O_R   0.417470 0.174910 0.067830 -0.504210
O19   O     O_R   0.375160 0.946380 0.070880 -0.491527
C67   C     C_R   0.305700 0.901143 0.105420 0.533885
O20   O     O_R   0.160500 0.919670 0.926690 -0.518131
O21   O     O_R   0.933140 0.190380 0.936050 -0.506783
C68   C     C_R   0.889387 0.306552 0.902966 0.558725
O22   O     O_R   0.909010 0.403210 0.925030 -0.519313
O23   O     O_R   0.179590 0.361290 0.918480 -0.511167
C69   C     C_R   0.296107 0.290347 0.886459 0.553756
O24   O     O_R   0.391360 0.170840 0.907510 -0.527607
O25   O     O_R   0.350950 0.942600 0.922260 -0.510202
C70   C     C_R   0.273467 0.899021 0.896536 0.543381
Cr4   Cr    Cr6+3 0.062440 0.063060 0.008240 0.993302
Cr5   Cr    Cr6+3 0.062950 0.375000 0.998920 0.992008
Cr6   Cr    Cr6+3 0.374550 0.061770 0.992470 1.014847
O26   O     O_3   0.166650 0.166610 0.999880 -0.268958
C71   C     C_3   0.070747 0.347664 0.385815 -0.258276
C72   C     C_3   0.136668 0.223781 0.437779 -0.429889
H41   H     H_    0.212222 0.124662 0.409127 0.149448
H42   H     H_    0.055559 0.210020 0.464482 0.152812
H43   H     H_    0.194252 0.244375 0.479608 0.153800
H44   H     H_    0.155605 0.355898 0.363588 0.158640
H45   H     H_    0.999935 0.447305 0.415286 0.188959
N1    N     N_R   0.813427 0.669951 0.694666 0.063740
O27   O     O_R   0.800205 0.779302 0.728509 -0.424451
O28   O     O_R   0.858241 0.647634 0.628855 -0.349038

loop_
_geom_bond_atom_site_label_1
_geom_bond_atom_site_label_2
_geom_bond_distance
_ccdc_geom_bond_type
C30   H14   1.107128 S    
C44   C48   1.399667 A    
C66   O18   1.252380 A    
C27   C31   1.468349 S    
H1    C12   1.082945 S    
C50   C51   1.360647 A    
C17   H2    1.074304 S    
C41   C45   1.412179 A    
O19   C67   1.292102 A    
C42   C43   1.361482 A    
C46   H27   1.110703 S    
C65   O16   1.320033 A    
O4    Cr2   1.957754 S    
C33   C37   1.405468 A    
C46   C47   1.508909 S    
C28   C29   1.454891 A    
O8    Cr1   1.925216 S    
C31   H16   1.104012 S    
C12   C13   1.389018 A    
C41   C69   1.433867 S    
C8    H5    1.082643 S    
Cr5   O26   1.971038 S    
O15   Cr4   1.930151 S    
C39   H23   1.103989 S    
O23   Cr5   1.938604 S    
C62   H37   1.110969 S    
Cr4   O26   2.017968 S    
C50   C54   1.484948 S    
C49   C53   1.409282 A    
C71   C72   1.528676 S    
C58   C59   1.375594 A    
O12   C6    1.292913 A    
O18   Cr6   2.097643 S    
C60   C61   1.394416 A    
C39   H22   1.111108 S    
C14   C23   1.404394 A    
C63   H39   1.106877 S    
C28   C71   1.504054 S    
C14   C15   1.397234 A    
C11   C18   1.394946 A    
C68   O22   1.265618 A    
C2    C24   1.495088 S    
C53   H31   1.080857 S    
C18   H9    1.084249 S    
C57   C58   1.390783 A    
C36   C40   1.385374 A    
C61   H36   1.079761 S    
O19   Cr6   1.946272 S    
C60   C64   1.399300 A    
C34   C38   1.492862 S    
C52   H30   1.080353 S    
C59   C63   1.497481 S    
C33   C67   1.439421 S    
C27   C32   1.363455 A    
O24   Cr6   2.065287 S    
C44   H24   1.080756 S    
C14   H7    1.027228 S    
C51   C56   1.401958 A    
C19   C24   1.463737 A    
C49   C50   1.388279 A    
C72   H43   1.110928 S    
O20   Cr4   2.050582 S    
C62   C63   1.513389 S    
C11   C66   1.465011 S    
C52   C53   1.409066 A    
C4    C64   1.450704 S    
O17   Cr5   1.989260 S    
C21   C22   1.399843 A    
C54   H33   1.111948 S    
O1    Cr1   2.044586 S    
C34   C35   1.390008 A    
O10   Cr2   1.945188 S    
C69   O24   1.258491 A    
Cr1   O13   2.022621 S    
O1    C3    1.284970 A    
C8    C9    1.393805 A    
C9    H6    1.082353 S    
C72   H42   1.109960 S    
C25   C65   1.502567 S    
C22   C23   1.418938 A    
C25   C29   1.429131 A    
O6    C3    1.280889 A    
C21   H11   1.072503 S    
C55   N1    1.465697 S    
C35   C40   1.405741 A    
C43   C47   1.489670 S    
O12   Cr3   1.987718 S    
C7    H4    1.082636 S    
C58   C62   1.489879 S    
C22   H12   1.080240 S    
C6    C56   1.452025 S    
C20   C21   1.385126 A    
C47   H29   1.111625 S    
C63   H40   1.111475 S    
C10   C16   1.403073 A    
C44   C45   1.398572 A    
C19   C23   1.542571 S    
O7    Cr1   2.082255 S    
C35   C39   1.491270 S    
C7    C17   1.391675 A    
C52   C56   1.407643 A    
C16   C17   1.405581 A    
C36   H18   1.083444 S    
C15   C20   1.383788 A    
C29   H13   1.078016 S    
O23   C69   1.263576 A    
C59   C64   1.404184 A    
Cr2   O13   1.995506 S    
C10   C13   1.520885 S    
O17   C66   1.290406 A    
C43   C48   1.393040 A    
C30   C31   1.520356 S    
C45   H25   1.082634 S    
C1    O3    1.285447 A    
O20   C70   1.286282 A    
C38   H20   1.109918 S    
C38   H21   1.112662 S    
C5    C48   1.436005 S    
C26   C30   1.439225 S    
C30   H15   1.110244 S    
O25   Cr6   1.970660 S    
C26   C27   1.351436 A    
C54   H32   1.111423 S    
O9    Cr2   2.070043 S    
C12   C24   1.410486 A    
O2    Cr1   1.958264 S    
O10   C5    1.270996 A    
C57   C61   1.411962 A    
O16   Cr5   2.055144 S    
O14   C67   1.269011 A    
C41   C42   1.393542 A    
O21   C68   1.277179 A    
O6    Cr3   1.944419 S    
C46   H26   1.105935 S    
O11   Cr3   2.064420 S    
C25   C26   1.373379 A    
C2    O5    1.289677 A    
O25   C70   1.283737 A    
C55   H34   1.106142 S    
C54   C55   1.517103 S    
C72   H41   1.110020 S    
C3    C32   1.465935 S    
O14   Cr4   2.071995 S    
C57   C70   1.449484 S    
C11   C13   1.419639 A    
O2    C1    1.275963 A    
C9    C10   1.426280 A    
C38   C39   1.508301 S    
O5    Cr3   2.109931 S    
Cr6   O26   1.989092 S    
C31   H17   1.111632 S    
C62   H38   1.112096 S    
C20   H10   1.082637 S    
O4    C2    1.255321 A    
O7    C6    1.267901 A    
C51   C55   1.510831 S    
C15   H3    1.082816 S    
C33   C34   1.383475 A    
N1    O28   1.300474 A    
C36   C37   1.381232 A    
C1    C40   1.433366 S    
C49   C68   1.450321 S    
C71   H44   1.079296 S    
O21   Cr4   1.954467 S    
C7    C8    1.387530 A    
O3    Cr2   2.063719 S    
C28   C32   1.409792 A    
C71   H45   1.109261 S    
C4    O9    1.272874 A    
O22   Cr5   2.106547 S    
C37   H19   1.066868 S    
C16   H8    1.080506 S    
N1    O27   1.301261 A    
C47   H28   1.102796 S    
C18   C19   1.404070 A    
O15   C65   1.321123 A    
Cr3   O13   1.970310 S    
C60   H35   1.082437 S    
C42   C46   1.504112 S    
C5    O11   1.256690 A    
O8    C4    1.292834 A    
