data_mof_unit_61575.cif
_audit_creation_date              2012-12-10T17:59:40-0500
_audit_creation_method            fapswitch 2.2
_symmetry_space_group_name_H-M    P1
_symmetry_Int_Tables_number       1
_space_group_crystal_system       triclinic
_cell_length_a                    18.638447
_cell_length_b                    18.56878
_cell_length_c                    18.81437
_cell_angle_alpha                 109.399554
_cell_angle_beta                  110.002165
_cell_angle_gamma                 109.002343
_cell_volume                      5012.87827026

loop_
_atom_site_label
_atom_site_type_symbol
_atom_type_description
_atom_site_fract_x
_atom_site_fract_y
_atom_site_fract_z
_atom_type_partial_charge
C1    C     C_R   0.620135 0.620486 0.500121 0.887255
C2    C     C_R   0.685806 0.687126 0.500173 0.009162
C3    C     C_R   0.680725 0.502146 0.759919 -0.179133
C4    C     C_R   0.378937 0.499590 0.379305 0.986022
C5    C     C_R   0.744375 0.500706 0.823572 -0.176391
C6    C     C_R   0.815806 0.499313 0.815620 -0.009603
C7    C     C_R   0.823331 0.497637 0.743788 -0.169133
C8    C     C_R   0.758276 0.496328 0.678789 -0.167974
C9    C     C_R   0.687654 0.499413 0.687521 -0.007520
C10   C     C_R   0.262400 0.332906 0.533435 -0.132285
C11   C     C_R   0.198320 0.268271 0.532236 -0.233201
C12   C     C_3   0.177145 0.420365 0.204079 -0.202074
C13   C     C_R   0.185694 0.183243 0.497649 -0.033621
C14   C     C_R   0.235819 0.160735 0.462382 0.160474
C15   C     C_R   0.300002 0.226402 0.463736 -0.198271
C16   C     C_R   0.379600 0.379275 0.499803 0.909979
C17   C     C_R   0.313197 0.311996 0.499197 -0.065273
C18   C     C_R   0.003317 0.620490 0.123187 0.856539
C19   C     C_R   0.124506 0.500037 0.124329 0.901316
C20   C     C_R   0.001546 0.379549 0.881687 0.843500
C21   C     C_R   0.882624 0.499750 0.882439 0.844509
C22   C     C_R   0.001075 0.879775 0.380730 0.845176
C23   C     C_3   0.222360 0.483558 0.302884 0.015357
C24   C     C_R   0.879673 0.879854 0.499962 0.848293
C25   C     C_R   0.996501 0.117584 0.618948 0.841046
C26   C     C_R   0.119978 0.119470 0.499618 0.867342
C27   C     C_R   0.005766 0.760365 0.182473 -0.177331
C28   C     C_R   0.621167 0.499858 0.621094 0.840982
C29   C     C_R   0.003734 0.823542 0.245200 -0.191394
C30   C     C_R   0.002415 0.814162 0.315470 -0.006380
C31   C     C_R   0.002423 0.741977 0.323342 -0.179055
C32   C     C_R   0.001761 0.677491 0.259258 -0.187971
C33   C     C_R   0.003788 0.687164 0.189313 -0.010657
C34   C     C_3   0.311894 0.499289 0.312164 -0.049628
C35   C     C_R   0.074828 0.317499 0.819062 -0.173469
C36   C     C_R   0.073467 0.253520 0.754666 -0.171315
C37   C     C_R   0.993276 0.181668 0.684188 -0.128312
C38   C     C_R   0.912327 0.172477 0.676918 -0.023470
C39   C     C_R   0.913793 0.243022 0.737633 -0.019269
C40   C     C_3   0.323682 0.577675 0.297284 0.023898
C41   C     C_R   0.996019 0.312269 0.811238 -0.126584
C42   C     C_3   0.234079 0.563069 0.288877 -0.289119
C43   C     C_3   0.191128 0.500055 0.190965 -0.013305
C44   C     C_3   0.280094 0.515938 0.198350 -0.324063
C45   C     C_R   0.757415 0.759239 0.579668 -0.173975
C46   C     C_3   0.267467 0.437309 0.213729 -0.002275
C47   C     C_3   0.221111 0.068117 0.421233 -0.432588
C48   C     C_3   0.289323 0.058015 0.484142 -0.796763
C49   C     C_2   0.404153 0.666328 0.346889 0.383916
C50   C     C_2   0.828916 0.086807 0.612640 0.455971
C51   C     C_2   0.832177 0.249327 0.720365 0.447771
C52   C     C_2   0.284628 0.366668 0.169829 0.437399
C53   C     C_2   0.186435 0.464228 0.358503 0.393288
C54   C     C_R   0.822132 0.822399 0.579624 -0.166278
C55   C     C_R   0.813226 0.814129 0.500076 -0.013191
C56   C     C_R   0.740632 0.742980 0.420588 -0.182751
C57   C     C_R   0.677270 0.678489 0.420637 -0.140653
H1    H     H_    0.218746 0.614577 0.317964 0.137557
H2    H     H_    0.007126 0.767515 0.128004 0.147217
H3    H     H_    0.004383 0.880026 0.239757 0.143030
H4    H     H_    0.001270 0.734953 0.377931 0.144304
H5    H     H_    0.000803 0.620887 0.264618 0.141868
H6    H     H_    0.137586 0.371510 0.875116 0.148631
H7    H     H_    0.135266 0.259590 0.760211 0.152132
H8    H     H_    0.302289 0.529128 0.153999 0.149378
H9    H     H_    0.115733 0.355737 0.164406 0.164215
H10   H     H_    0.763851 0.765539 0.641207 0.145189
H11   H     H_    0.878251 0.878033 0.641132 0.148717
H12   H     H_    0.621291 0.622708 0.359124 0.144157
H13   H     H_    0.734054 0.736746 0.359026 0.145214
H14   H     H_    0.356541 0.103438 0.501689 0.255514
H15   H     H_    0.285372 0.072335 0.544460 0.270366
H16   H     H_    0.276640 0.989500 0.452662 0.251131
H17   H     H_    0.154459 0.018685 0.400844 0.196153
H18   H     H_    0.225252 0.052423 0.360851 0.210458
H19   H     H_    0.401881 0.716305 0.330015 0.078148
H20   H     H_    0.819653 0.041995 0.551854 0.083300
H21   H     H_    0.825219 0.286978 0.772869 0.083305
H22   H     H_    0.320477 0.375967 0.135831 0.042123
H23   H     H_    0.625661 0.504056 0.766316 0.145155
H24   H     H_    0.122743 0.457971 0.345597 0.060579
H25   H     H_    0.738912 0.502256 0.879525 0.145214
H26   H     H_    0.878603 0.496057 0.737634 0.145320
H27   H     H_    0.763652 0.494495 0.622728 0.146353
H28   H     H_    0.271703 0.398798 0.560384 0.184796
H29   H     H_    0.158981 0.284536 0.558908 0.146680
H30   H     H_    0.339620 0.210613 0.437236 0.166031
O1    O     O_R   0.592040 0.539900 0.448690 -0.641777
O2    O     O_R   0.948580 0.908330 0.356880 -0.621156
O3    O     O_R   0.960490 0.908280 0.552000 -0.622659
O4    O     O_R   0.591220 0.643330 0.551330 -0.596018
O5    O     O_R   0.856260 0.908310 0.447800 -0.624436
O6    O     O_R   0.051420 0.091500 0.642940 -0.612441
O7    O     O_R   0.947190 0.091540 0.538750 -0.634055
O8    O     O_R   0.143740 0.091510 0.552020 -0.616876
O9    O     O_R   0.039510 0.091550 0.447830 -0.615481
O10   O     O_R   0.408100 0.448290 0.356370 -0.624258
O11   O     O_R   0.407270 0.551710 0.459000 -0.564704
O12   O     O_R   0.054890 0.643310 0.094620 -0.621038
O13   O     O_R   0.408780 0.356670 0.448670 -0.620978
O14   O     O_R   0.407960 0.460100 0.551310 -0.617335
O15   O     O_R   0.592730 0.448290 0.541000 -0.622270
O16   O     O_R   0.591900 0.551710 0.643630 -0.633199
O17   O     O_R   0.951430 0.539890 0.094630 -0.622875
O18   O     O_2   0.472187 0.682826 0.405689 -0.569266
O19   O     O_2   0.770382 0.063005 0.629159 -0.524575
O20   O     O_2   0.772699 0.215752 0.645778 -0.533106
O21   O     O_2   0.260137 0.299391 0.173801 -0.550225
O22   O     O_2   0.227622 0.454940 0.417680 -0.574874
O23   O     O_R   0.044450 0.448260 0.096050 -0.629310
O24   O     O_R   0.147910 0.551670 0.096030 -0.624737
O25   O     O_R   0.952840 0.356630 0.912840 -0.631931
O26   O     O_R   0.056290 0.460040 0.912820 -0.616488
O27   O     O_R   0.859820 0.448260 0.911420 -0.626745
O28   O     O_R   0.963280 0.551670 0.911400 -0.621492
O29   O     O_R   0.052810 0.908290 0.461080 -0.618926
Zn1   Zn    Zn3+2 0.500550 0.430940 0.431470 0.996768
Zn2   Zn    Zn3+2 0.499450 0.569060 0.568530 1.023098
Zn3   Zn    Zn3+2 0.934780 0.430920 0.003740 0.959724
Zn4   Zn    Zn3+2 0.072940 0.569020 0.003710 0.958097
Zn5   Zn    Zn3+2 0.069600 0.999890 0.569480 0.961155
Zn6   Zn    Zn3+2 0.930400 0.999940 0.430340 0.967234

loop_
_geom_bond_atom_site_label_1
_geom_bond_atom_site_label_2
_ccdc_geom_bond_type
C39   C51   S    
C55   C56   A    
C10   H28   S    
C25   O6    A    
C4    O11   A    
C27   C29   A    
C31   H4    S    
C7    H26   S    
C35   C36   A    
C21   O28   A    
C42   H1    S    
C20   C41   S    
C2    C57   A    
C7    C8    A    
C39   C41   A    
C27   C33   A    
C24   C55   S    
C12   C23   S    
C29   C30   A    
C23   C42   S    
C34   C40   S    
O14   Zn2   S    
C36   C37   A    
O6    Zn5   S    
C12   C43   S    
C30   C31   A    
C54   H11   S    
O2    Zn6   S    
C10   C17   A    
C40   C49   S    
C46   C52   S    
C56   C57   A    
C53   H24   S    
C1    C2    S    
C25   C37   S    
O12   Zn4   S    
C20   O25   A    
C31   C32   A    
C19   C43   S    
C8    C9    A    
C45   H10   S    
O11   Zn2   S    
C34   C46   S    
C52   H22   S    
O27   Zn3   S    
O17   Zn3   S    
O8    Zn5   S    
C1    O1    A    
C40   C42   S    
C25   O7    A    
C1    O4    A    
C13   C14   A    
C44   H8    S    
C48   H15   S    
C3    H23   S    
C24   O5    A    
C44   C46   S    
C23   C53   S    
C2    C45   A    
C26   O9    A    
C38   C39   A    
C4    C34   S    
C49   H19   S    
O29   Zn5   S    
C12   C46   S    
C16   C17   S    
C49   O18   D    
C6    C21   S    
C12   H9    S    
O24   Zn4   S    
C43   C44   S    
C37   C38   A    
C3    C9    A    
O5    Zn6   S    
O26   Zn4   S    
C47   C48   S    
C29   H3    S    
C23   C34   S    
O4    Zn2   S    
C18   O17   A    
C6    C7    A    
O15   Zn1   S    
O7    Zn6   S    
C45   C54   A    
C56   H13   S    
O3    Zn5   S    
C13   C26   S    
O16   Zn2   S    
C42   C43   S    
C48   H14   S    
C50   H20   S    
C36   H7    S    
C15   H30   S    
C19   O23   A    
C53   O22   D    
C26   O8    A    
C15   C17   A    
C54   C55   A    
C22   C30   S    
C8    H27   S    
C48   H16   S    
C16   O13   A    
C47   H17   S    
C21   O27   A    
C3    C5    A    
C24   O3    A    
O23   Zn3   S    
O25   Zn3   S    
C14   C47   S    
C38   C50   S    
C19   O24   A    
O9    Zn6   S    
C32   C33   A    
C51   H21   S    
C32   H5    S    
C27   H2    S    
C5    H25   S    
C11   C13   A    
C28   O16   A    
C5    C6    A    
C22   O29   A    
C22   O2    A    
O10   Zn1   S    
C20   O26   A    
C35   C41   A    
C18   C33   S    
C10   C11   A    
C47   H18   S    
C28   O15   A    
C16   O14   A    
C40   C44   S    
C52   O21   D    
C51   O20   D    
O28   Zn4   S    
C18   O12   A    
C50   O19   D    
C14   C15   A    
C35   H6    S    
O13   Zn1   S    
C11   H29   S    
C57   H12   S    
O1    Zn1   S    
C4    O10   A    
C9    C28   S    
