data_mof_unit_39732.cif
_audit_creation_date              2012-12-10T20:44:04-0500
_audit_creation_method            fapswitch 2.2
_symmetry_space_group_name_H-M    P1
_symmetry_Int_Tables_number       1
_space_group_crystal_system       triclinic
_cell_length_a                    17.469747
_cell_length_b                    10.674383
_cell_length_c                    9.851468
_cell_angle_alpha                 89.874607
_cell_angle_beta                  90.008153
_cell_angle_gamma                 90.01884
_cell_volume                      1837.08512198

loop_
_atom_site_label
_atom_site_type_symbol
_atom_type_description
_atom_site_fract_x
_atom_site_fract_y
_atom_site_fract_z
_atom_type_partial_charge
C1    C     C_R   0.502232 0.259849 0.500130 0.883823
C2    C     C_R   0.114737 0.446140 0.500694 0.126602
C3    C     C_R   0.515328 0.063399 0.623212 0.143125
C4    C     C_R   0.353465 0.501000 0.500236 0.852742
C5    C     C_R   0.514600 0.128459 0.500613 -0.108820
C6    C     C_R   0.529100 0.065033 0.378687 -0.229004
C7    C     C_R   0.529461 0.935500 0.378529 -0.226465
C8    C     C_R   0.515392 0.871294 0.500321 -0.108816
C9    C     C_R   0.515953 0.935609 0.623060 0.135651
C10   C     C_3   0.462319 0.927169 0.740878 -0.478889
C11   C     C_3   0.461344 0.069129 0.740818 -0.498366
C12   C     C_R   0.886080 0.437464 0.500391 0.131144
C13   C     C_R   0.432988 0.488974 0.071230 0.231236
C14   C     C_R   0.565323 0.522390 0.071889 -0.145826
C15   C     C_R   0.565321 0.522420 0.927988 -0.138399
C16   C     C_R   0.502612 0.740058 0.499874 0.877844
C17   C     C_R   0.432987 0.489007 0.928623 0.205558
C18   C     C_3   0.378342 0.381919 0.923014 -0.510835
C19   C     C_3   0.378254 0.381968 0.077132 -0.515315
C20   C     C_R   0.646792 0.497737 0.499976 0.871172
C21   C     C_R   0.847910 0.452715 0.625214 0.129584
C22   C     C_R   0.769267 0.474798 0.623698 -0.237026
C23   C     C_1   0.966722 0.428570 0.496092 -0.073139
C24   C     C_R   0.729551 0.482014 0.500120 -0.059853
C25   C     C_R   0.768679 0.466468 0.377101 -0.206888
C26   C     C_R   0.846751 0.444314 0.377462 -0.199028
C27   C     C_3   0.889773 0.448346 0.759785 -0.436102
C28   C     C_3   0.925251 0.576093 0.793031 -0.329852
C29   C     C_3   0.972582 0.570061 0.923069 -0.899052
C30   C     C_3   0.259002 0.659755 0.681555 -0.409672
C31   C     C_3   0.201561 0.743164 0.757735 -0.372983
C32   C     C_3   0.242352 0.846736 0.836170 -0.877684
C33   C     C_1   0.034652 0.431158 0.496283 -0.066237
C34   C     C_R   0.145286 0.534886 0.589219 -0.169769
C35   C     C_R   0.224153 0.559075 0.590430 0.080575
C36   C     C_R   0.270858 0.488861 0.500738 -0.070755
C37   C     C_R   0.238902 0.400187 0.412417 -0.233254
C38   C     C_R   0.160837 0.379128 0.412061 -0.169496
H1    H     H_    0.535163 0.886787 0.282703 0.172502
H2    H     H_    0.739268 0.486629 0.719075 0.147203
H3    H     H_    0.403995 0.296290 0.122527 0.212689
H4    H     H_    0.739069 0.470926 0.280620 0.152508
H5    H     H_    0.876736 0.434528 0.281707 0.139671
H6    H     H_    0.106527 0.585051 0.655182 0.129041
H7    H     H_    0.274760 0.345370 0.345336 0.149733
H8    H     H_    0.136491 0.311072 0.342905 0.139019
H9    H     H_    0.534689 0.114293 0.282927 0.171996
H10   H     H_    0.936155 0.540874 0.010006 0.261829
H11   H     H_    0.020486 0.502528 0.911229 0.261184
H12   H     H_    0.406454 0.884496 0.713174 0.202899
H13   H     H_    0.996952 0.663948 0.945028 0.248583
H14   H     H_    0.962882 0.607493 0.708662 0.221686
H15   H     H_    0.878986 0.646592 0.805818 0.220650
H16   H     H_    0.849594 0.421491 0.842499 0.191915
H17   H     H_    0.934793 0.374797 0.756920 0.208584
H18   H     H_    0.322201 0.410066 0.120707 0.202535
H19   H     H_    0.285164 0.806135 0.907127 0.262468
H20   H     H_    0.271428 0.911810 0.764792 0.257833
H21   H     H_    0.199850 0.900896 0.895834 0.251576
H22   H     H_    0.161392 0.787491 0.684443 0.227256
H23   H     H_    0.490221 0.886391 0.832268 0.207302
H24   H     H_    0.168510 0.685437 0.831315 0.223885
H25   H     H_    0.296065 0.613686 0.758356 0.218921
H26   H     H_    0.295566 0.721388 0.617454 0.194723
H27   H     H_    0.404687 0.109297 0.713147 0.199992
H28   H     H_    0.488622 0.110289 0.832408 0.205118
H29   H     H_    0.618288 0.538694 0.125711 0.146733
H30   H     H_    0.618281 0.538746 0.874117 0.145745
H31   H     H_    0.322306 0.409240 0.878521 0.202174
H32   H     H_    0.404331 0.296492 0.878505 0.213756
N1    N     N_R   0.499490 0.499140 0.142800 -0.106572
N2    N     N_R   0.499490 0.499180 0.857150 -0.104089
O1    O     O_R   0.500010 0.316790 0.614690 -0.610410
O2    O     O_R   0.500000 0.316760 0.385350 -0.622223
O3    O     O_R   0.389120 0.500020 0.614710 -0.623513
O4    O     O_R   0.389110 0.499990 0.385370 -0.609832
O5    O     O_R   0.500000 0.683240 0.614650 -0.615487
O6    O     O_R   0.499990 0.683210 0.385310 -0.618687
O7    O     O_R   0.610890 0.500010 0.614630 -0.627272
O8    O     O_R   0.610880 0.499980 0.385290 -0.627751
Zn1   Zn    Zn3+2 0.500010 0.500020 0.653130 0.936750
Zn2   Zn    Zn3+2 0.499990 0.499980 0.346870 0.939847

loop_
_geom_bond_atom_site_label_1
_geom_bond_atom_site_label_2
_ccdc_geom_bond_type
C19   H18   S    
C18   H32   S    
C4    C36   S    
C30   H26   S    
C14   N1    A    
C35   C36   A    
C32   H20   S    
C27   H16   S    
C7    C8    A    
C29   H11   S    
C15   N2    A    
C12   C23   S    
C30   C35   S    
C1    C5    S    
C1    O2    A    
C28   C29   S    
C34   C35   A    
C30   C31   S    
C27   H17   S    
C18   C19   S    
C2    C38   A    
C4    O3    A    
C20   C24   S    
C8    C9    A    
C23   C33   T    
C14   H29   S    
C9    C10   S    
N2    Zn1   S    
C11   H28   S    
N1    Zn2   S    
C2    C34   A    
C18   H31   S    
C21   C27   S    
C8    C16   S    
C30   H25   S    
C31   H24   S    
C32   H19   S    
O2    Zn2   S    
O1    Zn1   S    
C26   H5    S    
C4    O4    A    
C6    H9    S    
C20   O8    A    
C29   H10   S    
C34   H6    S    
C24   C25   A    
O8    Zn2   S    
O4    Zn2   S    
O7    Zn1   S    
C13   C19   S    
O3    Zn1   S    
C13   N1    A    
C25   C26   A    
C12   C21   A    
C12   C26   A    
C31   H22   S    
C37   C38   A    
C3    C9    A    
O6    Zn2   S    
C31   C32   S    
O5    Zn1   S    
C22   H2    S    
C17   C18   S    
C2    C33   S    
C22   C24   A    
C10   H23   S    
C37   H7    S    
C10   H12   S    
C29   H13   S    
C36   C37   A    
C20   O7    A    
C3    C5    A    
C25   H4    S    
C28   H15   S    
C6    C7    A    
C13   C17   A    
C1    O1    A    
C28   H14   S    
C5    C6    A    
C15   H30   S    
C16   O6    A    
C38   H8    S    
C3    C11   S    
C10   C11   S    
C19   H3    S    
C17   N2    A    
C27   C28   S    
C7    H1    S    
C14   C15   A    
C16   O5    A    
C32   H21   S    
C21   C22   A    
C11   H27   S    
