data_mof_unit_14773.cif
_audit_creation_date              2013-03-05T15:52:20-0500
_audit_creation_method            fapswitch 2.2
_symmetry_space_group_name_H-M    P1
_symmetry_Int_Tables_number       1
_space_group_crystal_system       triclinic
_cell_length_a                    14.886571
_cell_length_b                    15.32518
_cell_length_c                    9.899234
_cell_angle_alpha                 90.005375
_cell_angle_beta                  89.890814
_cell_angle_gamma                 89.998262
_cell_volume                      2258.40099709

loop_
_atom_site_label
_atom_site_type_symbol
_atom_site_description
_atom_site_fract_x
_atom_site_fract_y
_atom_site_fract_z
_atom_type_partial_charge
O1    O     O_R   0.408390 0.908380 0.614690 -0.655979
O2    O     O_R   0.408390 0.091620 0.614690 -0.634779
O3    O     O_R   0.908390 0.408380 0.614690 -0.634893
O4    O     O_R   0.908390 0.591620 0.614690 -0.655907
O5    O     O_R   0.408370 0.908380 0.385360 -0.635924
O6    O     O_R   0.408370 0.091620 0.385360 -0.638621
O7    O     O_R   0.908370 0.408380 0.385360 -0.638647
O8    O     O_R   0.908370 0.591620 0.385360 -0.635894
C1    C     C_R   0.385361 0.875029 0.501025 0.861643
C2    C     C_R   0.381300 0.120794 0.500033 0.858533
C3    C     C_R   0.881302 0.379203 0.500026 0.858529
C4    C     C_R   0.885314 0.624940 0.501036 0.861804
Zn1   Zn    Zn3+2 0.500010 0.000000 0.653130 0.926378
Zn2   Zn    Zn3+2 0.000010 0.500000 0.653130 0.926369
Zn3   Zn    Zn3+2 0.499980 0.000000 0.346870 0.958342
Zn4   Zn    Zn3+2 0.999980 0.500000 0.346870 0.958302
O9    O     O_R   0.591620 0.091610 0.614640 -0.630499
O10   O     O_R   0.591620 0.908390 0.614640 -0.620094
O11   O     O_R   0.091620 0.591610 0.614640 -0.620112
O12   O     O_R   0.091620 0.408390 0.614640 -0.630503
O13   O     O_R   0.591610 0.091610 0.385310 -0.612458
O14   O     O_R   0.591610 0.908390 0.385310 -0.602602
O15   O     O_R   0.091610 0.591610 0.385310 -0.602573
O16   O     O_R   0.091610 0.408390 0.385310 -0.612539
C5    C     C_R   0.621531 0.118095 0.500006 0.856476
C6    C     C_R   0.613748 0.874563 0.500602 0.876532
C7    C     C_R   0.113797 0.625406 0.500620 0.876348
C8    C     C_R   0.121500 0.381877 0.500002 0.856486
H1    H     H_    0.222519 0.113835 0.389444 0.140819
H2    H     H_    0.313956 0.797919 0.286141 0.219068
H3    H     H_    0.813871 0.701973 0.286157 0.218931
H4    H     H_    0.722691 0.385959 0.388833 0.140982
C9    C     C_R   0.426516 0.289367 0.614870 -0.376122
C10   C     C_R   0.332023 0.781635 0.755489 -0.278988
C11   C     C_R   0.831689 0.718210 0.755560 -0.279616
C12   C     C_R   0.926380 0.210804 0.615533 -0.375685
H5    H     H_    0.479330 0.241420 0.606715 0.173857
H6    H     H_    0.403161 0.794277 0.758322 0.174562
H7    H     H_    0.902830 0.705601 0.758505 0.174633
H8    H     H_    0.979226 0.258705 0.607281 0.174057
C13   C     C_R   0.446159 0.369974 0.676871 0.499501
C14   C     C_R   0.284384 0.772939 0.878124 0.510537
C15   C     C_R   0.783978 0.726978 0.878131 0.510974
C16   C     C_R   0.945945 0.130349 0.677990 0.499258
C17   C     C_R   0.692120 0.744892 0.871971 0.328308
C18   C     C_R   0.879891 0.064281 0.678469 0.287275
C19   C     C_R   0.380093 0.435995 0.677246 0.288382
C20   C     C_R   0.192531 0.754965 0.872110 0.328133
C21   C     C_R   0.652785 0.768045 0.748808 -0.304769
C22   C     C_R   0.795564 0.081219 0.620507 -0.366783
C23   C     C_R   0.295648 0.418940 0.619848 -0.367045
C24   C     C_R   0.153138 0.731745 0.748996 -0.305264
H9    H     H_    0.581939 0.783814 0.748607 0.181535
H10   H     H_    0.746739 0.029024 0.618743 0.210915
H11   H     H_    0.246833 0.471154 0.618145 0.210305
H12   H     H_    0.082288 0.715999 0.748911 0.181974
C25   C     C_R   0.703400 0.765978 0.627476 0.087450
C26   C     C_R   0.775202 0.162919 0.562120 0.040683
C27   C     C_R   0.275230 0.337144 0.561800 0.040818
C28   C     C_R   0.203666 0.733825 0.627568 0.086410
C29   C     C_R   0.340849 0.271776 0.560347 0.044589
C30   C     C_R   0.287973 0.772853 0.629592 0.063006
C31   C     C_R   0.787714 0.726964 0.629598 0.063152
C32   C     C_R   0.840795 0.228297 0.560675 0.044488
C33   C     C_R   0.319444 0.191034 0.499700 -0.047551
C34   C     C_R   0.323479 0.803261 0.505017 -0.100920
C35   C     C_R   0.823323 0.696619 0.505040 -0.101070
C36   C     C_R   0.819469 0.308943 0.499677 -0.047757
C37   C     C_R   0.237455 0.176029 0.436656 -0.192041
C38   C     C_R   0.287127 0.776326 0.382169 -0.188521
C39   C     C_R   0.786998 0.723546 0.382172 -0.188897
C40   C     C_R   0.737574 0.323838 0.436299 -0.191730
H13   H     H_    0.692296 0.803803 0.285311 0.238972
H14   H     H_    0.609301 0.271871 0.388904 0.153292
H15   H     H_    0.109103 0.227917 0.389493 0.153078
H16   H     H_    0.192347 0.696125 0.285337 0.238732
C41   C     C_R   0.715092 0.778751 0.381492 -0.147862
C42   C     C_R   0.673692 0.259553 0.436338 -0.197830
C43   C     C_R   0.173559 0.240309 0.436683 -0.197657
C44   C     C_R   0.215213 0.721131 0.381528 -0.147839
C45   C     C_R   0.674061 0.801763 0.503264 -0.102710
C46   C     C_R   0.691678 0.180616 0.500215 -0.068560
C47   C     C_R   0.191630 0.319345 0.500218 -0.068013
C48   C     C_R   0.174222 0.698116 0.503331 -0.103129
H17   H     H_    0.640525 0.005569 0.124936 0.157652
H18   H     H_    0.140522 0.494345 0.124935 0.157479
C49   C     C_R   0.335778 0.999214 0.140580 -0.134515
C50   C     C_R   0.835778 0.500847 0.140581 -0.134893
H19   H     H_    0.330081 0.999516 0.247665 0.195708
H20   H     H_    0.830082 0.500499 0.247665 0.195750
C51   C     C_R   0.254926 0.999709 0.070482 -0.107294
C52   C     C_R   0.754926 0.500432 0.070484 -0.107517
H21   H     H_    0.191881 0.000144 0.125195 0.173525
H22   H     H_    0.691881 0.500038 0.125197 0.173633
C53   C     C_R   0.254901 0.999549 0.930684 -0.160473
C54   C     C_R   0.754903 0.500596 0.930686 -0.160577
H23   H     H_    0.191844 0.999331 0.876338 0.198583
H24   H     H_    0.691847 0.500871 0.876338 0.198346
C55   C     C_R   0.335773 0.999486 0.860187 -0.158345
C56   C     C_R   0.835774 0.500585 0.860189 -0.158400
H25   H     H_    0.330137 0.999674 0.753111 0.212923
H26   H     H_    0.830137 0.500369 0.753113 0.213017
C57   C     C_R   0.419051 0.999370 0.927841 0.147074
C58   C     C_R   0.919051 0.500667 0.927842 0.146905
C59   C     C_R   0.419078 0.999185 0.072532 0.165532
C60   C     C_R   0.919079 0.500849 0.072532 0.165577
N1    N     N_R   0.498810 0.000000 0.142780 -0.128417
N2    N     N_R   0.998810 0.500000 0.142780 -0.128346
C61   C     C_R   0.577318 0.003505 0.071288 -0.020968
C62   C     C_R   0.077317 0.496442 0.071288 -0.020889
H27   H     H_    0.640517 0.004450 0.873927 0.174953
H28   H     H_    0.140514 0.495453 0.873924 0.174984
C63   C     C_R   0.577325 0.002850 0.928050 -0.080389
C64   C     C_R   0.077323 0.497092 0.928049 -0.079897
N3    N     N_R   0.498740 0.000000 0.857170 -0.139748
N4    N     N_R   0.998740 0.500000 0.857170 -0.139714
O17   O     O_3   0.530941 0.388270 0.728596 -0.569268
C65   C     C_3   0.563108 0.319563 0.810478 -0.273872
H29   H     H_    0.596736 0.269132 0.747691 0.176651
H30   H     H_    0.509338 0.289893 0.874127 0.153650
H31   H     H_    0.614522 0.346278 0.880074 0.186729
O18   O     O_3   0.321748 0.788047 0.004914 -0.617390
C66   C     C_3   0.411990 0.760898 0.012628 -0.187777
H32   H     H_    0.456241 0.810752 0.966270 0.186350
H33   H     H_    0.422696 0.695607 0.965829 0.210684
H34   H     H_    0.431085 0.755664 0.120538 0.209178
O19   O     O_3   0.821279 0.712000 0.004994 -0.617327
C67   C     C_3   0.911498 0.739216 0.012759 -0.188471
H35   H     H_    0.922169 0.804487 0.965902 0.210899
H36   H     H_    0.955794 0.689366 0.966481 0.186812
H37   H     H_    0.930561 0.744522 0.120673 0.208823
O20   O     O_3   0.030747 0.112240 0.729772 -0.569197
C68   C     C_3   0.062532 0.180913 0.812082 -0.272777
H38   H     H_    0.008564 0.210278 0.875706 0.153407
H39   H     H_    0.096047 0.231587 0.749640 0.176332
H40   H     H_    0.113957 0.154249 0.881707 0.186792
N5    N     N_R   0.639638 0.744399 0.992807 0.196649
O21   O     O_R   0.632731 0.673188 0.063476 -0.399652
O22   O     O_R   0.615064 0.817966 0.046204 -0.466166
N6    N     N_R   0.896806 0.979972 0.738274 0.215745
O23   O     O_R   0.978296 0.952384 0.759265 -0.357049
O24   O     O_R   0.830117 0.929009 0.770160 -0.448991
N7    N     N_R   0.397186 0.520416 0.736429 0.216195
O25   O     O_R   0.478728 0.549192 0.752356 -0.357463
O26   O     O_R   0.330555 0.570475 0.771804 -0.448657
N8    N     N_R   0.140107 0.755511 0.993025 0.197168
O27   O     O_R   0.134003 0.826477 0.064467 -0.398823
O28   O     O_R   0.114517 0.682012 0.045524 -0.466486

loop_
_geom_bond_atom_site_label_1
_geom_bond_atom_site_label_2
_geom_bond_distance
_ccdc_geom_bond_type
C55   C57   1.410170 A    
C67   H37   1.108819 S    
C49   C51   1.390478 A    
C11   H7    1.076972 S    
C10   C14   1.411121 A    
O3    C3    1.285546 A    
C56   C58   1.410163 A    
C16   O20   1.391384 S    
C44   C48   1.395674 A    
C67   H35   1.113908 S    
C58   C60   1.432327 A    
C66   H32   1.107807 S    
H4    C40   1.084738 S    
C33   C37   1.391041 A    
O7    C3    1.284178 A    
N5    O22   1.297466 A    
C22   H10   1.080991 S    
Zn1   O10   1.993456 S    
C32   C36   1.411999 A    
C7    C48   1.432354 S    
H18   C62   1.081796 S    
N6    O24   1.301590 A    
N8    O27   1.300317 A    
H17   C61   1.081797 S    
C26   C46   1.413505 A    
Zn2   N4    2.019892 S    
C66   H33   1.113917 S    
C35   C39   1.394511 A    
N7    O25   1.301387 A    
C19   N7    1.443000 S    
C52   C54   1.383897 A    
C21   C25   1.417004 A    
C28   C30   1.390473 A    
Zn3   N1    2.020443 S    
O2    Zn1   1.994615 S    
C65   H29   1.110381 S    
C40   C42   1.369316 A    
C24   C28   1.417140 A    
O6    Zn3   1.993564 S    
C58   N4    1.376107 A    
Zn3   O14   1.994609 S    
C50   C52   1.390475 A    
C54   H24   1.082830 S    
O20   C68   1.413056 S    
O10   C6    1.284562 A    
C68   H40   1.109108 S    
H16   C44   1.081953 S    
O15   C7    1.296790 A    
O4    C4    1.283019 A    
C11   C15   1.411177 A    
C62   C64   1.417989 A    
H1    C37   1.084736 S    
C61   C63   1.417978 A    
H3    C39   1.082233 S    
Zn4   O16   1.994609 S    
C8    C47   1.417131 S    
N1    C61   1.366203 A    
C17   N5    1.427503 S    
H2    C38   1.082265 S    
C16   C18   1.411439 A    
C50   C60   1.410091 A    
C25   C31   1.390467 A    
N8    O28   1.297428 A    
C26   C32   1.399124 A    
C4    C35   1.435153 S    
C31   C35   1.419515 A    
C27   C29   1.399241 A    
C30   C34   1.419490 A    
C38   C44   1.364438 A    
C22   C26   1.412240 A    
Zn2   O12   1.993456 S    
C12   H8    1.078995 S    
O1    C1    1.283040 A    
N6    O23   1.301733 A    
H27   C63   1.081988 S    
C15   O19   1.393162 S    
C66   H34   1.108836 S    
C19   C23   1.405042 A    
O12   C8    1.284043 A    
C23   H11   1.081055 S    
C9    H5    1.079020 S    
C20   N8    1.427693 S    
C36   C40   1.391028 A    
C65   H31   1.109085 S    
C57   N3    1.376108 A    
O5    C1    1.299306 A    
C51   H21   1.082715 S    
C59   N1    1.376837 A    
C42   C46   1.391299 A    
C49   C59   1.410091 A    
C17   C21   1.399312 A    
O8    C4    1.299310 A    
C52   H22   1.082713 S    
C5    C46   1.417239 S    
C13   C19   1.411000 A    
C57   C59   1.432330 A    
C14   C20   1.396235 A    
C15   C17   1.396181 A    
Zn1   N3    2.019892 S    
O3    Zn2   1.994624 S    
H28   C64   1.081988 S    
C9    C29   1.411727 A    
O7    Zn4   1.993673 S    
C55   H25   1.063451 S    
C50   H20   1.063283 S    
Zn4   O15   1.994615 S    
C49   H19   1.063286 S    
O14   C6    1.296713 A    
C68   H38   1.114744 S    
C25   C45   1.416187 A    
C12   C16   1.410018 A    
O1    Zn1   1.994624 S    
O19   C67   1.408579 S    
O2    C2    1.285542 A    
C10   C30   1.415784 A    
C39   C41   1.364411 A    
O11   C7    1.284494 A    
C3    C36   1.416596 S    
C14   O18   1.393166 S    
C18   N6    1.443590 S    
C56   H26   1.063452 S    
C2    C33   1.416545 S    
N7    O26   1.301395 A    
O13   C5    1.286134 A    
C10   H6    1.076991 S    
Zn2   O11   1.993563 S    
O16   C8    1.286128 A    
C27   C47   1.413405 A    
C67   H36   1.107740 S    
O6    C2    1.284159 A    
C64   N4    1.365993 A    
C53   H23   1.082838 S    
C6    C45   1.432338 S    
N5    O21   1.300314 A    
C18   C22   1.405430 A    
Zn1   O9    1.993563 S    
C9    C13   1.410236 A    
O9    C5    1.284105 A    
O17   C65   1.413027 S    
C1    C34   1.435194 S    
C43   C47   1.391248 A    
C28   C48   1.416367 A    
C34   C38   1.394484 A    
Zn3   O13   1.994615 S    
C60   N2    1.376833 A    
C21   H9    1.081988 S    
C54   C56   1.390391 A    
N2    C62   1.366208 A    
C53   C55   1.390397 A    
O4    Zn2   1.994615 S    
C65   H30   1.114718 S    
O5    Zn3   1.993673 S    
C37   C43   1.369352 A    
Zn4   N2    2.020443 S    
C51   C53   1.383897 A    
C29   C33   1.411981 A    
C20   C24   1.399456 A    
C23   C27   1.412279 A    
O8    Zn4   1.993564 S    
C41   C45   1.395593 A    
H14   C42   1.084760 S    
C68   H39   1.110423 S    
H13   C41   1.081851 S    
C11   C31   1.415806 A    
C13   O17   1.391478 S    
O18   C66   1.408551 S    
C12   C32   1.411619 A    
H15   C43   1.084757 S    
C24   H12   1.081979 S    
C63   N3    1.365993 A    
