data_mof_unit_21007.cif
_audit_creation_date              2012-12-11T15:39:27-0500
_audit_creation_method            fapswitch 2.2
_symmetry_space_group_name_H-M    P1
_symmetry_Int_Tables_number       1
_space_group_crystal_system       triclinic
_cell_length_a                    14.351575
_cell_length_b                    14.793137
_cell_length_c                    33.192408
_cell_angle_alpha                 97.606746
_cell_angle_beta                  90.323283
_cell_angle_gamma                 118.922256
_cell_volume                      6093.97630425

loop_
_atom_site_label
_atom_site_type_symbol
_atom_type_description
_atom_site_fract_x
_atom_site_fract_y
_atom_site_fract_z
_atom_type_partial_charge
C1    C     C_R   0.616986 0.910238 0.437048 0.543751
C2    C     C_R   0.712408 0.438093 0.949142 0.532970
C3    C     C_R   0.754176 0.819801 0.765716 -0.115082
C4    C     C_R   0.746904 0.840816 0.726624 -0.114982
C5    C     C_R   0.685851 0.759488 0.694770 0.032787
C6    C     C_R   0.632553 0.655913 0.703006 -0.111927
C7    C     C_R   0.639765 0.634742 0.742517 -0.110884
C8    C     C_R   0.700801 0.716827 0.774195 0.032810
C9    C     C_R   0.570806 0.735178 0.632907 -0.119549
C10   C     C_R   0.553428 0.771342 0.598419 -0.126790
C11   C     C_R   0.739235 0.905779 0.604718 -0.128608
C12   C     C_R   0.743487 0.716484 0.945928 0.566951
C13   C     C_R   0.829954 0.440751 0.165318 -0.118718
C14   C     C_R   0.827798 0.453606 0.124513 -0.125069
C15   C     C_R   0.781629 0.356986 0.246722 -0.113743
C16   C     C_R   0.774504 0.344358 0.287640 -0.110893
C17   C     C_R   0.733729 0.396427 0.314243 0.031011
C18   C     C_R   0.706042 0.465909 0.299792 -0.113666
C19   C     C_R   0.712637 0.478054 0.258854 -0.110784
C20   C     C_R   0.747434 0.421262 0.231840 0.030162
C21   C     C_R   0.742634 0.425348 0.187928 0.031915
C22   C     C_R   0.607417 0.346568 0.368697 -0.117419
C23   C     C_R   0.594097 0.205651 0.456661 0.544231
C24   C     C_R   0.572863 0.299551 0.403358 -0.125737
C25   C     C_R   0.740902 0.300522 0.413100 -0.126562
C26   C     C_R   0.775547 0.347836 0.378492 -0.121371
C27   C     C_R   0.707474 0.367559 0.355151 0.032574
C28   C     C_R   0.637660 0.272366 0.424905 0.021711
C29   C     C_R   0.244039 0.877715 0.393570 0.020379
C30   C     C_R   0.231396 0.958757 0.381046 -0.129312
C31   C     C_R   0.206655 0.956043 0.340001 -0.108974
C32   C     C_R   0.756882 0.868831 0.638979 -0.119122
C33   C     C_R   0.193609 0.872157 0.311107 0.035760
C34   C     C_R   0.199051 0.788007 0.323593 -0.117082
C35   C     C_R   0.295490 0.892736 0.434443 0.542064
C36   C     C_R   0.223879 0.790526 0.364613 -0.126240
C37   C     C_R   0.192783 0.807350 0.163701 -0.169535
C38   C     C_R   0.165897 0.786084 0.121821 -0.142734
C39   C     C_R   0.088196 0.900312 0.129598 -0.125260
C40   C     C_R   0.114219 0.921319 0.172040 0.258539
C41   C     C_R   0.163430 0.871315 0.188965 0.080635
C42   C     C_1   0.174635 0.876096 0.232360 0.037350
C43   C     C_R   0.671980 0.785468 0.654285 0.033337
C44   C     C_1   0.182405 0.875420 0.268416 -0.014843
C45   C     C_R   0.109199 0.828678 0.104613 -0.011063
C46   C     C_R   0.637852 0.878309 0.395623 0.020205
C47   C     C_R   0.613881 0.904771 0.551560 0.543445
C48   C     C_R   0.553303 0.799508 0.368577 -0.129913
C49   C     C_R   0.565902 0.786942 0.326910 -0.117908
C50   C     C_R   0.663123 0.852287 0.312032 0.038258
C51   C     C_R   0.749931 0.925530 0.338994 -0.112292
C52   C     C_R   0.737553 0.938404 0.380636 -0.126145
C53   C     C_R   0.779844 0.919115 0.174935 -0.107652
C54   C     C_R   0.636661 0.859076 0.584739 0.019412
C55   C     C_R   0.794576 0.906420 0.133453 -0.127490
C56   C     C_R   0.619115 0.752374 0.121743 -0.125346
C57   C     C_R   0.604489 0.765456 0.163143 -0.115734
C58   C     C_R   0.686316 0.846544 0.189913 0.040359
C59   C     C_R   0.589792 0.199629 0.570822 0.541513
C60   C     C_1   0.677978 0.849397 0.232944 -0.026339
C61   C     C_1   0.671385 0.850069 0.269014 -0.028373
C62   C     C_R   0.716104 0.820208 0.106798 0.022251
C63   C     C_R   0.623974 0.251902 0.613489 0.019860
C64   C     C_R   0.559861 0.284807 0.635860 -0.129273
C65   C     C_R   0.051953 0.781270 0.063827 0.549152
C66   C     C_R   0.577546 0.311103 0.678211 -0.116572
C67   C     C_R   0.659485 0.305080 0.698547 0.041393
C68   C     C_R   0.728437 0.279842 0.676369 -0.114343
C69   C     C_R   0.711171 0.253818 0.634002 -0.129428
C70   C     C_R   0.764392 0.349345 0.844622 -0.115955
C71   C     C_R   0.288875 0.886712 0.548445 0.544442
C72   C     C_R   0.773164 0.373606 0.887037 -0.129223
C73   C     C_R   0.594490 0.352098 0.884615 -0.126063
C74   C     C_R   0.585954 0.327794 0.842212 -0.113318
C75   C     C_R   0.672324 0.330174 0.822160 0.042166
C76   C     C_R   0.743991 0.486927 0.066245 0.546451
C77   C     C_1   0.669524 0.321314 0.778620 -0.031595
C78   C     C_1   0.666391 0.315204 0.742129 -0.032272
C79   C     C_R   0.690147 0.380018 0.907327 0.021603
C80   C     C_R   0.064062 0.751047 0.907524 0.021773
C81   C     C_R   0.101968 0.849610 0.895580 -0.142941
C82   C     C_R   0.117463 0.861023 0.854762 -0.127940
C83   C     C_R   0.738013 0.450735 0.105830 0.020753
C84   C     C_R   0.095316 0.773995 0.825514 0.031224
C85   C     C_R   0.064150 0.677047 0.838021 -0.117848
C86   C     C_R   0.049302 0.665805 0.878750 -0.120259
C87   C     C_R   0.743028 0.789209 0.066434 0.553627
C88   C     C_R   0.143053 0.730767 0.756506 -0.113338
C89   C     C_R   0.147198 0.737799 0.715199 -0.111279
C90   C     C_R   0.108476 0.796697 0.698419 0.032934
C91   C     C_R   0.063752 0.847075 0.723522 -0.109639
C92   C     C_R   0.059898 0.840276 0.765002 -0.109994
C93   C     C_R   0.100195 0.782559 0.781836 0.032981
C94   C     C_R   0.174569 0.917599 0.647242 -0.120889
C95   C     C_R   0.648085 0.428228 0.127885 -0.122921
C96   C     C_R   0.220107 0.940040 0.610429 -0.129216
C97   C     C_R   0.163368 0.756405 0.589349 -0.127986
C98   C     C_R   0.021453 0.732004 0.947351 0.532106
C99   C     C_R   0.117084 0.733904 0.625981 -0.121901
C100  C     C_R   0.127805 0.815153 0.656079 0.032216
C101  C     C_R   0.219915 0.860319 0.582265 0.022091
C102  C     C_R   0.728085 0.701649 0.901127 0.016750
C103  C     C_R   0.629225 0.636063 0.878653 -0.124357
C104  C     C_R   0.620111 0.635216 0.836360 -0.116021
C105  C     C_R   0.710106 0.698589 0.816446 0.032553
C106  C     C_R   0.809690 0.755958 0.838702 -0.114574
C107  C     C_R   0.650589 0.416021 0.168623 -0.118412
C108  C     C_R   0.818141 0.758511 0.880424 -0.123089
Cr1   Cr    Cr6+3 0.424820 0.846020 0.489780 1.009277
Cr2   Cr    Cr6+3 0.657880 0.078580 0.505700 1.008515
Cr3   Cr    Cr6+3 0.417280 0.075360 0.504550 1.009062
Cr4   Cr    Cr6+3 0.903360 0.812540 0.006510 1.004936
Cr5   Cr    Cr6+3 0.914630 0.587050 0.006280 1.005292
Cr6   Cr    Cr6+3 0.673560 0.582680 0.008540 1.010189
H1    H     H_    0.577552 0.425037 0.114308 0.130405
H2    H     H_    0.044067 0.933325 0.116727 0.111790
H3    H     H_    0.898394 0.471052 0.108295 0.128640
H4    H     H_    0.202202 0.021355 0.330604 0.120326
H5    H     H_    0.870328 0.959509 0.122897 0.117689
H6    H     H_    0.843500 0.982257 0.195566 0.118166
H7    H     H_    0.825643 0.976023 0.327650 0.114118
H8    H     H_    0.804185 0.999526 0.400711 0.126893
H9    H     H_    0.475460 0.752308 0.379135 0.126002
H10   H     H_    0.531673 0.709225 0.174550 0.104978
H11   H     H_    0.557229 0.685400 0.101914 0.121850
H12   H     H_    0.493066 0.279091 0.411827 0.127092
H13   H     H_    0.498423 0.729764 0.306142 0.105496
H14   H     H_    0.847983 0.394911 0.903545 0.123697
H15   H     H_    0.853709 0.364894 0.368975 0.103311
H16   H     H_    0.831484 0.350915 0.829273 0.103123
H17   H     H_    0.792297 0.275347 0.691940 0.105622
H18   H     H_    0.761989 0.228874 0.617696 0.126858
H19   H     H_    0.492322 0.284454 0.620970 0.123576
H20   H     H_    0.514176 0.312579 0.824971 0.103874
H21   H     H_    0.529256 0.356628 0.899207 0.126568
H22   H     H_    0.524141 0.331146 0.695223 0.099704
H23   H     H_    0.901509 0.447641 0.179700 0.105022
H24   H     H_    0.113931 0.916339 0.917387 0.116862
H25   H     H_    0.018803 0.588634 0.887107 0.124301
H26   H     H_    0.079224 0.653981 0.631923 0.105314
H27   H     H_    0.794964 0.289140 0.297857 0.106136
H28   H     H_    0.184905 0.700669 0.696712 0.103520
H29   H     H_    0.176008 0.687057 0.768837 0.101694
H30   H     H_    0.143701 0.937036 0.845879 0.104638
H31   H     H_    0.033416 0.892872 0.711170 0.099040
H32   H     H_    0.025585 0.880246 0.783829 0.090334
H33   H     H_    0.184132 0.981651 0.670050 0.102140
H34   H     H_    0.793171 0.281730 0.429488 0.123812
H35   H     H_    0.262585 0.020773 0.605498 0.126606
H36   H     H_    0.045699 0.608524 0.816027 0.102718
H37   H     H_    0.160213 0.693311 0.567635 0.124772
H38   H     H_    0.558818 0.589866 0.893859 0.122281
H39   H     H_    0.808530 0.312438 0.226308 0.105407
H40   H     H_    0.895262 0.808632 0.896900 0.137960
H41   H     H_    0.836379 0.907760 0.654319 0.100215
H42   H     H_    0.786272 0.921580 0.721741 0.099923
H43   H     H_    0.799848 0.884992 0.789707 0.101949
H44   H     H_    0.542301 0.589762 0.819736 0.101551
H45   H     H_    0.183105 0.730727 0.103305 0.135734
H46   H     H_    0.585191 0.591516 0.678977 0.100426
H47   H     H_    0.598465 0.554667 0.748267 0.101403
H48   H     H_    0.503557 0.671583 0.644083 0.101150
H49   H     H_    0.473366 0.733417 0.583632 0.129151
H50   H     H_    0.880664 0.803386 0.824119 0.106482
H51   H     H_    0.581391 0.401620 0.185372 0.109242
H52   H     H_    0.805182 0.972555 0.594554 0.123792
H53   H     H_    0.675934 0.508064 0.319859 0.106922
H54   H     H_    0.688126 0.529906 0.248029 0.111633
H55   H     H_    0.552848 0.360000 0.351035 0.106149
H56   H     H_    0.231110 0.768969 0.176683 0.110272
H57   H     H_    0.052198 0.012971 0.180867 0.309524
H58   H     H_    0.188688 0.722523 0.301384 0.105167
H59   H     H_    0.233326 0.727104 0.373184 0.124215
H60   H     H_    0.246517 0.027090 0.402536 0.124590
O1    O     O_R   0.318160 0.824460 0.443680 -0.521657
O2    O     O_R   0.668160 0.499860 0.053480 -0.516736
O3    O     O_R   0.689170 0.693840 0.050110 -0.494901
O4    O     O_R   0.525040 0.857250 0.449830 -0.502556
O5    O     O_R   0.803860 0.812940 0.962540 -0.510622
O6    O     O_R   0.982950 0.787950 0.964120 -0.527523
O7    O     O_R   0.007050 0.649970 0.960540 -0.516710
O8    O     O_R   0.807910 0.482370 0.965590 -0.504648
O9    O     O_R   0.643310 0.460980 0.963840 -0.525871
O10   O     O_R   0.666140 0.657800 0.967020 -0.499409
O11   O     O_3   0.830520 0.660760 0.007110 -0.261627
O12   O     O_R   0.645130 0.163230 0.552140 -0.502495
O13   O     O_R   0.684760 0.998800 0.456360 -0.518334
O14   O     O_R   0.647540 0.166310 0.470260 -0.501572
O15   O     O_R   0.500960 0.181750 0.467450 -0.519896
O16   O     O_R   0.331100 0.981120 0.457080 -0.501254
O17   O     O_R   0.315560 0.821140 0.532010 -0.520396
O18   O     O_R   0.522630 0.854180 0.531710 -0.501233
O19   O     O_R   0.682160 0.995480 0.544690 -0.519257
O20   O     O_3   0.087213 0.985257 0.197553 -0.705284
O21   O     O_R   0.498360 0.178430 0.555780 -0.520037
O22   O     O_R   0.328690 0.978040 0.538950 -0.501732
O23   O     O_3   0.499990 0.999990 0.500010 -0.233363
O24   O     O_R   0.828710 0.851830 0.052170 -0.515146
O25   O     O_R   0.005980 0.823990 0.047210 -0.500486
O26   O     O_R   0.031900 0.688850 0.050170 -0.512729
O27   O     O_R   0.830940 0.518420 0.048680 -0.498290

loop_
_geom_bond_atom_site_label_1
_geom_bond_atom_site_label_2
_ccdc_geom_bond_type
C107  H51   S    
C41   C42   S    
C10   H49   S    
C73   C74   A    
Cr1   O23   S    
C19   C20   A    
C23   O15   A    
C8    C105  S    
C48   H9    S    
C81   C82   A    
C57   C58   A    
C53   H6    S    
C7    C8    A    
C12   O10   A    
C55   H5    S    
C77   C78   T    
C25   C28   A    
C7    H47   S    
C29   C36   A    
Cr2   O14   S    
C26   C27   A    
C37   C38   A    
Cr6   O11   S    
C72   H14   S    
C22   C24   A    
C38   H45   S    
C72   C79   A    
C30   C31   A    
C1    C46   S    
Cr1   O18   S    
C58   C60   S    
Cr6   O9    S    
C65   O26   A    
C55   C62   A    
C46   C52   A    
C70   H16   S    
C56   C57   A    
C59   O12   A    
C18   C19   A    
C2    O8    A    
Cr4   O24   S    
C47   O18   A    
C85   H36   S    
C38   C45   A    
C80   C86   A    
C2    C79   S    
C103  C104  A    
C65   O25   A    
C52   H8    S    
Cr1   O4    S    
C32   C43   A    
Cr5   O7    S    
C63   C69   A    
C95   H1    S    
C16   C17   A    
C11   H52   S    
C31   C33   A    
C102  C108  A    
C106  H50   S    
C9    C10   A    
Cr4   O25   S    
C90   C91   A    
Cr3   O22   S    
Cr4   O6    S    
Cr6   O3    S    
Cr6   O2    S    
C66   C67   A    
C71   C101  S    
Cr5   O11   S    
C36   H59   S    
C96   C101  A    
Cr2   O23   S    
C24   H12   S    
C15   C20   A    
C67   C78   S    
C42   C44   T    
C14   C83   A    
H57   O20   S    
C76   C83   S    
C90   C100  S    
C104  C105  A    
C97   C99   A    
C17   C18   A    
C53   C55   A    
C73   C79   A    
C81   H24   S    
C49   H13   S    
C46   C48   A    
Cr2   O13   S    
C9    C43   A    
C74   C75   A    
C62   C87   S    
C92   H32   S    
C67   C68   A    
C17   C27   S    
C73   H21   S    
C76   O2    A    
C84   C85   A    
C82   H30   S    
C3    C8    A    
C91   C92   A    
C76   O27   A    
C68   C69   A    
C40   O20   S    
C59   O21   A    
C25   C26   A    
C85   C86   A    
C37   H56   S    
C51   C52   A    
C60   C61   T    
C13   H23   S    
C89   H28   S    
C68   H17   S    
C31   H4    S    
C12   C102  S    
C29   C30   A    
C87   O3    A    
C32   H41   S    
C1    O4    A    
Cr5   O8    S    
C94   C100  A    
C1    O13   A    
C18   H53   S    
C14   H3    S    
C83   C95   A    
Cr2   O19   S    
C33   C34   A    
C97   H37   S    
C13   C21   A    
C50   C51   A    
C23   C28   S    
C20   C21   S    
C94   C96   A    
C75   C77   S    
Cr2   O12   S    
C21   C107  A    
C26   H15   S    
C95   C107  A    
C103  H38   S    
C47   C54   S    
C66   H22   S    
C23   O14   A    
C86   H25   S    
C11   C54   A    
C40   C41   A    
C4    H42   S    
C11   C32   A    
Cr3   O15   S    
C35   O16   A    
Cr5   O27   S    
C22   C27   A    
Cr4   O5    S    
C45   C65   S    
C51   H7    S    
C56   C62   A    
C99   H26   S    
C19   H54   S    
C98   O6    A    
C3    C4    A    
C91   H31   S    
Cr4   O11   S    
C34   H58   S    
C3    H43   S    
C64   H19   S    
C94   H33   S    
C88   C93   A    
C48   C49   A    
C88   H29   S    
C80   C98   S    
C33   C44   S    
C59   C63   S    
C47   O19   A    
C24   C28   A    
C104  H44   S    
C80   C81   A    
C6    H46   S    
C53   C58   A    
Cr1   O1    S    
C6    C7    A    
C105  C106  A    
C29   C35   S    
C82   C84   A    
C84   C93   S    
C99   C100  A    
C39   C45   A    
C35   O1    A    
C98   O7    A    
C16   H27   S    
Cr3   O23   S    
C57   H10   S    
C71   O22   A    
C5    C6    A    
C106  C108  A    
Cr1   O17   S    
C69   H18   S    
Cr6   O10   S    
C96   H35   S    
C74   H20   S    
C92   C93   A    
Cr5   O26   S    
C25   H34   S    
C34   C36   A    
C2    O9    A    
C37   C41   A    
C102  C103  A    
C10   C54   A    
C15   H39   S    
C22   H55   S    
C9    H48   S    
C63   C64   A    
C39   C40   A    
C4    C5    A    
C12   O5    A    
C108  H40   S    
C88   C89   A    
Cr3   O16   S    
C56   H11   S    
C49   C50   A    
Cr3   O21   S    
C70   C75   A    
C39   H2    S    
C50   C61   S    
C5    C43   S    
C70   C72   A    
C87   O24   A    
C71   O17   A    
C89   C90   A    
C13   C14   A    
C30   H60   S    
C97   C101  A    
C15   C16   A    
C64   C66   A    
