data_mof_unit_51147.cif
_audit_creation_date              2012-10-26T19:42:14-0400
_audit_creation_method            fapswitch 2.2
_symmetry_space_group_name_H-M    P1
_symmetry_Int_Tables_number       1
_space_group_crystal_system       triclinic
_cell_length_a                    9.637055
_cell_length_b                    10.856908
_cell_length_c                    17.318173
_cell_angle_alpha                 94.779984
_cell_angle_beta                  85.078332
_cell_angle_gamma                 88.385595
_cell_volume                      1797.87801116

loop_
_atom_site_label
_atom_site_type_symbol
_atom_type_description
_atom_site_fract_x
_atom_site_fract_y
_atom_site_fract_z
_atom_type_partial_charge
C1    C     C_R   0.497874 0.737563 0.495800 0.567916
C2    C     C_R   0.531024 0.494590 0.264331 0.055797
C3    C     C_R   0.231031 0.900012 0.512975 -0.087234
C4    C     C_R   0.480507 0.505451 0.650310 0.566326
C5    C     C_R   0.114699 0.969107 0.549666 0.243313
C6    C     C_R   0.134503 0.082796 0.589445 -0.048334
C7    C     C_R   0.266334 0.134869 0.585375 0.223233
C8    C     C_R   0.378943 0.071814 0.538469 0.043691
C9    C     C_R   0.367150 0.945761 0.514325 -0.088514
C10   C     C_R   0.491824 0.872804 0.490998 0.040010
C11   C     C_R   0.616918 0.931970 0.471334 0.237917
C12   C     C_R   0.344014 0.513440 0.783309 0.239986
C13   C     C_R   0.619087 0.060562 0.480580 -0.142450
C14   C     C_R   0.501579 0.130735 0.512930 0.000328
C15   C     C_R   0.885690 0.309054 0.402539 0.240139
C16   C     C_R   0.500624 0.263777 0.505776 0.612830
C17   C     C_R   0.974749 0.210587 0.369093 -0.149345
C18   C     C_R   0.117130 0.217860 0.368694 0.188723
C19   C     C_R   0.170226 0.321499 0.404892 0.011505
C20   C     C_R   0.086557 0.411043 0.452900 0.043148
C21   C     C_R   0.937098 0.408390 0.452601 0.151546
C22   C     C_R   0.914946 0.583384 0.545223 0.070212
C23   C     C_R   0.429335 0.469545 0.140884 -0.042564
C24   C     C_R   0.061311 0.583333 0.546536 0.322169
C25   C     C_R   0.519105 0.497880 0.349818 0.585887
C26   C     C_R   0.470217 0.523654 0.736039 0.028845
C27   C     C_R   0.591820 0.554401 0.771944 -0.155453
C28   C     C_R   0.589565 0.572633 0.852264 -0.142261
C29   C     C_R   0.466108 0.558848 0.898731 -0.024734
C30   C     C_R   0.344265 0.528514 0.864042 -0.065586
C31   C     C_R   0.415480 0.466326 0.221692 0.239904
C32   C     C_R   0.658868 0.520829 0.224576 -0.160235
C33   C     C_R   0.670570 0.524428 0.144053 -0.137532
C34   C     C_R   0.554545 0.502764 0.102501 0.040773
C35   C     C_2   0.464078 0.570995 0.984225 0.226649
C36   C     C_2   0.564082 0.512143 0.018314 -0.060424
Cu1   Cu    Cu3+1 0.359340 0.500010 0.500010 0.988618
Cu2   Cu    Cu3+1 0.640660 0.499990 0.499990 1.027743
H1    H     H_    0.768888 0.547349 0.114452 0.126842
H2    H     H_    0.341843 0.446486 0.107721 0.139764
H3    H     H_    0.684482 0.597308 0.878141 0.127577
H4    H     H_    0.689718 0.565431 0.737984 0.150054
H5    H     H_    0.809855 0.919062 0.425629 0.326894
H6    H     H_    0.983850 0.846346 0.517532 0.345667
H7    H     H_    0.200002 0.273728 0.659056 0.351010
H8    H     H_    0.712726 0.105894 0.461060 0.139964
H9    H     H_    0.738701 0.238430 0.342044 0.300724
H10   H     H_    0.221770 0.418400 0.220826 0.323450
H11   H     H_    0.153726 0.060134 0.307210 0.332266
H12   H     H_    0.211175 0.815009 0.479793 0.166200
H13   H     H_    0.211545 0.657790 0.598397 0.370333
H14   H     H_    0.199643 0.553189 0.720060 0.351169
H15   H     H_    0.300388 0.681578 0.994964 0.327630
H16   H     H_    0.046181 0.131906 0.622320 0.131930
H17   H     H_    0.850889 0.651495 0.582538 0.159584
H18   H     H_    0.933160 0.132418 0.336654 0.092065
H19   H     H_    0.279193 0.326870 0.392754 0.235587
H20   H     H_    0.749254 0.541180 0.255871 0.159101
H21   H     H_    0.652501 0.465512 0.983587 0.081616
H22   H     H_    0.248542 0.516402 0.899832 0.145591
N1    N     N_R   0.852190 0.498790 0.499250 -0.261209
N2    N     N_R   0.148060 0.498710 0.499220 -0.260591
O1    O     O_R   0.381190 0.680360 0.500010 -0.560825
O2    O     O_3   0.981219 0.926583 0.549493 -0.678374
O3    O     O_3   0.289074 0.242499 0.630209 -0.650819
O4    O     O_3   0.754011 0.310586 0.379061 -0.652878
O5    O     O_3   0.290699 0.435520 0.259365 -0.690998
O6    O     O_3   0.208006 0.128488 0.329624 -0.687884
O7    O     O_3   0.110945 0.671230 0.597939 -0.730595
O8    O     O_3   0.220152 0.486144 0.753186 -0.687612
O9    O     O_3   0.357231 0.637062 0.029568 -0.698422
O10   O     O_R   0.618760 0.680340 0.500000 -0.448277
O11   O     O_R   0.367440 0.500030 0.613600 -0.490001
O12   O     O_R   0.605010 0.500010 0.613590 -0.527852
O13   O     O_R   0.381240 0.319660 0.500000 -0.496432
O14   O     O_R   0.618810 0.319640 0.499990 -0.456665
O15   O     O_R   0.394990 0.499990 0.386410 -0.481525
O16   O     O_R   0.632560 0.499970 0.386400 -0.443169
O17   O     O_3   0.733696 0.862969 0.439127 -0.673437

loop_
_geom_bond_atom_site_label_1
_geom_bond_atom_site_label_2
_ccdc_geom_bond_type
H11   O6    S    
C16   O13   A    
C35   C36   D    
C32   H20   S    
C36   H21   S    
Cu1   N2    S    
C7    C8    A    
Cu2   O14   S    
H6    O2    S    
C31   O5    S    
C26   C27   A    
C29   C30   A    
C25   O15   A    
C28   C29   A    
C5    C6    A    
C18   O6    S    
C23   H2    S    
C28   H3    S    
C2    C32   A    
C18   C19   A    
C12   O8    S    
C19   C20   A    
C8    C9    A    
C30   H22   S    
C8    C14   A    
C14   C16   S    
C9    C10   A    
H9    O4    S    
C4    O12   A    
Cu2   N1    S    
Cu1   O13   S    
C35   O9    S    
C13   C14   A    
C6    H16   S    
C1    O1    A    
Cu1   O1    S    
C3    H12   S    
C24   O7    S    
C17   C18   A    
Cu2   O10   S    
C1    O10   A    
C25   O16   A    
Cu2   O16   S    
C15   O4    S    
Cu1   O15   S    
C19   H19   S    
C5    O2    S    
C12   C26   A    
C2    C31   A    
C23   C31   A    
Cu1   Cu2   S    
C3    C9    A    
C7    O3    S    
C23   C34   A    
C33   C34   A    
C33   H1    S    
C17   H18   S    
C4    O11   A    
C6    C7    A    
C11   O17   S    
H7    O3    S    
C22   C24   A    
H15   O9    S    
Cu2   O12   S    
C15   C17   A    
Cu1   O11   S    
C24   N2    A    
C12   C30   A    
C16   O14   A    
C21   N1    A    
C1    C10   S    
C3    C5    A    
C4    C26   S    
C22   H17   S    
C29   C35   S    
C32   C33   A    
C22   N1    A    
C11   C13   A    
C27   H4    S    
C13   H8    S    
C2    C25   S    
C34   C36   S    
H10   O5    S    
C20   N2    A    
H14   O8    S    
C10   C11   A    
C15   C21   A    
C20   C21   A    
C27   C28   A    
H13   O7    S    
H5    O17   S    
