data_mof_unit_25301.cif
_audit_creation_date              2012-12-11T15:36:05-0500
_audit_creation_method            fapswitch 2.2
_symmetry_space_group_name_H-M    P1
_symmetry_Int_Tables_number       1
_space_group_crystal_system       triclinic
_cell_length_a                    7.266179
_cell_length_b                    12.389267
_cell_length_c                    35.338723
_cell_angle_alpha                 89.999758
_cell_angle_beta                  89.996128
_cell_angle_gamma                 90.002565
_cell_volume                      3181.28483492

loop_
_atom_site_label
_atom_site_type_symbol
_atom_type_description
_atom_site_fract_x
_atom_site_fract_y
_atom_site_fract_z
_atom_type_partial_charge
O1    O     O_R   0.379730 0.148600 0.662710 -0.539393
O2    O     O_R   0.620270 0.851400 0.337290 -0.539675
O3    O     O_R   0.120270 0.648600 0.337290 -0.539445
O4    O     O_R   0.879730 0.351400 0.662710 -0.539712
O5    O     O_R   0.722480 0.134490 0.741330 -0.538252
O6    O     O_R   0.277520 0.865510 0.258670 -0.537931
O7    O     O_R   0.777520 0.634490 0.258670 -0.538265
O8    O     O_R   0.222480 0.365510 0.741330 -0.537943
O9    O     O_R   0.892880 0.345890 0.741600 -0.535288
O10   O     O_R   0.107120 0.654110 0.258400 -0.535297
O11   O     O_R   0.607120 0.845890 0.258400 -0.535289
O12   O     O_R   0.392880 0.154110 0.741600 -0.535301
C1    C     C_R   0.552422 0.106280 0.752084 0.678241
C2    C     C_R   0.448581 0.895166 0.248542 0.663063
C3    C     C_R   0.947573 0.606279 0.247916 0.678242
C4    C     C_R   0.051423 0.395166 0.751458 0.663063
O13   O     O_R   0.709490 0.135560 0.662990 -0.541237
O14   O     O_R   0.290510 0.864440 0.337010 -0.541002
O15   O     O_R   0.790510 0.635560 0.337010 -0.541235
O16   O     O_R   0.209490 0.364440 0.662990 -0.541007
C5    C     C_R   0.540978 0.108338 0.651837 0.680247
C6    C     C_R   0.458957 0.891665 0.348168 0.680141
C7    C     C_R   0.959010 0.608339 0.348166 0.680295
C8    C     C_R   0.041055 0.391664 0.651829 0.680177
O17   O     O_3   0.552800 0.316610 0.702160 -0.375156
O18   O     O_3   0.447200 0.683390 0.297840 -0.375599
O19   O     O_3   0.947200 0.816610 0.297840 -0.375126
O20   O     O_3   0.052800 0.183390 0.702160 -0.375570
V1    V     V_3+5 0.827630 0.234380 0.702160 1.424781
V2    V     V_3+5 0.172370 0.765620 0.297840 1.426025
V3    V     V_3+5 0.672370 0.734380 0.297840 1.424758
V4    V     V_3+5 0.327630 0.265620 0.702160 1.426021
C9    C     C_R   0.106005 0.677993 0.908911 0.514290
C10   C     C_R   0.895953 0.304643 0.091728 0.539136
C11   C     C_R   0.393990 0.177999 0.091092 0.514291
C12   C     C_R   0.604029 0.804657 0.908272 0.539142
O21   O     O_2   0.154217 0.574849 0.913334 -0.581317
O22   O     O_2   0.874633 0.409078 0.082712 -0.573362
O23   O     O_2   0.345775 0.074853 0.086669 -0.581317
O24   O     O_2   0.625335 0.909095 0.917286 -0.573358
N1    N     N_R   0.070853 0.719059 0.873105 -0.527241
N2    N     N_R   0.923302 0.272723 0.128864 -0.526860
N3    N     N_R   0.429145 0.219065 0.126897 -0.527239
N4    N     N_R   0.576691 0.772731 0.871136 -0.526865
C13   C     C_R   0.063735 0.829087 0.869821 0.542655
C14   C     C_R   0.930234 0.163236 0.135696 0.527064
C15   C     C_R   0.436261 0.329094 0.130182 0.542653
C16   C     C_R   0.569766 0.663244 0.864305 0.527068
C17   C     C_R   0.930270 0.655436 0.809481 -0.054100
C18   C     C_R   0.060835 0.345062 0.190902 -0.046545
C19   C     C_R   0.569741 0.155444 0.190520 -0.054099
C20   C     C_R   0.439151 0.845062 0.809099 -0.046533
C21   C     C_R   0.915317 0.571759 0.781369 -0.162827
C22   C     C_R   0.072488 0.427517 0.219146 -0.208490
C23   C     C_R   0.584696 0.071765 0.218631 -0.162832
C24   C     C_R   0.427495 0.927517 0.780856 -0.208501
C25   C     C_R   0.191528 0.493254 0.805096 -0.194664
C26   C     C_R   0.815365 0.517386 0.190772 -0.164211
C27   C     C_R   0.308475 0.993253 0.194906 -0.194659
C28   C     C_R   0.684632 0.017394 0.809228 -0.164229
C29   C     C_R   0.189625 0.567437 0.834472 -0.114656
C30   C     C_R   0.813436 0.440195 0.161915 -0.122255
C31   C     C_R   0.310374 0.067438 0.165531 -0.114656
C32   C     C_R   0.686566 0.940201 0.838084 -0.122253
C33   C     C_R   0.061433 0.648141 0.839106 0.277272
C34   C     C_R   0.933689 0.352139 0.160443 0.284127
C35   C     C_R   0.438569 0.148147 0.160896 0.277278
C36   C     C_R   0.566305 0.852143 0.839557 0.284157
C37   C     C_R   0.064033 0.853189 0.939046 -0.005948
C38   C     C_R   0.928074 0.119869 0.068220 0.001554
C39   C     C_R   0.435962 0.353197 0.060957 -0.005935
C40   C     C_R   0.571921 0.619882 0.931782 0.001555
C41   C     C_R   0.097677 0.742946 0.941957 -0.006003
C42   C     C_R   0.888514 0.228755 0.061874 -0.022604
C43   C     C_R   0.402317 0.242953 0.058045 -0.006008
C44   C     C_R   0.611470 0.728773 0.938126 -0.022602
C45   C     C_R   0.121558 0.699176 0.977964 -0.130830
C46   C     C_R   0.830126 0.258056 0.025982 -0.146238
C47   C     C_R   0.378437 0.199181 0.022039 -0.130840
C48   C     C_R   0.669847 0.758081 0.974019 -0.146238
C49   C     C_R   0.057676 0.896756 0.902652 -0.038513
C50   C     C_R   0.939001 0.086438 0.105295 -0.045710
C51   C     C_R   0.442320 0.396763 0.097350 -0.038507
C52   C     C_R   0.561001 0.586448 0.894707 -0.045707
C53   C     C_R   0.046122 0.486519 0.779849 -0.076700
C54   C     C_R   0.950172 0.516539 0.218898 -0.070011
C55   C     C_R   0.453888 0.986520 0.220151 -0.076698
C56   C     C_R   0.549817 0.016544 0.781103 -0.070001
H1    H     H_    0.303812 0.435955 0.803921 0.148746
H2    H     H_    0.714151 0.581324 0.190280 0.126857
H3    H     H_    0.196188 0.935951 0.196082 0.148743
H4    H     H_    0.785850 0.081335 0.809719 0.126858
H5    H     H_    0.287586 0.559447 0.855046 0.187138
H6    H     H_    0.721671 0.452830 0.139454 0.173065
H7    H     H_    0.212408 0.059448 0.144958 0.187138
H8    H     H_    0.778341 0.952834 0.860543 0.173057
H9    H     H_    0.155288 0.614632 0.981574 0.157143
H10   H     H_    0.791373 0.339987 0.019583 0.169246
H11   H     H_    0.344709 0.114636 0.018429 0.157147
H12   H     H_    0.708590 0.840017 0.980418 0.169240
C57   C     C_R   0.012124 0.936696 0.043224 0.006467
C58   C     C_R   0.979126 0.028198 0.967427 0.001985
C59   C     C_R   0.487870 0.436707 0.956778 0.006475
C60   C     C_R   0.520870 0.528212 0.032576 0.001994
C61   C     C_R   0.916851 0.084717 0.000225 0.003205
C62   C     C_R   0.050390 0.872367 0.009450 0.005137
C63   C     C_R   0.583139 0.584735 0.999777 0.003211
C64   C     C_R   0.449606 0.372376 0.990553 0.005132
C65   C     C_R   0.953174 0.045857 0.037167 0.059647
C66   C     C_R   0.035502 0.919073 0.972223 0.053667
C67   C     C_R   0.546820 0.545871 0.962836 0.059647
C68   C     C_R   0.464495 0.419083 0.027779 0.053672
C69   C     C_R   0.020088 0.902790 0.082841 0.069837
C70   C     C_R   0.991527 0.074397 0.929816 0.042151
C71   C     C_R   0.479903 0.402800 0.917162 0.069835
C72   C     C_R   0.508473 0.574409 0.070187 0.042138
C73   C     C_R   0.968084 0.977153 0.111570 -0.217174
C74   C     C_R   0.038529 0.007135 0.899344 -0.179979
C75   C     C_R   0.531917 0.477162 0.888433 -0.217204
C76   C     C_R   0.461475 0.507143 0.100659 -0.179994
O25   O     O_2   0.935832 0.127202 0.171629 -0.568296
O26   O     O_2   0.063212 0.873946 0.835092 -0.567631
O27   O     O_2   0.564169 0.627208 0.828372 -0.568298
O28   O     O_2   0.436782 0.373951 0.164911 -0.567634
C77   C     C_R   0.099471 0.762289 0.010346 -0.232491
C78   C     C_R   0.814449 0.180159 0.997990 -0.187088
C79   C     C_R   0.400527 0.262296 0.989656 -0.232500
C80   C     C_R   0.685530 0.680187 0.002012 -0.187089
H13   H     H_    0.175175 0.421010 0.241214 0.137193
H14   H     H_    0.806568 0.575704 0.760491 0.140057
H15   H     H_    0.324804 0.921008 0.758788 0.137190
H16   H     H_    0.693449 0.075711 0.239508 0.140061
H17   H     H_    0.154705 0.277700 0.192494 0.175265
H18   H     H_    0.837260 0.723152 0.808500 0.174751
H19   H     H_    0.345277 0.777698 0.807508 0.175254
H20   H     H_    0.662755 0.223162 0.191500 0.174739
H21   H     H_    0.962328 0.950172 0.140743 0.148601
H22   H     H_    0.044880 0.039681 0.871294 0.148413
H23   H     H_    0.537673 0.450179 0.859260 0.148611
H24   H     H_    0.455131 0.539685 0.128709 0.148411
H25   H     H_    0.128721 0.720820 0.035525 0.143928
H26   H     H_    0.743303 0.202290 0.972838 0.147078
H27   H     H_    0.371283 0.220826 0.964477 0.143928
H28   H     H_    0.756674 0.702326 0.027163 0.147076
C81   C     C_R   0.964753 0.530368 0.378805 -0.025371
C82   C     C_R   0.036272 0.469678 0.621190 -0.026122
C83   C     C_R   0.535126 0.030413 0.621189 -0.025094
C84   C     C_R   0.463827 0.969656 0.378810 -0.025915
C85   C     C_R   0.898133 0.353323 0.403446 -0.169465
C86   C     C_R   0.112419 0.645223 0.596370 -0.169199
C87   C     C_R   0.599717 0.853066 0.596595 -0.169554
C88   C     C_R   0.389103 0.145449 0.403589 -0.169252
C89   C     C_R   0.910237 0.423737 0.372896 -0.178664
C90   C     C_R   0.095603 0.575481 0.627006 -0.177892
C91   C     C_R   0.588254 0.923563 0.627133 -0.178766
C92   C     C_R   0.405421 0.075619 0.372965 -0.177989
C93   C     C_R   0.006771 0.567118 0.415006 -0.215559
C94   C     C_R   0.994453 0.433054 0.584959 -0.216847
C95   C     C_R   0.493906 0.067310 0.584969 -0.215453
C96   C     C_R   0.505126 0.932944 0.415054 -0.216794
C97   C     C_R   0.989534 0.498783 0.446710 0.079383
C98   C     C_R   0.018829 0.500199 0.553130 0.079183
C99   C     C_R   0.510364 0.998848 0.553284 0.079569
C100  C     C_R   0.481159 0.000186 0.446867 0.079278
C101  C     C_R   0.934779 0.390213 0.440243 0.130448
C102  C     C_R   0.076850 0.608213 0.559550 0.131299
C103  C     C_R   0.563710 0.890056 0.559783 0.130418
C104  C     C_R   0.424224 0.108382 0.440420 0.131180
C105  C     C_R   0.019615 0.535584 0.484488 0.054016
C106  C     C_R   0.991805 0.462873 0.515314 0.054200
C107  C     C_R   0.480723 0.035696 0.515498 0.054074
C108  C     C_R   0.507660 0.962812 0.484692 0.054358
C109  C     C_R   0.940287 0.355010 0.507275 -0.195890
C110  C     C_R   0.075729 0.642689 0.492467 -0.194674
C111  C     C_R   0.557727 0.854734 0.492759 -0.196035
C112  C     C_R   0.425779 0.142992 0.507493 -0.194874
C113  C     C_R   0.913061 0.319773 0.470506 -0.202313
C114  C     C_R   0.103285 0.677873 0.529227 -0.200876
C115  C     C_R   0.584526 0.819458 0.529539 -0.202726
C116  C     C_R   0.398495 0.178190 0.470726 -0.201005
H29   H     H_    0.872114 0.236657 0.465776 0.139601
H30   H     H_    0.147895 0.760359 0.533912 0.140370
H31   H     H_    0.624306 0.736161 0.534292 0.139527
H32   H     H_    0.354718 0.260819 0.466022 0.140202
H33   H     H_    0.950826 0.350270 0.582753 0.101040
H34   H     H_    0.044107 0.650929 0.417330 0.100190
H35   H     H_    0.548222 0.850069 0.417277 0.100940
H36   H     H_    0.457636 0.151276 0.582622 0.099980
H37   H     H_    0.130899 0.603404 0.655140 0.110257
H38   H     H_    0.875288 0.395618 0.344769 0.110193
H39   H     H_    0.370564 0.103620 0.344818 0.110188
H40   H     H_    0.622530 0.895318 0.655279 0.110083
H41   H     H_    0.855329 0.270707 0.398455 0.126014
H42   H     H_    0.158484 0.727259 0.601316 0.126133
H43   H     H_    0.641389 0.770267 0.601611 0.125957
H44   H     H_    0.343852 0.227628 0.398622 0.126098
H45   H     H_    0.919414 0.294616 0.528698 0.129233
H46   H     H_    0.102191 0.702144 0.470981 0.129167
H47   H     H_    0.577615 0.794176 0.471354 0.129253
H48   H     H_    0.399986 0.202590 0.528965 0.129243
C117  C     C_R   0.095873 0.801426 0.100603 0.083916
C118  C     C_R   0.016897 0.698777 0.097335 -0.144634
C119  C     C_R   0.069712 0.615733 0.121599 -0.108226
C120  C     C_R   0.180349 0.635901 0.152783 -0.130528
C121  C     C_R   0.256613 0.736608 0.157351 -0.132739
C122  C     C_R   0.221759 0.815449 0.130344 -0.101694
H49   H     H_    0.916782 0.681131 0.076104 0.124244
H50   H     H_    0.026050 0.535629 0.116466 0.192743
H51   H     H_    0.219414 0.571620 0.171671 0.158477
H52   H     H_    0.350315 0.752028 0.180529 0.113497
H53   H     H_    0.288578 0.890729 0.133011 0.149850
C123  C     C_R   0.962305 0.190554 0.918939 0.088303
C124  C     C_R   0.876927 0.216532 0.884230 -0.122608
C125  C     C_R   0.853812 0.323048 0.872966 -0.156153
C126  C     C_R   0.903307 0.405899 0.897479 -0.056215
C127  C     C_R   0.978226 0.382261 0.932722 -0.066548
C128  C     C_R   0.021560 0.276535 0.941645 -0.176736
H54   H     H_    0.823201 0.154847 0.866025 0.104954
H55   H     H_    0.795220 0.341038 0.845531 0.123709
H56   H     H_    0.884799 0.488358 0.888715 0.159878
H57   H     H_    0.007579 0.445188 0.953012 0.155684
H58   H     H_    0.083989 0.262153 0.968351 0.145866
C129  C     C_R   0.404105 0.301435 0.899400 0.083913
C130  C     C_R   0.483086 0.198791 0.902665 -0.144622
C131  C     C_R   0.430284 0.115751 0.878397 -0.108225
C132  C     C_R   0.319639 0.135918 0.847215 -0.130534
C133  C     C_R   0.243363 0.236619 0.842651 -0.132749
C134  C     C_R   0.278215 0.315457 0.869660 -0.101690
H59   H     H_    0.583202 0.181148 0.923895 0.124244
H60   H     H_    0.473965 0.035650 0.883526 0.192743
H61   H     H_    0.280579 0.071640 0.828324 0.158475
H62   H     H_    0.149656 0.252038 0.819474 0.113495
H63   H     H_    0.211395 0.390733 0.866994 0.149859
C135  C     C_R   0.537693 0.690566 0.081065 0.088300
C136  C     C_R   0.623069 0.716546 0.115775 -0.122603
C137  C     C_R   0.646169 0.823062 0.127041 -0.156155
C138  C     C_R   0.596674 0.905913 0.102530 -0.056203
C139  C     C_R   0.521764 0.882275 0.067285 -0.066546
C140  C     C_R   0.478434 0.776547 0.058361 -0.176741
H64   H     H_    0.676800 0.654864 0.133980 0.104955
H65   H     H_    0.704755 0.841052 0.154477 0.123708
H66   H     H_    0.615181 0.988372 0.111294 0.159872
H67   H     H_    0.492416 0.945201 0.046995 0.155689
H68   H     H_    0.416006 0.762164 0.031655 0.145863

loop_
_geom_bond_atom_site_label_1
_geom_bond_atom_site_label_2
_ccdc_geom_bond_type
C51   C76   A    
C103  C115  A    
C119  C120  A    
C94   H33   S    
O1    C5    A    
C96   C100  A    
C101  C113  A    
C117  C118  A    
O3    C7    A    
C129  C130  A    
C10   N2    A    
C107  C108  A    
C83   C95   A    
C130  C131  A    
C16   O27   S    
C28   C56   A    
C23   H16   S    
C124  C125  A    
C7    C81   S    
C62   C77   A    
C11   C43   A    
C18   C22   A    
C64   C68   A    
C17   C33   A    
C61   C78   A    
C32   C36   A    
C47   H11   S    
O20   V1    S    
O9    C4    A    
C2    C55   S    
C125  H55   S    
N2    C14   A    
O4    C8    A    
O11   C2    A    
C87   C103  A    
C24   C56   A    
C123  C128  A    
C70   C123  S    
C132  H61   S    
C86   C102  A    
C31   H7    S    
C57   C62   A    
O13   V1    S    
C137  C138  A    
C58   C61   A    
C59   C67   A    
C84   C96   A    
C87   H43   S    
C5    C83   S    
C113  H29   S    
C85   C89   A    
C127  H57   S    
C86   H42   S    
C61   C65   A    
C12   C44   A    
C17   H18   S    
C85   H41   S    
C14   C50   A    
C122  H53   S    
C88   C92   A    
C77   H25   S    
C98   C106  A    
C120  H51   S    
C46   H10   S    
C116  H32   S    
C136  C137  A    
C14   O25   S    
C45   H9    S    
C140  H68   S    
C102  C114  A    
C15   C51   A    
C83   C91   A    
C72   C76   A    
C110  C114  A    
C115  H31   S    
O4    V1    S    
C20   C36   A    
C108  C111  A    
O9    V1    S    
C97   C105  A    
C121  C122  A    
O17   V4    S    
O7    C3    A    
C133  H62   S    
C40   C67   A    
O15   V3    S    
O18   V3    S    
O8    C4    A    
C60   C72   A    
C138  C139  A    
O12   V4    S    
O19   V2    S    
C120  C121  A    
C60   C63   A    
C112  H48   S    
C73   H21   S    
C26   C54   A    
C12   N4    A    
C88   C104  A    
C95   H36   S    
O16   V4    S    
C39   C51   A    
C89   H38   S    
C28   H4    S    
O17   V1    S    
C48   H12   S    
C31   C35   A    
C110  H46   S    
O7    V3    S    
C118  C119  A    
C88   H44   S    
C107  C112  A    
C109  H45   S    
O8    V4    S    
C105  C106  A    
O16   C8    A    
C130  H59   S    
C12   O24   S    
C85   C101  A    
C93   H34   S    
C32   H8    S    
C60   C68   A    
C30   C34   A    
C125  C126  A    
C19   C35   A    
C99   C107  A    
C48   C80   A    
C104  C116  A    
O19   V3    S    
C139  H67   S    
C78   H26   S    
O1    V4    S    
C9    O21   S    
C16   C52   A    
C40   C52   A    
O2    V3    S    
C10   O22   S    
C137  H65   S    
O3    V2    S    
C11   O23   S    
C126  C127  A    
C38   C42   A    
C59   C71   A    
C58   C70   A    
C38   C65   A    
C29   C33   A    
O6    C2    A    
C18   C34   A    
C19   H20   S    
O10   V2    S    
C133  C134  A    
C82   C90   A    
O20   V4    S    
C99   C103  A    
C117  C122  A    
C39   C68   A    
C131  C132  A    
C40   C44   A    
C79   H27   S    
C127  C128  A    
C37   C41   A    
C80   H28   S    
C111  H47   S    
C134  H63   S    
C70   C74   A    
C25   H1    S    
C26   C30   A    
C26   H2    S    
C3    C54   S    
C69   C73   A    
C138  H66   S    
C100  C104  A    
C9    C41   A    
O6    V2    S    
C90   H37   S    
C10   C42   A    
O18   V2    S    
C87   C91   A    
C118  H49   S    
C30   H6    S    
C86   C90   A    
C4    C53   S    
C95   C99   A    
C27   H3    S    
N4    C36   S    
C43   C47   A    
C135  C136  A    
C46   C78   A    
O5    V1    S    
C93   C97   A    
C45   C77   A    
O15   C7    A    
C22   C54   A    
C62   C66   A    
C71   C129  S    
C128  H58   S    
C100  C108  A    
C47   C79   A    
C139  C140  A    
N1    C13   A    
O10   C3    A    
C129  C134  A    
C63   C67   A    
C22   H13   S    
C13   C49   A    
C44   C48   A    
C6    C84   S    
C18   H17   S    
C63   C80   A    
C111  C115  A    
C124  H54   S    
C25   C29   A    
C82   C94   A    
C76   H24   S    
C13   O26   S    
C114  H30   S    
C81   C93   A    
C37   C66   A    
C71   C75   A    
C131  H60   S    
C50   C73   A    
C28   C32   A    
C9    N1    A    
O14   C6    A    
C11   N3    A    
C75   H23   S    
N1    C33   S    
C69   C117  S    
C8    C82   S    
O2    C6    A    
C58   C66   A    
C39   C43   A    
C15   O28   S    
C123  C124  A    
N3    C15   A    
C121  H52   S    
C52   C75   A    
C17   C21   A    
O5    C1    A    
C1    C56   S    
C126  H56   S    
C81   C89   A    
C105  C110  A    
C27   C31   A    
C98   C102  A    
C119  H50   S    
C19   C23   A    
C135  C140  A    
C49   C74   A    
C64   C79   A    
C23   C55   A    
C57   C69   A    
C38   C50   A    
C27   C55   A    
C24   H15   S    
C37   C49   A    
C91   H40   S    
C94   C98   A    
O14   V2    S    
O11   V3    S    
C92   H39   S    
C20   C24   A    
C112  C116  A    
O12   C1    A    
N3    C35   S    
C132  C133  A    
C42   C46   A    
C72   C135  S    
N2    C34   S    
C20   H19   S    
C41   C45   A    
C59   C64   A    
C21   C53   A    
C21   H14   S    
C84   C92   A    
C96   H35   S    
C109  C113  A    
C74   H22   S    
C29   H5    S    
C57   C65   A    
C25   C53   A    
C136  H64   S    
C97   C101  A    
N4    C16   A    
C106  C109  A    
O13   C5    A    
