data_mof_unit_8608.cif
_audit_creation_date              2012-12-11T16:25:37-0500
_audit_creation_method            fapswitch 2.2
_symmetry_space_group_name_H-M    P1
_symmetry_Int_Tables_number       1
_space_group_crystal_system       triclinic
_cell_length_a                    20.452222
_cell_length_b                    7.279741
_cell_length_c                    13.279872
_cell_angle_alpha                 90.000019
_cell_angle_beta                  103.830484
_cell_angle_gamma                 90.0
_cell_volume                      1919.87423229

loop_
_atom_site_label
_atom_site_type_symbol
_atom_type_description
_atom_site_fract_x
_atom_site_fract_y
_atom_site_fract_z
_atom_type_partial_charge
O1    O     O_R   0.449520 0.506760 0.599710 -0.538756
O2    O     O_R   0.550480 0.006760 0.400290 -0.538756
O3    O     O_R   0.587930 0.180200 0.595790 -0.539012
O4    O     O_R   0.412070 0.680200 0.404210 -0.539012
C1    C     C_R   0.613867 0.344273 0.619259 0.694460
C2    C     C_R   0.386133 0.844273 0.380740 0.694460
O5    O     O_R   0.452350 0.177380 0.611700 -0.540887
O6    O     O_R   0.547650 0.677380 0.388300 -0.540887
O7    O     O_R   0.413930 0.001760 0.416320 -0.540822
O8    O     O_R   0.586070 0.501760 0.583680 -0.540821
C3    C     C_R   0.436062 0.345964 0.637414 0.710865
C4    C     C_R   0.563938 0.845964 0.362586 0.710865
O9    O     O_3   0.487550 0.337460 0.435880 -0.378822
O10   O     O_3   0.512450 0.837460 0.564120 -0.378823
V1    V     V_3+5 0.502310 0.064670 0.511900 1.388283
V2    V     V_3+5 0.497690 0.564670 0.488100 1.388283
C5    C     C_R   0.610874 0.941025 0.112774 -0.145822
C6    C     C_R   0.389126 0.441025 0.887226 -0.145821
H1    H     H_    0.520668 0.951408 0.166628 0.141177
H2    H     H_    0.479332 0.451409 0.833372 0.141177
H3    H     H_    0.687862 0.946135 0.980952 0.138769
H4    H     H_    0.312138 0.446135 0.019048 0.138769
H5    H     H_    0.584847 0.980201 0.034704 0.149873
H6    H     H_    0.415153 0.480202 0.965296 0.149873
C7    C     C_R   0.604870 0.859568 0.286247 -0.084421
C8    C     C_R   0.395130 0.359568 0.713753 -0.084421
C9    C     C_R   0.928860 0.839686 0.315701 -0.217241
C10   C     C_R   0.071140 0.339685 0.684299 -0.217241
C11   C     C_R   0.895286 0.849317 0.394357 -0.122958
C12   C     C_R   0.104714 0.349317 0.605642 -0.122958
C13   C     C_R   0.825730 0.867074 0.370491 -0.132937
C14   C     C_R   0.174269 0.367074 0.629509 -0.132937
C15   C     C_R   0.787083 0.864375 0.266805 0.024789
C16   C     C_R   0.212917 0.364375 0.733195 0.024789
C17   C     C_R   0.822188 0.870734 0.185462 0.049781
C18   C     C_R   0.177812 0.370734 0.814538 0.049781
C19   C     C_R   0.714919 0.868302 0.242026 0.019953
C20   C     C_R   0.285081 0.368302 0.757974 0.019953
C21   C     C_R   0.680499 0.911577 0.138637 0.050369
C22   C     C_R   0.319501 0.411577 0.861363 0.050369
C23   C     C_R   0.715167 0.921069 0.060445 -0.215933
C24   C     C_R   0.284833 0.421070 0.939555 -0.215933
C25   C     C_R   0.784447 0.892469 0.081328 0.146626
C26   C     C_R   0.215553 0.392469 0.918672 0.146626
C27   C     C_R   0.675125 0.827220 0.314491 0.209549
C28   C     C_R   0.324875 0.327220 0.685509 0.209548
C29   C     C_R   0.574017 0.922224 0.187164 -0.222123
C30   C     C_R   0.425983 0.422225 0.812836 -0.222123
C31   C     C_R   0.893981 0.858631 0.212362 -0.078777
C32   C     C_R   0.106019 0.358631 0.787638 -0.078777
H7    H     H_    0.982830 0.823254 0.335352 0.120103
H8    H     H_    0.017170 0.323253 0.664648 0.120103
H9    H     H_    0.804013 0.893389 0.434776 0.172380
H10   H     H_    0.195987 0.393390 0.565224 0.172379
H11   H     H_    0.923461 0.846739 0.474533 0.141754
H12   H     H_    0.076539 0.346738 0.525467 0.141754
C33   C     C_R   0.229896 0.888145 0.031472 -0.204873
C34   C     C_R   0.770104 0.388144 0.968528 -0.204873
C35   C     C_R   0.284600 0.903392 0.986670 -0.138777
C36   C     C_R   0.715400 0.403390 0.013330 -0.138777
C37   C     C_R   0.350270 0.902472 0.048685 0.246720
C38   C     C_R   0.649730 0.402470 0.951315 0.246719
C39   C     C_R   0.360718 0.884304 0.156359 -0.152118
C40   C     C_R   0.639282 0.384303 0.843641 -0.152117
C41   C     C_R   0.305977 0.868833 0.203830 0.012925
C42   C     C_R   0.694023 0.368833 0.796170 0.012925
C43   C     C_R   0.239222 0.871638 0.140124 0.042336
C44   C     C_R   0.760778 0.371638 0.859876 0.042336
C45   C     C_R   0.316734 0.850284 0.312957 -0.151720
C46   C     C_R   0.683265 0.350284 0.687043 -0.151719
C47   C     C_R   0.260688 0.838265 0.358008 0.073705
C48   C     C_R   0.739312 0.338266 0.641992 0.073705
C49   C     C_R   0.194083 0.851661 0.295114 0.027959
C50   C     C_R   0.805916 0.351661 0.704886 0.027959
C51   C     C_R   0.183207 0.860660 0.185536 -0.145115
C52   C     C_R   0.816793 0.360660 0.814464 -0.145115
C53   C     C_R   0.269930 0.814847 0.465913 -0.239632
C54   C     C_R   0.730070 0.314848 0.534087 -0.239632
C55   C     C_R   0.215727 0.817735 0.512207 -0.138156
C56   C     C_R   0.784273 0.317736 0.487793 -0.138156
C57   C     C_R   0.150182 0.847939 0.452411 0.358845
C58   C     C_R   0.849818 0.347939 0.547589 0.358845
C59   C     C_R   0.139775 0.859491 0.344034 -0.219595
C60   C     C_R   0.860225 0.359492 0.655966 -0.219595
H13   H     H_    0.180183 0.890579 0.979811 0.131293
H14   H     H_    0.819816 0.390578 0.020189 0.131293
H15   H     H_    0.275561 0.917115 0.903249 0.119880
H16   H     H_    0.724439 0.417113 0.096751 0.119880
H17   H     H_    0.412077 0.882741 0.202386 0.096350
H18   H     H_    0.587923 0.382740 0.797613 0.096350
H19   H     H_    0.319517 0.796451 0.516422 0.122198
H20   H     H_    0.680483 0.296451 0.483578 0.122198
H21   H     H_    0.226288 0.802490 0.595528 0.123403
H22   H     H_    0.773712 0.302491 0.404472 0.123403
H23   H     H_    0.088821 0.877982 0.298428 0.084403
H24   H     H_    0.911179 0.377983 0.701572 0.084403
O11   O     O_R   0.913760 0.203480 0.916370 -0.531482
O12   O     O_R   0.086240 0.703480 0.083630 -0.531482
O13   O     O_R   0.047590 0.535230 0.888250 -0.541006
O14   O     O_R   0.952410 0.035230 0.111750 -0.541005
C61   C     C_R   0.064905 0.368238 0.863758 0.765923
C62   C     C_R   0.935095 0.868238 0.136242 0.765923
O15   O     O_R   0.912020 0.532880 0.904260 -0.535132
O16   O     O_R   0.087980 0.032880 0.095740 -0.535132
O17   O     O_R   0.949590 0.708460 0.099750 -0.534949
O18   O     O_R   0.050410 0.208460 0.900250 -0.534948
C63   C     C_R   0.886255 0.365255 0.881909 0.679034
C64   C     C_R   0.113745 0.865255 0.118091 0.679033
O19   O     O_3   0.012370 0.375360 0.064120 -0.376066
O20   O     O_3   0.987630 0.875360 0.935880 -0.376066
V3    V     V_3+5 0.997700 0.648160 0.988110 1.433455
V4    V     V_3+5 0.002300 0.148160 0.011890 1.433455
N1    N     N_3   0.407067 0.919757 0.003515 -0.688609
H25   H     H_    0.391399 0.916203 0.922576 0.233132
H26   H     H_    0.427747 0.050042 0.022980 0.226820
N2    N     N_3   0.592933 0.419755 0.996485 -0.688610
H27   H     H_    0.608601 0.416199 0.077424 0.233132
H28   H     H_    0.572253 0.550040 0.977020 0.226820
N3    N     N_2   0.702421 0.720704 0.404871 -0.540269
H29   H     H_    0.684908 0.587726 0.398172 0.264777
C65   C     C_3   0.703570 0.802566 0.504971 -0.538777
H30   H     H_    0.750289 0.759911 0.561643 0.203910
H31   H     H_    0.660218 0.754826 0.534408 0.214542
H32   H     H_    0.702479 0.954468 0.500254 0.194146
N4    N     N_2   0.297579 0.220704 0.595129 -0.540269
H33   H     H_    0.315092 0.087726 0.601828 0.264777
C66   C     C_3   0.296430 0.302565 0.495029 -0.538774
H34   H     H_    0.249710 0.259913 0.438358 0.203909
H35   H     H_    0.339782 0.254822 0.465592 0.214543
H36   H     H_    0.297523 0.454468 0.499746 0.194145
N5    N     N_3   0.815442 0.887450 0.995304 -0.653527
H37   H     H_    0.805002 0.010860 0.954548 0.238320
H38   H     H_    0.793287 0.781500 0.945607 0.235556
N6    N     N_3   0.184558 0.387450 0.004696 -0.653527
H39   H     H_    0.206713 0.281501 0.054393 0.235555
H40   H     H_    0.194998 0.510861 0.045451 0.238320
N7    N     N_2   0.093922 0.869906 0.498004 -0.535226
H41   H     H_    0.060023 0.968735 0.462675 0.250818
C67   C     C_3   0.103838 0.864197 0.609707 -0.539267
H42   H     H_    0.054658 0.881740 0.630239 0.198533
H43   H     H_    0.138109 0.976099 0.646611 0.213580
H44   H     H_    0.124953 0.729798 0.640479 0.211514
N8    N     N_2   0.906078 0.369906 0.501996 -0.535226
H45   H     H_    0.939977 0.468735 0.537325 0.250818
C68   C     C_3   0.896162 0.364198 0.390293 -0.539266
H46   H     H_    0.945342 0.381742 0.369761 0.198533
H47   H     H_    0.861891 0.476099 0.353389 0.213580
H48   H     H_    0.875047 0.229798 0.359521 0.211514

loop_
_geom_bond_atom_site_label_1
_geom_bond_atom_site_label_2
_ccdc_geom_bond_type
C2    C45   S    
C42   C44   A    
C39   C41   A    
C9    C11   A    
C49   C51   A    
C28   N4    S    
O1    C3    A    
C40   H18   S    
O2    C4    A    
C2    O7    A    
C68   H46   S    
C36   H16   S    
O3    V1    S    
C21   C23   A    
O18   V4    S    
O5    C3    A    
N7    C67   S    
C5    H5    S    
C50   C52   A    
C6    H6    S    
O15   V3    S    
C20   C22   A    
C55   H21   S    
C5    C21   A    
C67   H44   S    
H1    C29   S    
C33   C35   A    
C34   C36   A    
N8    H45   S    
O12   C64   A    
N2    H27   S    
C62   O17   A    
C36   C38   A    
C60   H24   S    
C45   C47   A    
C6    C22   A    
O20   V3    S    
C65   H32   S    
C48   C54   A    
N5    H38   S    
C68   H47   S    
C10   C32   A    
N2    H28   S    
C41   C43   A    
C17   C31   A    
C38   C40   A    
C13   C15   A    
C17   C25   A    
C7    C29   A    
C16   C18   A    
C8    C30   A    
C27   N3    S    
O16   C64   A    
C22   C24   A    
O17   V3    S    
C59   H23   S    
C51   C64   S    
O6    V2    S    
C23   C25   A    
C24   C26   A    
C33   C43   A    
C34   H14   S    
C14   H10   S    
C57   C59   A    
C9    H7    S    
C53   C55   A    
C26   N6    S    
C67   H42   S    
C35   C37   A    
C20   C28   A    
C67   H43   S    
C48   C50   A    
O19   V4    S    
C31   C62   S    
O16   V4    S    
O11   V4    S    
N6    H40   S    
O5    V1    S    
C11   H11   S    
C3    C8    S    
C54   H20   S    
C12   H12   S    
C15   C19   A    
C40   C42   A    
O4    V2    S    
C57   N7    S    
C66   H35   S    
C38   N2    S    
C1    C46   S    
O6    C4    A    
O13   V3    S    
C39   H17   S    
O14   C62   A    
O1    V2    S    
C13   H9    S    
O2    V1    S    
C65   H30   S    
H2    C30   S    
N3    C65   S    
H3    C23   S    
C56   C58   A    
O13   C61   A    
O14   V4    S    
C52   C63   S    
C58   C60   A    
C37   N1    S    
N4    H33   S    
C18   C26   A    
O4    C2    A    
C43   C51   A    
C56   H22   S    
C66   H34   S    
C7    C27   A    
C47   C53   A    
C68   H48   S    
C18   C32   A    
C47   C49   A    
N1    H25   S    
C34   C44   A    
C61   O18   A    
N8    C68   S    
C53   H19   S    
O12   V3    S    
C16   C20   A    
C37   C39   A    
C5    C29   A    
C50   C60   A    
C58   N8    S    
O3    C1    A    
C6    C30   A    
O15   C63   A    
N3    H29   S    
N6    H39   S    
C44   C52   A    
N7    H41   S    
C55   C57   A    
C4    C7    S    
C25   N5    S    
O7    V1    S    
C66   H36   S    
C1    O8    A    
C11   C13   A    
O8    V2    S    
C12   C14   A    
C10   H8    S    
C42   C46   A    
C41   C45   A    
C10   C12   A    
C15   C17   A    
C33   H13   S    
C54   C56   A    
C35   H15   S    
C65   H31   S    
C8    C28   A    
O11   C63   A    
C9    C31   A    
C32   C61   S    
C19   C21   A    
O9    V2    S    
H4    C24   S    
N4    C66   S    
O10   V1    S    
C46   C48   A    
C19   C27   A    
C49   C59   A    
N5    H37   S    
C14   C16   A    
N1    H26   S    
