data_mof_unit_66824.cif
_audit_creation_date              2013-03-05T15:41:44-0500
_audit_creation_method            fapswitch 2.2
_symmetry_space_group_name_H-M    P1
_symmetry_Int_Tables_number       1
_space_group_crystal_system       triclinic
_cell_length_a                    8.426889
_cell_length_b                    15.238589
_cell_length_c                    15.380164
_cell_angle_alpha                 97.512398
_cell_angle_beta                  99.75168
_cell_angle_gamma                 98.277239
_cell_volume                      1901.69179322

loop_
_atom_site_label
_atom_site_type_symbol
_atom_site_description
_atom_site_fract_x
_atom_site_fract_y
_atom_site_fract_z
_atom_type_partial_charge
P1    P     P_3+3 0.004200 0.709230 0.580350 0.607446
O1    O     O_2   0.174080 0.723060 0.553930 -0.242065
O2    O     O_3   0.901570 0.609580 0.550840 -0.365708
O3    O     O_3   0.370350 0.665080 0.388270 -0.390376
O4    O     O_2   0.290603 0.818899 0.451027 -0.354309
O5    O     O_3   0.050218 0.733060 0.697218 -0.593137
O6    O     O_3   0.360767 0.807206 0.291988 -0.537920
H1    H     H_    0.317461 0.671476 0.235118 0.081052
C1    C     C_3   0.340208 0.752978 0.134864 1.226393
P2    P     P_3+3 0.305000 0.425570 0.290900 0.539338
P3    P     P_3+3 0.878320 0.637944 0.230269 0.522375
O7    O     O_2   0.134790 0.452800 0.278150 -0.395392
O8    O     O_3   0.937650 0.618620 0.340860 -0.381692
O9    O     O_2   0.991520 0.587702 0.179825 -0.356817
O10   O     O_3   0.311907 0.312304 0.248019 -0.589578
O11   O     O_3   0.957037 0.751437 0.227889 -0.525308
C2    C     C_3   0.833624 0.804946 0.218981 0.983237
H2    H     H_    0.775932 0.806887 0.278831 -0.301352
C3    C     C_3   0.907879 0.903794 0.210426 1.216107
C4    C     C_3   0.712083 0.286658 0.241551 1.329317
C5    C     C_3   0.618829 0.216761 0.159617 0.855219
H3    H     H_    0.685278 0.159247 0.155172 -0.078992
Ba1   Ba    Ba6+2 0.154730 0.543770 0.458180 1.748952
C6    C     C_3   0.113331 0.664040 0.735461 0.922225
H4    H     H_    0.214495 0.645758 0.703349 -0.034528
C7    C     C_3   0.178755 0.697434 0.837052 0.658979
H5    H     H_    0.312897 0.701705 0.846758 -0.009701
C8    C     C_3   0.179455 0.245297 0.247330 1.446332
C9    C     C_3   0.068943 0.226354 0.154713 0.141391
H6    H     H_    0.043128 0.290574 0.134355 0.135119
H7    H     H_    0.951413 0.183916 0.156807 0.017917
P4    P     P_3+3 0.806080 0.290760 0.419570 0.697952
O12   O     O_2   0.636200 0.276890 0.446040 -0.282662
O13   O     O_3   0.908720 0.390410 0.449080 -0.315455
O14   O     O_3   0.439930 0.334910 0.611650 -0.297238
O15   O     O_3   0.766414 0.237175 0.307411 -0.608775
P5    P     P_3+3 0.915900 0.390954 0.776282 0.694334
O16   O     O_3   0.402060 0.547860 0.609750 -0.344399
O17   O     O_3   0.872630 0.381370 0.659060 -0.273258
O18   O     O_2   0.801702 0.449805 0.814108 -0.268287
O19   O     O_3   0.839413 0.285739 0.799675 -0.519972
Ba2   Ba    Ba6+2 0.655430 0.456220 0.541750 1.802862
P6    P     P_3+3 0.416141 0.782236 0.400242 0.527676
C10   C     C_3   0.389789 0.737003 0.230437 0.245542
H8    H     H_    0.520536 0.732226 0.242512 -0.041464
H9    H     H_    0.403327 0.713620 0.089956 -0.062456
O20   O     O_3   0.408220 0.452130 0.390170 -0.372157
C11   C     C_3   0.616886 0.734193 0.713731 1.050548
H10   H     H_    0.691545 0.694966 0.676335 0.010518
C12   C     C_3   0.737318 0.811637 0.774430 0.740880
H11   H     H_    0.841125 0.781876 0.806267 -0.044206
P7    P     P_3+3 0.498813 0.568720 0.724131 0.507746
O21   O     O_2   0.675490 0.547140 0.721820 -0.308933
O22   O     O_3   0.530957 0.683357 0.765504 -0.720636
C13   C     C_3   0.950279 0.225423 0.792802 1.361350
C14   C     C_3   0.036632 0.217059 0.886070 1.083484
H12   H     H_    0.145991 0.270144 0.908722 -0.105976
P8    P     P_3+3 0.380493 0.219498 0.607541 0.538524
C15   C     C_3   0.390044 0.177227 0.767383 1.059119
H13   H     H_    0.260279 0.152949 0.736303 -0.076316
O23   O     O_2   0.461836 0.177077 0.533281 -0.387411
O24   O     O_3   0.490538 0.189881 0.704102 -0.544015
H14   H     H_    0.345794 0.099394 0.866901 0.035902
C16   C     C_3   0.439012 0.105396 0.823906 0.636082
C17   C     C_R   0.153112 0.175906 0.573609 0.051059
C18   C     C_R   0.089827 0.082812 0.558815 -0.120752
C19   C     C_R   0.961318 0.894803 0.542147 -0.292465
C20   C     C_R   0.123565 0.930650 0.584084 0.825176
C21   C     C_R   0.186510 0.020887 0.587657 -0.355866
C22   C     C_R   0.891577 0.801527 0.536728 0.084248
H15   H     H_    0.313247 0.042254 0.615560 0.179672
C23   C     C_R   0.721794 0.779307 0.507103 0.369401
C24   C     C_R   0.897702 0.206522 0.488423 0.101272
C25   C     C_R   0.831984 0.111239 0.474482 -0.274046
C26   C     C_R   0.926681 0.050656 0.514790 0.043505
C27   C     C_R   0.675411 0.072811 0.423202 0.835699
C28   C     C_R   0.610082 0.982812 0.420202 -0.335109
C29   C     C_R   0.699658 0.923773 0.461178 -0.128196
C30   C     C_R   0.862498 0.956321 0.506154 0.021598
C31   C     C_R   0.629586 0.833525 0.460089 0.156903
C32   C     C_R   0.046829 0.236309 0.549954 0.488093
H16   H     H_    0.486663 0.960020 0.383931 0.195200
C33   C     C_R   0.234833 0.463455 0.768600 -0.414741
C34   C     C_R   0.133281 0.438182 0.826688 0.115614
C35   C     C_R   0.192363 0.456947 0.920037 0.555941
C36   C     C_R   0.359526 0.497094 0.956689 -0.227809
C37   C     C_R   0.459379 0.518679 0.892851 0.599001
C38   C     C_R   0.394132 0.506775 0.800653 0.099046
C39   C     C_R   0.581788 0.574614 0.095298 -0.256070
C40   C     C_R   0.657149 0.581624 0.185443 0.008104
C41   C     C_R   0.411434 0.489797 0.213301 0.192687
C42   C     C_R   0.344213 0.477845 0.121222 -0.373620
C43   C     C_R   0.427973 0.517550 0.058605 0.153568
C44   C     C_R   0.571812 0.535054 0.241852 0.239915
H17   H     H_    0.647864 0.613765 0.055786 0.259786
H18   H     H_    0.231753 0.431149 0.100156 0.229694
H19   H     H_    0.185259 0.456403 0.698039 0.242266
F1    F     F_    0.465942 0.180456 0.171874 -0.652509
O25   O     O_3   0.618179 0.249934 0.077454 -0.689623
C45   C     C_3   0.467784 0.274571 0.043586 0.025297
H20   H     H_    0.415637 0.310259 0.096597 0.147980
H21   H     H_    0.380875 0.214438 0.006913 0.197341
H22   H     H_    0.488220 0.321141 0.995376 0.180454
F2    F     F_    0.993520 0.588920 0.721724 -0.709150
O26   O     O_3   0.128705 0.632580 0.889546 -0.706602
C46   C     C_3   0.975464 0.640116 0.912311 0.216182
H23   H     H_    0.880441 0.640690 0.853181 0.126644
H24   H     H_    0.985058 0.700980 0.961320 0.131047
H25   H     H_    0.936809 0.582273 0.945055 0.220304
O27   O     O_3   0.134083 0.782041 0.865138 -0.670318
C47   C     C_3   0.272057 0.850185 0.894168 -0.267264
H26   H     H_    0.341649 0.858391 0.839657 0.237531
H27   H     H_    0.350237 0.836056 0.954635 0.191266
H28   H     H_    0.230719 0.914749 0.912803 0.158365
O28   O     O_3   0.098293 0.268593 0.316703 -0.732445
C48   C     C_3   0.205026 0.268771 0.398007 -0.009246
H29   H     H_    0.337845 0.280852 0.396834 0.198288
H30   H     H_    0.179872 0.201620 0.417058 0.090499
H31   H     H_    0.189995 0.325458 0.446054 0.170533
F3    F     F_    0.238865 0.166227 0.259691 -0.656369
F4    F     F_    0.174725 0.724487 0.106574 -0.708629
O29   O     O_3   0.151626 0.188019 0.090587 -0.594484
C49   C     C_3   0.104211 0.093961 0.070878 0.169383
H32   H     H_    0.982846 0.076062 0.026235 0.106973
H33   H     H_    0.102197 0.062661 0.131840 0.179074
H34   H     H_    0.193721 0.065352 0.035283 0.132639
F5    F     F_    0.505288 0.768037 0.656063 -0.633461
O30   O     O_3   0.795015 0.872448 0.720207 -0.683758
C50   C     C_3   0.937600 0.931108 0.767193 -0.126234
H35   H     H_    0.045682 0.898304 0.764079 0.213752
H36   H     H_    0.931322 0.955226 0.837885 0.175759
H37   H     H_    0.954603 0.990697 0.733380 0.209497
O31   O     O_3   0.657737 0.856754 0.836763 -0.654446
C51   C     C_3   0.670209 0.820353 0.917204 -0.291143
H38   H     H_    0.663942 0.873440 0.972434 0.202201
H39   H     H_    0.783969 0.793528 0.934661 0.118622
H40   H     H_    0.567174 0.765743 0.914045 0.199603
F6    F     F_    0.379742 0.842656 0.128837 -0.730147
O32   O     O_3   0.788084 0.941814 0.156599 -0.710609
C52   C     C_3   0.676870 0.976981 0.204734 -0.047146
H41   H     H_    0.736342 0.041375 0.248016 0.168984
H42   H     H_    0.625188 0.928363 0.244604 0.162849
H43   H     H_    0.574750 0.992107 0.156506 0.209652
F7    F     F_    0.861559 0.143001 0.751686 -0.730544
F8    F     F_    0.064743 0.249137 0.741577 -0.792628
F9    F     F_    0.084573 0.134181 0.884840 -0.790737
F10   F     F_    0.932965 0.226003 0.946148 -0.656762
F11   F     F_    0.401912 0.258058 0.822749 -0.717642
O33   O     O_3   0.596124 0.133502 0.878780 -0.554727
C53   C     C_3   0.614007 0.081978 0.948999 0.016661
H44   H     H_    0.729565 0.110573 0.996086 0.195731
H45   H     H_    0.619670 0.011391 0.923569 0.129212
H46   H     H_    0.514428 0.083333 0.987969 0.091128
O34   O     O_3   0.420530 0.019302 0.771169 -0.719249
C54   C     C_3   0.557010 0.006726 0.731696 0.111396
H47   H     H_    0.578328 0.052254 0.683090 0.150377
H48   H     H_    0.531692 0.938179 0.693023 0.236727
H49   H     H_    0.669415 0.012360 0.782270 0.210502
F12   F     F_    0.222777 0.881637 0.627417 -0.645037
F13   F     F_    0.579395 0.119495 0.374432 -0.636949
F14   F     F_    0.640729 0.706502 0.530696 -0.719341
F15   F     F_    0.100812 0.325434 0.576502 -0.694638
F16   F     F_    0.080623 0.442184 0.972487 -0.696549
F17   F     F_    0.716435 0.769556 0.143245 -0.791716
F18   F     F_    0.620790 0.551186 0.917437 -0.726490
O35   O     O_3   0.653255 0.525254 0.323606 -0.620995
C55   C     C_3   0.645211 0.600981 0.382645 0.315382
H50   H     H_    0.565624 0.583677 0.428894 0.206062
H51   H     H_    0.628427 0.662064 0.352256 -0.104141
H52   H     H_    0.759559 0.622392 0.425833 0.137799
O36   O     O_3   0.956645 0.958836 0.296177 -0.719371
C56   C     C_3   0.093641 0.935450 0.348311 -0.094840
H53   H     H_    0.197935 0.932940 0.313468 0.235360
H54   H     H_    0.057593 0.871578 0.372422 0.136950
H55   H     H_    0.139509 0.988799 0.406524 0.157534
O37   O     O_3   0.048079 0.904789 0.169456 -0.630091
C57   C     C_3   0.007693 0.873347 0.077041 -0.053602
H56   H     H_    0.939413 0.918561 0.040709 0.086546
H57   H     H_    0.940047 0.804000 0.064222 0.183991
H58   H     H_    0.121296 0.873215 0.050311 0.214371
F19   F     F_    0.613280 0.343700 0.272187 -0.701014
O38   O     O_3   0.850962 0.332793 0.218326 -0.754210
C58   C     C_3   0.818971 0.407890 0.179503 -0.013478
H59   H     H_    0.692700 0.403775 0.142910 0.089310
H60   H     H_    0.902230 0.419681 0.132036 0.203448
H61   H     H_    0.845180 0.463397 0.235127 0.226924

loop_
_geom_bond_atom_site_label_1
_geom_bond_atom_site_label_2
_geom_bond_distance
_ccdc_geom_bond_type
P8    O24   1.760259 S    
O36   C56   1.407933 S    
O2    Ba2   2.864260 S    
C54   H48   1.104893 S    
C32   F15   1.353661 S    
O2    Ba1   2.976591 S    
C47   H26   1.111432 S    
O13   Ba2   2.977604 S    
C52   H43   1.108814 S    
C13   C14   1.524605 S    
O30   C50   1.411626 S    
C44   O35   1.364050 S    
C51   H40   1.102653 S    
C49   H32   1.106629 S    
C55   H51   1.110926 S    
C37   F18   1.349540 S    
C35   C36   1.438430 A    
P7    O21   1.575401 D    
C11   O22   1.397715 S    
O7    Ba1   2.896266 S    
C15   C16   1.543219 S    
Ba1   Ba2   4.668999 S    
C25   C27   1.417770 A    
O14   P8    1.747717 S    
O12   Ba2   2.898419 S    
P4    O15   1.764069 S    
C42   C43   1.432292 A    
C8    C9    1.531464 S    
C36   C43   1.549531 S    
C3    O36   1.428188 S    
O16   Ba2   2.972492 S    
P5    O18   1.539645 D    
P2    O10   1.778137 S    
C58   H60   1.108615 S    
Ba2   O21   2.896370 S    
C5    O25   1.420542 S    
P3    O9    1.550388 D    
C29   C31   1.413183 A    
C49   H33   1.107653 S    
C18   C21   1.399797 A    
O16   P7    1.775913 S    
C46   H23   1.107129 S    
O28   C48   1.410690 S    
C16   O34   1.422496 S    
C42   H18   1.072832 S    
C23   C31   1.399993 A    
C14   H12   1.108121 S    
O8    Ba1   2.814955 S    
P1    O1    1.546440 D    
C24   C25   1.451807 A    
C21   H15   1.067182 S    
O14   Ba2   2.843477 S    
C3    O37   1.429209 S    
O19   C13   1.408582 S    
O27   C47   1.408827 S    
P5    O19   1.745683 S    
C34   C35   1.414384 A    
C27   F13   1.350216 S    
O25   C45   1.408188 S    
P7    O22   1.744907 S    
C20   C21   1.391248 A    
C57   H57   1.102068 S    
C53   H46   1.111733 S    
C1    F4    1.375940 S    
C23   F14   1.341725 S    
P5    C34   1.862266 S    
O6    P6    1.757327 S    
O17   Ba2   2.815474 S    
C20   F12   1.349893 S    
C7    O27   1.428199 S    
C56   H55   1.101756 S    
C50   H37   1.107603 S    
C15   F11   1.383368 S    
C57   H58   1.104153 S    
P8    O23   1.546585 D    
C11   C12   1.529819 S    
C33   C38   1.384338 A    
O4    P6    1.541870 D    
C1    H9    1.108005 S    
C55   H50   1.088596 S    
C5    H3    1.106773 S    
C54   H49   1.104157 S    
C39   C43   1.433211 A    
C7    O26   1.417886 S    
C24   C32   1.414712 A    
C56   H54   1.106601 S    
C40   C44   1.413800 A    
C55   H52   1.054594 S    
C52   H41   1.109845 S    
C54   H47   1.103488 S    
Ba1   O20   2.973410 S    
C25   C26   1.437922 A    
C19   C20   1.406365 A    
P7    C38   1.859234 S    
C19   C30   1.443264 A    
C6    H4    1.106033 S    
C8    F3    1.392815 S    
C58   H61   1.090470 S    
C41   C42   1.410930 A    
O3    Ba1   2.844181 S    
C36   C37   1.436971 A    
O11   C2    1.410793 S    
C49   H34   1.109454 S    
C51   H39   1.101137 S    
C15   O24   1.408140 S    
C12   H11   1.112594 S    
P6    C31   1.881380 S    
C28   C29   1.399652 A    
C45   H22   1.108480 S    
P1    O5    1.750924 S    
C6    F2    1.380622 S    
P4    O13   1.602703 S    
C39   H17   1.071949 S    
C58   H59   1.105269 S    
C9    H6    1.105171 S    
C2    F17   1.384066 S    
C1    F6    1.378250 S    
P8    C17   1.894536 S    
C17   C32   1.412910 A    
C33   C34   1.390279 A    
C9    H7    1.109959 S    
Ba1   O13   2.863580 S    
O5    C6    1.397106 S    
C9    O29   1.413784 S    
C45   H21   1.107197 S    
C2    H2    1.110477 S    
C7    H5    1.106097 S    
C47   H27   1.109473 S    
O6    C10   1.410462 S    
C27   C28   1.394103 A    
O34   C54   1.413366 S    
P2    O7    1.537963 D    
O37   C57   1.405969 S    
P2    C41   1.897912 S    
P1    Ba1   3.462161 S    
O31   C51   1.414778 S    
C35   F16   1.353433 S    
C53   H45   1.106045 S    
C12   O30   1.414317 S    
O1    Ba1   2.897951 S    
C8    O28   1.396545 S    
C56   H53   1.106760 S    
C4    O38   1.400673 S    
C50   H35   1.105138 S    
C11   H10   1.106753 S    
C1    C10   1.519643 S    
C13   F7    1.377742 S    
C29   C30   1.414321 A    
C10   H8    1.100467 S    
H1    C10   1.110039 S    
C6    C7    1.556844 S    
C12   O31   1.421168 S    
C41   C44   1.395130 A    
O32   C52   1.410496 S    
C51   H38   1.107524 S    
C52   H42   1.109481 S    
O3    P6    1.749772 S    
P2    Ba1   3.466379 S    
Ba1   O16   2.839177 S    
O26   C46   1.410213 S    
P1    C22   1.935051 S    
C48   H31   1.097554 S    
C16   O33   1.418560 S    
C19   C22   1.443813 A    
P4    O12   1.546800 D    
C14   F10   1.382144 S    
C39   C40   1.407267 A    
P5    O17   1.760064 S    
O33   C53   1.416411 S    
C11   F5    1.383380 S    
C5    F1    1.380515 S    
P3    O8    1.764956 S    
P3    C40   1.906574 S    
O10   C8    1.397697 S    
O35   C55   1.389301 S    
C46   H24   1.099946 S    
C28   H16   1.078094 S    
C18   C26   1.411605 A    
C45   H20   1.108080 S    
C2    C3    1.576755 S    
C48   H30   1.102213 S    
C48   H29   1.111450 S    
C47   H28   1.109172 S    
Ba2   O20   2.838684 S    
C17   C18   1.416102 A    
C14   F9    1.379068 S    
P3    O11   1.768305 S    
C13   F8    1.383190 S    
H14   C16   1.110766 S    
C4    O15   1.395091 S    
C15   H13   1.105146 S    
C4    C5    1.553258 S    
C37   C38   1.409224 A    
C3    O32   1.432063 S    
C57   H56   1.106308 S    
C33   H19   1.080200 S    
P2    O20   1.593319 S    
P4    Ba2   3.462810 S    
C53   H44   1.104105 S    
C22   C23   1.403072 A    
P1    O2    1.602675 S    
O29   C49   1.409395 S    
C26   C30   1.441718 A    
P4    C24   1.931114 S    
O38   C58   1.397050 S    
C4    F19   1.380221 S    
C50   H36   1.113831 S    
C46   H25   1.107088 S    
