data_mof_unit_13164.cif
_audit_creation_date              2012-12-11T15:31:43-0500
_audit_creation_method            fapswitch 2.2
_symmetry_space_group_name_H-M    P1
_symmetry_Int_Tables_number       1
_space_group_crystal_system       triclinic
_cell_length_a                    6.968827
_cell_length_b                    15.106909
_cell_length_c                    21.397639
_cell_angle_alpha                 72.828412
_cell_angle_beta                  90.753287
_cell_angle_gamma                 89.927767
_cell_volume                      2152.05751097

loop_
_atom_site_label
_atom_site_type_symbol
_atom_type_description
_atom_site_fract_x
_atom_site_fract_y
_atom_site_fract_z
_atom_type_partial_charge
O1    O     O_R   0.648150 0.130050 0.214300 -0.537956
O2    O     O_R   0.351850 0.869950 0.785700 -0.538836
O3    O     O_R   0.320490 0.006660 0.340150 -0.541355
O4    O     O_R   0.679510 0.993340 0.659850 -0.540726
O5    O     O_R   0.146100 0.869940 0.285700 -0.541760
O6    O     O_R   0.853900 0.130060 0.714300 -0.542498
C1    C     C_R   0.488563 0.994038 0.368161 0.692721
C2    C     C_R   0.510164 0.002308 0.632052 0.690668
O7    O     O_R   0.318690 0.137980 0.218120 -0.539164
O8    O     O_R   0.681310 0.862020 0.781880 -0.539783
O9    O     O_R   0.144280 0.002190 0.162800 -0.539475
O10   O     O_R   0.855720 0.997810 0.837200 -0.539935
C3    C     C_R   0.486592 0.175356 0.206537 0.727705
C4    C     C_R   0.513225 0.824640 0.792482 0.725100
O11   O     O_R   0.649960 0.997790 0.337200 -0.545069
O12   O     O_R   0.350040 0.002210 0.662800 -0.544127
O13   O     O_3   0.479300 0.955290 0.231990 -0.376761
O14   O     O_3   0.520700 0.044710 0.768010 -0.374324
V1    V     V_3+5 0.206040 0.008290 0.253340 1.442221
V2    V     V_3+5 0.793960 0.991710 0.746660 1.440100
O15   O     O_R   0.814320 0.993320 0.159850 -0.540884
O16   O     O_R   0.185680 0.006680 0.840150 -0.542236
C5    C     C_R   0.981898 0.999353 0.132821 0.694136
C6    C     C_R   0.018142 0.000279 0.867268 0.687625
O17   O     O_R   0.816120 0.862000 0.281880 -0.552701
O18   O     O_R   0.183880 0.138000 0.718120 -0.546128
C7    C     C_R   0.986127 0.824972 0.296337 0.682585
C8    C     C_R   0.014549 0.175378 0.709681 0.676020
V3    V     V_3+5 0.705540 0.991700 0.246660 1.423199
V4    V     V_3+5 0.294460 0.008300 0.753340 1.429946
O19   O     O_3   0.982150 0.044700 0.268010 -0.369888
O20   O     O_3   0.017850 0.955300 0.731990 -0.371032
C9    C     C_R   0.007894 0.724114 0.324432 -0.076543
C10   C     C_R   0.011021 0.276229 0.679660 -0.047487
C11   C     C_R   0.200842 0.592712 0.320528 -0.183737
C12   C     C_R   0.973001 0.427979 0.694005 -0.154620
C13   C     C_R   0.124183 0.679566 0.290062 -0.183478
C14   C     C_R   0.966231 0.332225 0.718928 -0.208735
C15   C     C_R   0.960542 0.678642 0.390479 0.024470
C16   C     C_R   0.067336 0.315921 0.613793 0.031367
C17   C     C_R   0.067555 0.597473 0.424844 0.082901
C18   C     C_R   0.078437 0.415500 0.588029 0.053145
C19   C     C_R   0.177265 0.552260 0.387587 0.082465
C20   C     C_R   0.023606 0.469999 0.628974 0.109876
C21   C     C_R   0.068836 0.557723 0.494336 0.064730
C22   C     C_R   0.127088 0.464233 0.522023 0.000075
C23   C     C_R   0.250463 0.427618 0.484872 -0.174966
C24   C     C_R   0.038893 0.610084 0.537751 -0.141737
C25   C     C_R   0.273280 0.469647 0.418460 -0.169575
C26   C     C_R   0.018553 0.566772 0.604408 -0.189496
H1    H     H_    0.371172 0.439032 0.391637 0.164219
H2    H     H_    0.989184 0.609008 0.636292 0.149159
H3    H     H_    0.926121 0.301484 0.769387 0.106569
H4    H     H_    0.160919 0.713878 0.239651 0.113448
H5    H     H_    0.289568 0.559832 0.292476 0.117504
H6    H     H_    0.935555 0.469559 0.725565 0.113442
H7    H     H_    0.351219 0.375241 0.509009 0.171094
H8    H     H_    0.037562 0.684718 0.521135 0.144301
C27   C     C_3   0.829785 0.973346 0.980616 -0.191524
C28   C     C_3   0.170296 0.025863 0.019599 -0.191834
C29   C     C_3   0.957637 0.914448 0.037850 0.081795
C30   C     C_3   0.042395 0.084752 0.962406 0.082741
H9    H     H_    0.689814 0.953329 0.963922 0.156789
H10   H     H_    0.310240 0.045870 0.036307 0.156959
C31   C     C_3   0.989109 0.999586 0.062452 -0.117029
C32   C     C_3   0.010947 0.999654 0.937752 -0.114604
C33   C     C_3   0.863610 0.058448 0.005384 -0.005921
C34   C     C_3   0.136437 0.940728 0.994837 -0.005582
C35   C     C_3   0.661196 0.029899 0.470232 -0.178855
C36   C     C_3   0.331829 0.962632 0.530026 -0.172335
C37   C     C_3   0.515008 0.084031 0.498376 0.019596
C38   C     C_3   0.476942 0.908702 0.501303 0.005918
H11   H     H_    0.796751 0.056140 0.445009 0.122821
H12   H     H_    0.194795 0.935206 0.553917 0.120876
C39   C     C_3   0.499383 0.002097 0.561405 -0.058500
C40   C     C_3   0.494492 0.990827 0.439013 -0.062975
C41   C     C_3   0.644938 0.946257 0.533484 -0.144776
C42   C     C_3   0.348479 0.045111 0.466840 -0.152822
H13   H     H_    0.768524 0.904962 0.560166 0.139387
H14   H     H_    0.226613 0.084634 0.437931 0.141104
C43   C     C_R   0.487579 0.277004 0.180776 -0.096929
C44   C     C_R   0.511770 0.723057 0.817778 -0.096188
C45   C     C_R   0.362584 0.424737 0.185065 -0.199941
C46   C     C_R   0.631853 0.574881 0.812700 -0.196340
C47   C     C_R   0.402339 0.331539 0.215960 -0.038207
C48   C     C_R   0.593237 0.668332 0.781949 -0.036039
C49   C     C_R   0.541032 0.317823 0.115852 -0.231485
C50   C     C_R   0.460362 0.682296 0.882868 -0.232520
C51   C     C_R   0.496537 0.411706 0.082840 0.084459
C52   C     C_R   0.502716 0.588149 0.915480 0.083787
C53   C     C_R   0.402142 0.464006 0.118621 0.130773
C54   C     C_R   0.594684 0.535667 0.879374 0.129351
C55   C     C_R   0.532840 0.453778 0.014851 0.044330
C56   C     C_R   0.466278 0.545989 0.983400 0.045062
C57   C     C_R   0.365735 0.593057 0.020867 -0.171702
C58   C     C_R   0.631965 0.406535 0.977155 -0.172120
C59   C     C_R   0.339322 0.553837 0.087341 -0.207737
C60   C     C_R   0.656896 0.445657 0.910533 -0.206748
H15   H     H_    0.263731 0.593450 0.114168 0.129458
H16   H     H_    0.730738 0.405814 0.883480 0.128834
H17   H     H_    0.401433 0.727974 0.907856 0.142339
H18   H     H_    0.603630 0.272412 0.091349 0.141509
H19   H     H_    0.292028 0.465649 0.212133 0.110579
H20   H     H_    0.698808 0.533557 0.785236 0.109439
H21   H     H_    0.301995 0.660131 0.999978 0.147955
H22   H     H_    0.694594 0.339190 0.997854 0.148927
C61   C     C_1   0.643466 0.707332 0.714095 0.283797
N1    N     N_1   0.683720 0.738400 0.659730 -0.387958
C62   C     C_1   0.348118 0.292059 0.283231 0.295404
N2    N     N_1   0.304591 0.260078 0.337117 -0.380646
C63   C     C_3   0.091856 0.250416 0.571815 -0.377644
C64   C     C_3   0.937422 0.266674 0.518586 -0.274761
C65   C     C_3   0.987319 0.215937 0.469246 -0.730019
H23   H     H_    0.126749 0.240868 0.446730 0.268068
H24   H     H_    0.996242 0.140490 0.494432 0.204374
H25   H     H_    0.877303 0.229516 0.429610 0.237959
H26   H     H_    0.802913 0.239348 0.543766 0.202967
H27   H     H_    0.913783 0.340853 0.492168 0.220292
H28   H     H_    0.238437 0.250372 0.554040 0.181915
H29   H     H_    0.078417 0.176342 0.599598 0.167225
C66   C     C_3   0.775279 0.706326 0.417502 -0.360337
C67   C     C_3   0.621502 0.630037 0.428804 -0.256980
C68   C     C_3   0.617872 0.566391 0.499389 -0.635452
H30   H     H_    0.703090 0.502481 0.504630 0.204165
H31   H     H_    0.667687 0.601909 0.534981 0.247781
H32   H     H_    0.469703 0.546134 0.513532 0.223841
H33   H     H_    0.478633 0.664117 0.417000 0.199406
H34   H     H_    0.639729 0.587867 0.394531 0.186411
H35   H     H_    0.797582 0.730516 0.460812 0.165858
H36   H     H_    0.709849 0.767839 0.382253 0.158343
C69   C     C_3   0.905692 0.818482 0.082610 -0.356925
C70   C     C_3   0.885462 0.747255 0.044687 -0.298027
C71   C     C_3   0.816172 0.654394 0.088950 -0.723352
H37   H     H_    0.917446 0.627303 0.130774 0.216502
H38   H     H_    0.671826 0.662415 0.108015 0.239741
H39   H     H_    0.807095 0.603519 0.060710 0.228131
H40   H     H_    0.782109 0.772617 0.003315 0.224999
H41   H     H_    0.025991 0.736660 0.024280 0.187944
H42   H     H_    0.019255 0.795429 0.120967 0.153210
H43   H     H_    0.768113 0.824385 0.106810 0.187278
C72   C     C_3   0.093156 0.180785 0.917598 -0.358886
C73   C     C_3   0.114304 0.252087 0.955411 -0.297098
C74   C     C_3   0.180317 0.345290 0.910675 -0.722618
H44   H     H_    0.323621 0.337956 0.890631 0.241049
H45   H     H_    0.076666 0.371910 0.869505 0.213942
H46   H     H_    0.190400 0.396217 0.938847 0.228009
H47   H     H_    0.974725 0.261988 0.976707 0.187868
H48   H     H_    0.219891 0.227236 0.996139 0.225388
H49   H     H_    0.229845 0.175208 0.892805 0.187093
H50   H     H_    0.978047 0.203476 0.879849 0.151551
C75   C     C_1   0.707455 0.120957 0.009770 0.254939
N3    N     N_1   0.583114 0.170074 0.012785 -0.435319
C76   C     C_1   0.292433 0.878063 0.990553 0.254399
N4    N     N_1   0.416594 0.828779 0.987655 -0.434390
C77   C     C_1   0.519110 0.184173 0.484345 0.257877
N5    N     N_1   0.521118 0.264049 0.469932 -0.413170
C78   C     C_1   0.441284 0.811847 0.506628 0.272191
N6    N     N_1   0.408590 0.735130 0.512143 -0.384190

loop_
_geom_bond_atom_site_label_1
_geom_bond_atom_site_label_2
_ccdc_geom_bond_type
C74   H46   S    
C32   C34   S    
C55   C56   A    
O11   V3    S    
C36   C42   S    
O13   V3    S    
C35   C41   S    
C48   C61   S    
C66   H36   S    
O4    C2    A    
V1    O19   S    
C50   H17   S    
C72   H49   S    
C68   H30   S    
C23   C25   A    
C21   C22   A    
C7    C9    S    
O9    V1    S    
C78   N6    T    
C45   H19   S    
C30   C33   S    
C10   C16   A    
C63   H28   S    
C11   C13   A    
C40   C42   S    
C47   C62   S    
C27   C32   S    
C64   H26   S    
C42   H14   S    
C68   H31   S    
C23   H7    S    
O12   V4    S    
C74   H44   S    
C3    C43   S    
C35   C40   S    
C28   C30   S    
C18   C22   A    
C67   H33   S    
C35   C37   S    
O7    C3    A    
C69   H43   S    
C57   H21   S    
C27   C33   S    
O5    C7    A    
O7    V1    S    
O6    C8    A    
C63   C64   S    
O8    V2    S    
C70   C71   S    
C25   H1    S    
C58   C60   A    
C36   H12   S    
C71   H39   S    
C26   H2    S    
C75   N3    T    
O3    V1    S    
O14   V4    S    
O18   C8    A    
C51   C53   A    
C11   C19   A    
C6    C32   S    
C65   H25   S    
C16   C18   A    
C8    C10   S    
C2    O12   A    
C67   H34   S    
C17   C19   A    
C18   C20   A    
C64   C65   S    
C59   H15   S    
C72   H50   S    
C52   C56   A    
C16   C63   S    
C41   H13   S    
O17   V3    S    
C27   C29   S    
C30   C32   S    
C11   H5    S    
V4    O20   S    
C73   H48   S    
C15   C17   A    
C34   C76   S    
O8    C4    A    
C19   C25   A    
C68   H32   S    
C1    O11   A    
C31   C33   S    
C70   H40   S    
C44   C48   A    
C33   C75   S    
C2    C39   S    
C9    C13   A    
C38   C78   S    
C63   H29   S    
C54   C60   A    
C38   C41   S    
C12   H6    S    
C64   H27   S    
C49   H18   S    
C52   C54   A    
C61   N1    T    
C37   C77   S    
O10   V2    S    
O1    V3    S    
C38   C40   S    
C9    C15   A    
C53   C59   A    
C35   H11   S    
C24   C26   A    
C39   C41   S    
C66   C67   S    
C43   C49   A    
C13   H4    S    
C45   C47   A    
C50   C52   A    
C28   C31   S    
O18   V4    S    
C55   C58   A    
C60   H16   S    
O15   C5    A    
C71   H37   S    
C46   H20   S    
O16   C6    A    
C12   C20   A    
O1    C3    A    
C4    C44   S    
C30   C72   S    
C69   C70   S    
C77   N5    T    
C45   C53   A    
C65   H23   S    
V2    O20   S    
C21   C24   A    
C20   C26   A    
C74   H45   S    
C58   H22   S    
C22   C23   A    
O16   V4    S    
C10   C14   A    
C27   H9    S    
C73   H47   S    
C66   H35   S    
C57   C59   A    
C24   H8    S    
C1    C40   S    
O5    V1    S    
O17   C7    A    
O6    V2    S    
O10   C6    A    
O3    C1    A    
C15   C66   S    
O2    V4    S    
C28   H10   S    
C5    C31   S    
C12   C14   A    
C67   C68   S    
V3    O19   S    
C72   C73   S    
C37   C39   S    
C29   C34   S    
C14   H3    S    
O15   V3    S    
C44   C50   A    
O9    C5    A    
O13   V1    S    
O14   V2    S    
C51   C55   A    
C56   C57   A    
O2    C4    A    
C69   H42   S    
C29   C69   S    
O4    V2    S    
C29   C31   S    
C28   C34   S    
C36   C39   S    
C71   H38   S    
C49   C51   A    
C17   C21   A    
C73   C74   S    
C46   C48   A    
C36   C38   S    
C46   C54   A    
C76   N4    T    
C62   N2    T    
C70   H41   S    
C37   C42   S    
C43   C47   A    
C65   H24   S    
