data_mof_unit_59624.cif
_audit_creation_date              2012-12-11T16:26:26-0500
_audit_creation_method            fapswitch 2.2
_symmetry_space_group_name_H-M    P1
_symmetry_Int_Tables_number       1
_space_group_crystal_system       triclinic
_cell_length_a                    6.946214
_cell_length_b                    17.673604
_cell_length_c                    19.299387
_cell_angle_alpha                 108.40238
_cell_angle_beta                  89.953959
_cell_angle_gamma                 90.894405
_cell_volume                      2247.82884127

loop_
_atom_site_label
_atom_site_type_symbol
_atom_type_description
_atom_site_fract_x
_atom_site_fract_y
_atom_site_fract_z
_atom_type_partial_charge
O1    O     O_R   0.494330 0.415720 0.413720 -0.542746
O2    O     O_R   0.819330 0.430070 0.560210 -0.549590
O3    O     O_R   0.994320 0.584280 0.586280 -0.516479
C1    C     C_R   0.650062 0.414998 0.581646 0.683188
O4    O     O_R   0.823730 0.406300 0.412670 -0.539964
O5    O     O_R   0.998760 0.560340 0.437690 -0.510581
C2    C     C_R   0.653861 0.383664 0.385026 0.682332
O6    O     O_R   0.489890 0.439660 0.562310 -0.546111
O7    O     O_3   0.662340 0.550560 0.508380 -0.339846
V1    V     V_3+5 0.935370 0.490620 0.498450 1.470513
O8    O     O_R   0.328750 0.569930 0.439790 -0.547843
C3    C     C_R   0.159808 0.587987 0.420979 0.757720
O9    O     O_R   0.324340 0.593700 0.587330 -0.550247
C4    C     C_R   0.158169 0.612166 0.618339 0.720335
V2    V     V_3+5 0.435940 0.509380 0.501550 1.440041
O10   O     O_3   0.159100 0.449440 0.491620 -0.378022
H1    H     H_    0.256731 0.849888 0.551420 0.138954
C5    C     C_R   0.165350 0.596914 0.771457 0.130905
C6    C     C_R   0.104095 0.588627 0.838072 -0.129357
C7    C     C_R   0.039991 0.653332 0.893876 -0.180409
C8    C     C_R   0.044725 0.728343 0.885797 -0.143424
C9    C     C_R   0.098049 0.739744 0.818772 0.064912
C10   C     C_R   0.140324 0.671649 0.757636 0.015261
C11   C     C_R   0.112042 0.818124 0.813554 -0.163112
C12   C     C_R   0.141517 0.829659 0.743820 0.003630
C13   C     C_R   0.169282 0.760230 0.681502 0.064926
C14   C     C_R   0.158231 0.681828 0.687237 -0.176682
C15   C     C_R   0.138727 0.906889 0.732071 0.109647
C16   C     C_R   0.184647 0.911522 0.662284 -0.102718
C17   C     C_R   0.222599 0.844378 0.604418 -0.176515
C18   C     C_R   0.211382 0.770013 0.613135 -0.070866
H2    H     H_    0.117637 0.532296 0.848717 0.120442
H3    H     H_    0.997490 0.646160 0.945472 0.122376
H4    H     H_    0.004202 0.777055 0.933168 0.113690
H5    H     H_    0.189085 0.967201 0.650485 0.129256
H6    H     H_    0.238888 0.720250 0.564864 0.125971
C19   C     C_R   0.280994 0.626731 0.316092 -0.267272
C20   C     C_R   0.148847 0.639421 0.373476 -0.099307
C21   C     C_R   0.008516 0.699939 0.383707 -0.050770
C22   C     C_R   0.981153 0.736276 0.328109 -0.067698
C23   C     C_R   0.123956 0.725586 0.273155 0.080066
C24   C     C_R   0.275204 0.671751 0.268198 0.123565
C25   C     C_R   0.818317 0.784011 0.325660 -0.046092
C26   C     C_R   0.815481 0.827103 0.275765 -0.144698
C27   C     C_R   0.964510 0.821342 0.225909 0.045404
C28   C     C_R   0.117839 0.769691 0.223469 0.070313
C29   C     C_R   0.265883 0.762573 0.171486 0.105753
C30   C     C_R   0.415621 0.709252 0.167860 -0.187296
C31   C     C_R   0.418686 0.663396 0.215058 -0.191201
C32   C     C_R   0.959804 0.865733 0.177402 -0.208800
C33   C     C_R   0.109467 0.861747 0.127661 -0.052893
C34   C     C_R   0.261682 0.809156 0.124295 -0.136267
H7    H     H_    0.391777 0.582446 0.309583 0.124743
H8    H     H_    0.692994 0.863888 0.274255 0.194318
H9    H     H_    0.840901 0.904847 0.179487 0.140418
H10   H     H_    0.376359 0.804613 0.085106 0.120363
H11   H     H_    0.530247 0.702857 0.128398 0.124592
H12   H     H_    0.535837 0.622444 0.210995 0.121544
C35   C     C_R   0.689171 0.213386 0.893987 -0.225126
C36   C     C_R   0.624103 0.133665 0.868698 -0.060996
C37   C     C_R   0.565348 0.100279 0.795583 -0.229398
C38   C     C_R   0.570590 0.145989 0.747668 0.094257
C39   C     C_R   0.632478 0.226526 0.773656 0.053589
C40   C     C_R   0.692426 0.260287 0.847064 0.106719
C41   C     C_R   0.514853 0.112722 0.674229 -0.202465
C42   C     C_R   0.516212 0.159104 0.627275 -0.174986
C43   C     C_R   0.575184 0.239526 0.652665 0.105295
C44   C     C_R   0.634562 0.273351 0.726152 0.052857
C45   C     C_R   0.696059 0.353940 0.752185 0.109206
C46   C     C_R   0.755027 0.386901 0.825277 -0.201578
C47   C     C_R   0.753624 0.340479 0.872226 -0.184188
C48   C     C_R   0.577682 0.286499 0.605808 -0.222124
C49   C     C_R   0.640725 0.366444 0.631366 -0.059672
C50   C     C_R   0.698411 0.399926 0.704572 -0.238702
H13   H     H_    0.734742 0.239081 0.950303 0.102480
H14   H     H_    0.517461 0.038441 0.775961 0.121137
H15   H     H_    0.470057 0.050722 0.653044 0.129360
H16   H     H_    0.471521 0.131964 0.570964 0.131076
H17   H     H_    0.533324 0.260728 0.549309 0.103754
H18   H     H_    0.744578 0.461966 0.724395 0.111906
H19   H     H_    0.802487 0.448658 0.846152 0.123983
H20   H     H_    0.799987 0.367409 0.928362 0.121067
H21   H     H_    0.313073 0.161908 0.432373 0.123296
C51   C     C_R   0.798371 0.395685 0.248592 -0.149561
C52   C     C_R   0.868151 0.403885 0.183651 -0.124352
C53   C     C_R   0.857211 0.339994 0.119546 -0.124391
C54   C     C_R   0.777153 0.267405 0.120035 -0.134497
C55   C     C_R   0.706960 0.256721 0.185390 0.083257
C56   C     C_R   0.717299 0.322421 0.250895 0.069416
C57   C     C_R   0.626438 0.182370 0.185857 -0.189775
C58   C     C_R   0.558629 0.173266 0.253053 -0.014092
C59   C     C_R   0.553598 0.242025 0.316764 0.077888
C60   C     C_R   0.640797 0.315065 0.316485 -0.175316
C61   C     C_R   0.495980 0.098262 0.260344 -0.007337
C62   C     C_R   0.399499 0.096514 0.323826 -0.084083
C63   C     C_R   0.382431 0.164855 0.382993 -0.178786
C64   C     C_R   0.464857 0.235896 0.380847 -0.141476
H22   H     H_    0.806685 0.447843 0.296561 0.107755
H23   H     H_    0.929503 0.460358 0.183002 0.115053
H24   H     H_    0.910347 0.346745 0.069034 0.107218
H25   H     H_    0.771109 0.220038 0.068459 0.102683
H26   H     H_    0.346714 0.040819 0.329651 0.168039
H27   H     H_    0.456752 0.285824 0.430395 0.117104
O11   O     O_R   0.775200 0.060470 0.937800 -0.542208
O12   O     O_R   0.441110 0.093720 0.087350 -0.530232
O13   O     O_R   0.266330 0.939630 0.062280 -0.520487
C65   C     C_R   0.610906 0.116088 0.115493 0.680491
O14   O     O_R   0.445750 0.069950 0.939820 -0.543735
O15   O     O_R   0.271000 0.915700 0.913700 -0.538942
C66   C     C_R   0.614978 0.085090 0.918417 0.698689
O16   O     O_R   0.770530 0.084400 0.086380 -0.542472
O17   O     O_3   0.602830 0.949510 0.991680 -0.368613
V3    V     V_3+5 0.329710 0.009370 0.001550 1.442609
O18   O     O_R   0.940990 0.906170 0.912570 -0.546188
C67   C     C_R   0.108097 0.885926 0.883051 0.669050
O19   O     O_R   0.936350 0.929940 0.060100 -0.552419
C68   C     C_R   0.104445 0.913078 0.080087 0.719752
V4    V     V_3+5 0.829160 0.990450 0.998310 1.404958
O20   O     O_3   0.105910 0.050480 0.008320 -0.368375
C69   C     C_2   0.924028 0.738559 0.457363 0.289735
H28   H     H_    0.901452 0.802454 0.475419 0.074577
O21   O     O_2   0.875592 0.701148 0.497978 -0.516132
C70   C     C_2   0.639644 0.783278 0.368013 0.357601
H29   H     H_    0.606901 0.733683 0.387958 0.070208
O22   O     O_2   0.524177 0.837262 0.379657 -0.528450
C71   C     C_3   0.288717 0.529527 0.726163 -0.410025
C72   C     C_3   0.167245 0.455534 0.688516 -0.695438
H30   H     H_    0.099808 0.431525 0.729511 0.213644
H31   H     H_    0.054303 0.471114 0.655629 0.234108
H32   H     H_    0.256877 0.408095 0.652432 0.231281
H33   H     H_    0.380945 0.547087 0.687326 0.190689
H34   H     H_    0.393221 0.513717 0.762805 0.184200
C73   C     C_2   0.553132 0.019967 0.209549 0.333093
H35   H     H_    0.680801 0.014794 0.176659 0.046291
O23   O     O_2   0.464392 0.959109 0.207172 -0.546083
C74   C     C_3   0.077542 0.983397 0.790757 -0.362839
C75   C     C_3   0.044484 0.056935 0.766645 -0.763645
H36   H     H_    0.179594 0.077346 0.747327 0.227052
H37   H     H_    0.932708 0.044107 0.723182 0.236771
H38   H     H_    0.995748 0.106792 0.814074 0.238500
H39   H     H_    0.937993 0.971230 0.813377 0.194141
H40   H     H_    0.188996 0.001004 0.834090 0.194971

loop_
_geom_bond_atom_site_label_1
_geom_bond_atom_site_label_2
_ccdc_geom_bond_type
O11   C66   A    
C54   C55   A    
C71   C72   S    
C35   H13   S    
C49   C50   A    
C62   C63   A    
C1    O6    A    
O18   C67   A    
C30   H11   S    
C27   C28   A    
C69   H28   S    
C12   C15   A    
O12   C65   A    
C13   C14   A    
C38   C39   A    
O16   V4    S    
C27   C32   A    
O12   V3    S    
C15   C16   A    
C57   C65   S    
C5    C6    A    
C48   H17   S    
C45   C46   A    
C18   H6    S    
O5    C3    A    
C17   C18   A    
C70   O22   D    
V2    O10   S    
C61   C73   S    
O19   C68   A    
C43   C48   A    
C23   C24   A    
C40   C47   A    
C19   C24   A    
C46   H19   S    
V4    O20   S    
C74   H40   S    
C54   H25   S    
O8    V2    S    
C22   C25   A    
C6    C7    A    
O19   V4    S    
C44   C45   A    
C23   C28   A    
C46   C47   A    
O1    V2    S    
C10   C14   A    
C4    C14   S    
C16   C17   A    
C53   H24   S    
O7    V1    S    
C62   H26   S    
O15   V3    S    
C47   H20   S    
C19   H7    S    
C55   C56   A    
C42   C43   A    
C35   C36   A    
C15   C74   S    
O9    C4    A    
C56   C60   A    
H1    C17   S    
C61   C62   A    
C2    C60   S    
C6    H2    S    
O17   V3    S    
C69   O21   D    
C59   C64   A    
O11   V4    S    
C37   H14   S    
C42   H16   S    
C75   H38   S    
C41   H15   S    
O13   V3    S    
C33   C34   A    
C70   H29   S    
C11   C12   A    
C21   C22   A    
O4    C2    A    
C53   C54   A    
C48   C49   A    
C8    H4    S    
C12   C13   A    
C52   C53   A    
C31   H12   S    
C5    C10   A    
C36   C37   A    
O14   V3    S    
O2    C1    A    
C43   C44   A    
C72   H31   S    
C19   C20   A    
C52   H23   S    
C64   H27   S    
C75   H37   S    
C29   C30   A    
C71   H34   S    
C63   C64   A    
C32   C33   A    
C35   C40   A    
C45   C50   A    
V3    O20   S    
C51   C52   A    
C1    C49   S    
O18   V4    S    
O3    C4    A    
C7    H3    S    
C30   C31   A    
C55   C57   A    
O6    V2    S    
O9    V2    S    
O13   C68   A    
C73   H35   S    
C9    C11   A    
C51   C56   A    
C72   H30   S    
O2    V1    S    
C25   C70   S    
C58   C59   A    
C26   C27   A    
C16   H5    S    
C28   C29   A    
C22   C23   A    
C38   C41   A    
O1    C2    A    
C65   O16   A    
C74   C75   S    
O5    V1    S    
O8    C3    A    
C29   C34   A    
C75   H36   S    
C39   C44   A    
C32   H9    S    
C51   H22   S    
O7    V2    S    
C72   H32   S    
O4    V1    S    
O3    V1    S    
V1    O10   S    
C5    C71   S    
C58   C61   A    
O17   V4    S    
C57   C58   A    
C20   C21   A    
C34   H10   S    
C71   H33   S    
C25   C26   A    
H21   C63   S    
C59   C60   A    
C33   C68   S    
C74   H39   S    
O14   C66   A    
C3    C20   S    
C37   C38   A    
C36   C66   S    
O15   C67   A    
C24   C31   A    
C39   C40   A    
C26   H8    S    
C13   C18   A    
C7    C8    A    
C11   C67   S    
C41   C42   A    
C73   O23   D    
C9    C10   A    
C50   H18   S    
C8    C9    A    
C21   C69   S    
