data_mof_unit_61817.cif
_audit_creation_date              2012-12-10T18:23:35-0500
_audit_creation_method            fapswitch 2.2
_symmetry_space_group_name_H-M    P1
_symmetry_Int_Tables_number       1
_space_group_crystal_system       triclinic
_cell_length_a                    35.62986
_cell_length_b                    35.627069
_cell_length_c                    47.251856
_cell_angle_alpha                 89.999931
_cell_angle_beta                  89.99994
_cell_angle_gamma                 90.000016
_cell_volume                      59980.9144452

loop_
_atom_site_label
_atom_site_type_symbol
_atom_type_description
_atom_site_fract_x
_atom_site_fract_y
_atom_site_fract_z
_atom_type_partial_charge
C1    C     C_R   0.572378 0.999985 0.999850 0.861827
C2    C     C_R   0.000000 0.572372 1.000000 0.849565
C3    C     C_R   0.427621 0.000015 0.999850 0.861828
C4    C     C_R   0.000000 0.427628 1.000000 0.849565
C5    C     C_R   0.072377 0.500000 0.500000 0.875784
C6    C     C_R   0.500015 0.072377 0.499850 0.861789
C7    C     C_R   0.927623 0.500000 0.500000 0.875785
C8    C     C_R   0.499985 0.927623 0.499850 0.861790
C9    C     C_R   0.500000 0.000000 0.914028 -0.185439
C10   C     C_R   0.000000 0.500000 0.914237 -0.173209
C11   C     C_R   0.500000 1.000000 0.085767 -0.173565
C12   C     C_R   1.000000 0.500000 0.085763 -0.173205
C13   C     C_R   0.000000 0.500000 0.414044 -0.185582
C14   C     C_R   0.500000 0.000000 0.414028 -0.185402
C15   C     C_R   1.000000 0.500000 0.585956 -0.185588
C16   C     C_R   0.500000 1.000000 0.585767 -0.173531
C17   C     C_R   0.500000 0.000000 0.854235 0.301766
C18   C     C_R   0.000000 0.500000 0.854514 0.295559
C19   C     C_R   0.500000 1.000000 0.145488 0.295769
C20   C     C_R   1.000000 0.500000 0.145486 0.295560
C21   C     C_R   0.000000 0.500000 0.354255 0.301462
C22   C     C_R   0.500000 0.000000 0.354236 0.301783
C23   C     C_R   0.000000 0.500000 0.645745 0.301446
C24   C     C_R   0.500000 1.000000 0.645488 0.295772
C25   C     C_R   0.826958 0.999924 0.025539 -0.146660
C26   C     C_R   0.000040 0.826994 0.025626 -0.146926
C27   C     C_R   0.173042 0.000079 0.025538 -0.146658
C28   C     C_R   0.999963 0.173006 0.025625 -0.146924
C29   C     C_R   0.827050 0.999979 0.974287 -0.147792
C30   C     C_R   0.000037 0.173006 0.974374 -0.147010
C31   C     C_R   0.172950 0.000018 0.974287 -0.147794
C32   C     C_R   0.999960 0.826994 0.974374 -0.147010
C33   C     C_R   0.327002 0.499980 0.525626 -0.147556
C34   C     C_R   0.500074 0.326956 0.525539 -0.146784
C35   C     C_R   0.672998 0.500020 0.525626 -0.147555
C36   C     C_R   0.499923 0.673043 0.525539 -0.146783
C37   C     C_R   0.327002 0.500021 0.474374 -0.147641
C38   C     C_R   0.499979 0.672951 0.474286 -0.147916
C39   C     C_R   0.672998 0.499979 0.474374 -0.147639
C40   C     C_R   0.500024 0.327048 0.474287 -0.147916
C41   C     C_R   0.866189 0.999944 0.025611 -0.183597
C42   C     C_R   0.000040 0.866225 0.025657 -0.183392
C43   C     C_R   0.133811 0.000058 0.025611 -0.183599
C44   C     C_R   0.999963 0.133775 0.025657 -0.183393
C45   C     C_R   0.866274 1.000000 0.974297 -0.183310
C46   C     C_R   0.000037 0.133775 0.974343 -0.183508
C47   C     C_R   0.133726 0.999998 0.974297 -0.183309
C48   C     C_R   0.999960 0.866225 0.974343 -0.183507
C49   C     C_R   0.366230 0.499980 0.525657 -0.183552
C50   C     C_R   0.500053 0.366189 0.525611 -0.183789
C51   C     C_R   0.633770 0.500020 0.525657 -0.183552
C52   C     C_R   0.499944 0.633811 0.525611 -0.183791
C53   C     C_R   0.366230 0.500021 0.474343 -0.183667
C54   C     C_R   0.500000 0.633725 0.474296 -0.183500
C55   C     C_R   0.633770 0.499979 0.474343 -0.183669
C56   C     C_R   0.500003 0.366275 0.474296 -0.183501
C57   C     C_R   0.886282 0.999982 0.999973 -0.042354
C58   C     C_R   1.000000 0.886277 1.000000 -0.042428
C59   C     C_R   0.113718 0.000018 0.999973 -0.042354
C60   C     C_R   0.000000 0.113723 1.000000 -0.042428
C61   C     C_R   0.386280 0.500000 0.500000 -0.042240
C62   C     C_R   0.500018 0.386282 0.499973 -0.042282
C63   C     C_R   0.613720 0.500000 0.500000 -0.042240
C64   C     C_R   0.499982 0.613718 0.499973 -0.042281
C65   C     C_R   0.807337 0.999941 0.999891 0.138850
C66   C     C_R   1.000000 0.807326 1.000000 0.138536
C67   C     C_R   0.192663 0.000059 0.999891 0.138849
C68   C     C_R   0.000000 0.192674 1.000000 0.138534
C69   C     C_R   0.307334 0.500000 0.500000 0.139232
C70   C     C_R   0.500059 0.307336 0.499891 0.138959
C71   C     C_R   0.692666 0.500000 0.500000 0.139232
C72   C     C_R   0.499940 0.692664 0.499891 0.138959
C73   C     C_1   0.766988 0.999927 0.999835 -0.049699
C74   C     C_1   1.000000 0.766974 1.000000 -0.049054
C75   C     C_1   0.233011 0.000073 0.999834 -0.049699
C76   C     C_1   0.000000 0.233026 1.000000 -0.049054
C77   C     C_1   0.266984 0.500000 0.500000 -0.050518
C78   C     C_1   0.500073 0.266988 0.499835 -0.049805
C79   C     C_1   0.733016 0.500000 0.500000 -0.050518
C80   C     C_1   0.499926 0.733012 0.499835 -0.049805
C81   C     C_1   0.733177 0.999922 0.999768 -0.046910
C82   C     C_1   1.000000 0.733160 1.000000 -0.045499
C83   C     C_1   0.266822 0.000078 0.999768 -0.046910
C84   C     C_1   0.000000 0.266840 0.999999 -0.045499
C85   C     C_1   0.233173 0.500000 0.500000 -0.047993
C86   C     C_1   0.500078 0.233177 0.499768 -0.046968
C87   C     C_1   0.766827 0.500000 0.500000 -0.047993
C88   C     C_1   0.499922 0.766823 0.499767 -0.046969
C89   C     C_R   0.673180 0.033904 0.998809 -0.140505
C90   C     C_R   0.966210 0.673144 0.997252 -0.136334
C91   C     C_R   0.326820 0.966096 0.998809 -0.140505
C92   C     C_R   0.033790 0.326856 0.997252 -0.136334
C93   C     C_R   0.673150 0.965968 0.000517 -0.136733
C94   C     C_R   0.966210 0.326856 0.002747 -0.136234
C95   C     C_R   0.326850 0.034032 0.000517 -0.136733
C96   C     C_R   0.033790 0.673144 0.002747 -0.136234
C97   C     C_R   0.173157 0.533974 0.500709 -0.141197
C98   C     C_R   0.466099 0.173180 0.498808 -0.140544
C99   C     C_R   0.826843 0.466026 0.500709 -0.141197
C100  C     C_R   0.533901 0.826820 0.498808 -0.140543
C101  C     C_R   0.173157 0.466026 0.499291 -0.141106
C102  C     C_R   0.465970 0.826849 0.500517 -0.136763
C103  C     C_R   0.826843 0.533974 0.499291 -0.141106
C104  C     C_R   0.534030 0.173151 0.500517 -0.136764
C105  C     C_R   0.633961 0.033956 0.998798 -0.201565
C106  C     C_R   0.966172 0.633919 0.997245 -0.179001
C107  C     C_R   0.366039 0.966044 0.998798 -0.201565
C108  C     C_R   0.033828 0.366081 0.997246 -0.179002
C109  C     C_R   0.633925 0.965941 0.000503 -0.160871
C110  C     C_R   0.966172 0.366081 0.002753 -0.178980
C111  C     C_R   0.366075 0.034059 0.000503 -0.160871
C112  C     C_R   0.033828 0.633919 0.002754 -0.178979
C113  C     C_R   0.133934 0.534013 0.500721 -0.180824
C114  C     C_R   0.466046 0.133960 0.498798 -0.201574
C115  C     C_R   0.866066 0.465987 0.500721 -0.180823
C116  C     C_R   0.533954 0.866040 0.498798 -0.201576
C117  C     C_R   0.133934 0.465987 0.499279 -0.180790
C118  C     C_R   0.465943 0.866076 0.500503 -0.160864
C119  C     C_R   0.866066 0.534013 0.499279 -0.180790
C120  C     C_R   0.534057 0.133924 0.500504 -0.160863
C121  C     C_R   0.500000 1.000000 0.945408 0.906781
C122  C     C_R   0.000000 0.500000 0.945481 0.889709
C123  C     C_R   0.500000 1.000000 0.054520 0.891445
C124  C     C_R   1.000000 0.500000 0.054518 0.889733
C125  C     C_R   0.000000 0.500000 0.445414 0.909211
C126  C     C_R   0.500000 0.000000 0.445409 0.906712
C127  C     C_R   1.000000 0.500000 0.554586 0.909195
C128  C     C_R   0.500000 1.000000 0.554520 0.891348
C129  C     C_R   0.613898 0.999956 0.999670 -0.032054
C130  C     C_R   0.000000 0.613884 0.999999 -0.057871
C131  C     C_R   0.386102 0.000044 0.999670 -0.032054
C132  C     C_R   1.000000 0.386116 0.999999 -0.057870
C133  C     C_R   0.113890 0.500000 0.500000 -0.013356
C134  C     C_R   0.500044 0.113897 0.499670 -0.032029
C135  C     C_R   0.886110 0.500000 0.500000 -0.013356
C136  C     C_R   0.499956 0.886103 0.499670 -0.032028
C137  C     C_R   0.692831 0.999930 0.999687 0.139711
C138  C     C_R   1.000000 0.692811 1.000000 0.138584
C139  C     C_R   0.307169 0.000070 0.999686 0.139711
C140  C     C_R   0.000000 0.307189 0.999999 0.138584
C141  C     C_R   0.192824 0.500000 0.500000 0.139227
C142  C     C_R   0.500070 0.192831 0.499686 0.139736
C143  C     C_R   0.807176 0.500000 0.500000 0.139227
C144  C     C_R   0.499930 0.807169 0.499686 0.139736
C145  C     C_R   0.531302 0.987983 0.690229 0.547508
C146  C     C_R   0.968933 0.487388 0.690493 0.547287
C147  C     C_R   0.468698 0.012017 0.690229 0.547507
C148  C     C_R   0.031067 0.512612 0.690493 0.547287
C149  C     C_R   0.487622 0.968837 0.309496 0.547346
C150  C     C_R   0.968937 0.512620 0.309507 0.547293
C151  C     C_R   0.512378 0.031163 0.309496 0.547347
C152  C     C_R   0.031063 0.487380 0.309507 0.547294
C153  C     C_R   0.031219 0.487770 0.190236 0.547459
C154  C     C_R   0.512022 0.031302 0.190229 0.547508
C155  C     C_R   0.968781 0.512230 0.190236 0.547460
C156  C     C_R   0.487978 0.968698 0.190229 0.547508
C157  C     C_R   0.031222 0.512221 0.809764 0.547451
C158  C     C_R   0.468837 0.012373 0.809495 0.547330
C159  C     C_R   0.968778 0.487778 0.809764 0.547451
C160  C     C_R   0.531163 0.987627 0.809495 0.547330
C161  C     C_R   0.468114 0.012400 0.719971 -0.019802
C162  C     C_R   0.031758 0.512720 0.720237 -0.019418
C163  C     C_R   0.531886 0.987599 0.719971 -0.019803
C164  C     C_R   0.968242 0.487279 0.720237 -0.019417
C165  C     C_R   0.512492 0.031852 0.279753 -0.019457
C166  C     C_R   0.031755 0.487271 0.279763 -0.019411
C167  C     C_R   0.487508 0.968148 0.279754 -0.019457
C168  C     C_R   0.968245 0.512729 0.279763 -0.019411
C169  C     C_R   0.968205 0.512628 0.219979 -0.019743
C170  C     C_R   0.487595 0.968114 0.219972 -0.019780
C171  C     C_R   0.031795 0.487372 0.219979 -0.019743
C172  C     C_R   0.512405 0.031886 0.219972 -0.019779
C173  C     C_R   0.968202 0.487381 0.780021 -0.019759
C174  C     C_R   0.531852 0.987513 0.779753 -0.019467
C175  C     C_R   0.031799 0.512619 0.780021 -0.019759
C176  C     C_R   0.468148 0.012487 0.779753 -0.019467
C177  C     C_R   0.500000 1.000000 0.734898 -0.014521
C178  C     C_R   0.000000 0.500000 0.735164 -0.014575
C179  C     C_R   0.500000 1.000000 0.264826 -0.014562
C180  C     C_R   0.000000 0.500000 0.264836 -0.014571
C181  C     C_R   1.000000 0.500000 0.234907 -0.014523
C182  C     C_R   0.500000 1.000000 0.234899 -0.014517
C183  C     C_R   0.000000 0.500000 0.765093 -0.014528
C184  C     C_R   0.500000 1.000000 0.764826 -0.014567
C185  C     C_R   0.436466 0.024757 0.735085 -0.152700
C186  C     C_R   0.063318 0.525301 0.735351 -0.152937
C187  C     C_R   0.563534 0.975242 0.735085 -0.152701
C188  C     C_R   0.936682 0.474699 0.735352 -0.152937
C189  C     C_R   0.524854 0.063501 0.264640 -0.152928
C190  C     C_R   0.063311 0.474682 0.264649 -0.152937
C191  C     C_R   0.475146 0.936499 0.264640 -0.152927
C192  C     C_R   0.936689 0.525318 0.264649 -0.152938
C193  C     C_R   0.936650 0.525220 0.235094 -0.152729
C194  C     C_R   0.475232 0.936466 0.235086 -0.152722
C195  C     C_R   0.063350 0.474780 0.235094 -0.152729
C196  C     C_R   0.524768 0.063534 0.235086 -0.152721
C197  C     C_R   0.936643 0.474797 0.764906 -0.152718
C198  C     C_R   0.563501 0.975156 0.764639 -0.152930
C199  C     C_R   0.063357 0.525203 0.764906 -0.152718
C200  C     C_R   0.436499 0.024843 0.764639 -0.152930
C201  C     C_R   0.000000 0.072198 1.000000 0.795269
C202  C     C_R   0.927803 0.999996 0.999997 0.795241
C203  C     C_R   1.000000 0.927802 0.000000 0.795269
C204  C     C_R   0.072197 0.000003 0.999997 0.795240
C205  C     C_R   0.499997 0.572196 0.499997 0.795305
C206  C     C_R   0.427803 0.500000 0.500000 0.795222
C207  C     C_R   0.500003 0.427804 0.499997 0.795306
C208  C     C_R   0.572197 0.500000 0.500000 0.795222
C209  C     C_R   0.524534 0.023346 0.869090 -0.131548
C210  C     C_R   0.997735 0.466198 0.869380 -0.123615
C211  C     C_R   0.475466 0.976654 0.869090 -0.131549
C212  C     C_R   0.002265 0.533802 0.869380 -0.123615
C213  C     C_R   0.466205 0.997691 0.130626 -0.123684
C214  C     C_R   0.997741 0.533802 0.130619 -0.123619
C215  C     C_R   0.533795 0.002309 0.130626 -0.123684
C216  C     C_R   0.002259 0.466197 0.130619 -0.123619
C217  C     C_R   0.024832 0.523033 0.369114 -0.131341
C218  C     C_R   0.476658 0.024537 0.369090 -0.131531
C219  C     C_R   0.975168 0.476967 0.369114 -0.131341
C220  C     C_R   0.523342 0.975463 0.369090 -0.131530
C221  C     C_R   0.024830 0.476965 0.630886 -0.131349
C222  C     C_R   0.497688 0.033797 0.630625 -0.123667
C223  C     C_R   0.975170 0.523035 0.630886 -0.131349
C224  C     C_R   0.502311 0.966202 0.630625 -0.123667
C225  C     C_R   0.525455 0.023207 0.898776 -0.071158
C226  C     C_R   0.997035 0.465696 0.899071 -0.066638
C227  C     C_R   0.474545 0.976793 0.898776 -0.071158
C228  C     C_R   0.002965 0.534304 0.899071 -0.066640
C229  C     C_R   0.465703 0.997003 0.100935 -0.066383
C230  C     C_R   0.997042 0.534304 0.100929 -0.066649
C231  C     C_R   0.534297 0.002997 0.100935 -0.066382
C232  C     C_R   0.002958 0.465696 0.100929 -0.066648
C233  C     C_R   0.025755 0.522877 0.398801 -0.071628
C234  C     C_R   0.476797 0.025458 0.398777 -0.071149
C235  C     C_R   0.974245 0.477123 0.398801 -0.071629
C236  C     C_R   0.523204 0.974542 0.398777 -0.071148
C237  C     C_R   0.025753 0.477121 0.601199 -0.071659
C238  C     C_R   0.497000 0.034300 0.600935 -0.066358
C239  C     C_R   0.974247 0.522879 0.601199 -0.071657
C240  C     C_R   0.503000 0.965700 0.600935 -0.066359
Cu1   Cu    Cu3+1 0.500000 0.962680 0.000000 1.034021
Cu2   Cu    Cu3+1 0.037320 0.500000 0.000000 1.041408
Cu3   Cu    Cu3+1 0.500000 0.037320 0.000000 1.034021
Cu4   Cu    Cu3+1 0.962680 0.500000 0.000000 1.041408
Cu5   Cu    Cu3+1 0.000000 0.462680 0.500000 1.026218
Cu6   Cu    Cu3+1 0.537320 0.000000 0.500000 1.034147
Cu7   Cu    Cu3+1 0.000000 0.537320 0.500000 1.026218
Cu8   Cu    Cu3+1 0.462680 0.000000 0.500000 1.034147
Cu9   Cu    Cu3+1 0.000000 0.000000 0.971840 0.955557
Cu10  Cu    Cu3+1 0.000000 0.000000 0.028160 0.956112
Cu11  Cu    Cu3+1 0.500000 0.500000 0.471840 0.955029
Cu12  Cu    Cu3+1 0.500000 0.500000 0.528160 0.955581
H1    H     H_    0.411575 0.034440 0.724140 0.192110
H2    H     H_    0.088113 0.535228 0.724406 0.191792
H3    H     H_    0.588425 0.965560 0.724140 0.192110
H4    H     H_    0.911887 0.464772 0.724406 0.191792
H5    H     H_    0.534603 0.088367 0.275585 0.191779
H6    H     H_    0.088103 0.464749 0.275594 0.191780
H7    H     H_    0.465397 0.911633 0.275585 0.191778
H8    H     H_    0.911897 0.535251 0.275594 0.191780
H9    H     H_    0.911830 0.535083 0.224149 0.192080
H10   H     H_    0.465546 0.911575 0.224140 0.192078
H11   H     H_    0.088170 0.464917 0.224149 0.192081
H12   H     H_    0.534454 0.088425 0.224140 0.192078
H13   H     H_    0.911820 0.464941 0.775851 0.192105
H14   H     H_    0.588367 0.965411 0.775584 0.191794
H15   H     H_    0.088180 0.535059 0.775851 0.192105
H16   H     H_    0.411633 0.034589 0.775585 0.191794
H17   H     H_    0.543698 0.041027 0.857271 0.176511
H18   H     H_    0.995791 0.440180 0.857580 0.176997
H19   H     H_    0.456302 0.958973 0.857271 0.176510
H20   H     H_    0.004209 0.559820 0.857580 0.176997
H21   H     H_    0.440195 0.995709 0.142430 0.176836
H22   H     H_    0.995802 0.559821 0.142420 0.177008
H23   H     H_    0.559805 0.004291 0.142429 0.176837
H24   H     H_    0.004197 0.440179 0.142420 0.177008
H25   H     H_    0.044217 0.540474 0.357296 0.176817
H26   H     H_    0.458979 0.043704 0.357271 0.176503
H27   H     H_    0.955783 0.459526 0.357297 0.176818
H28   H     H_    0.541021 0.956296 0.357271 0.176503
H29   H     H_    0.044213 0.459522 0.642703 0.176833
H30   H     H_    0.495705 0.059810 0.642429 0.176822
H31   H     H_    0.955787 0.540478 0.642703 0.176833
H32   H     H_    0.504295 0.940190 0.642429 0.176822
H33   H     H_    0.811939 0.999895 0.045478 0.141808
H34   H     H_    0.000072 0.812012 0.045581 0.141781
H35   H     H_    0.188061 0.000109 0.045478 0.141807
H36   H     H_    0.999934 0.187988 0.045581 0.141780
H37   H     H_    0.812106 0.999994 0.954315 0.140868
H38   H     H_    0.000067 0.187988 0.954418 0.141714
H39   H     H_    0.187894 0.000001 0.954315 0.140869
H40   H     H_    0.999928 0.812012 0.954418 0.141713
H41   H     H_    0.312020 0.499964 0.545581 0.140854
H42   H     H_    0.500100 0.311936 0.545478 0.141739
H43   H     H_    0.687979 0.500036 0.545581 0.140854
H44   H     H_    0.499895 0.688064 0.545478 0.141738
H45   H     H_    0.312020 0.500036 0.454419 0.140787
H46   H     H_    0.499994 0.687897 0.454315 0.140799
H47   H     H_    0.687980 0.499963 0.454419 0.140787
H48   H     H_    0.500011 0.312103 0.454315 0.140799
H49   H     H_    0.880744 0.999929 0.045728 0.158425
H50   H     H_    0.000072 0.880812 0.045761 0.158466
H51   H     H_    0.119256 0.000075 0.045728 0.158425
H52   H     H_    0.999934 0.119188 0.045761 0.158466
H53   H     H_    0.880892 0.000028 0.954205 0.158295
H54   H     H_    0.000066 0.119187 0.954239 0.158373
H55   H     H_    0.119108 0.999967 0.954205 0.158295
H56   H     H_    0.999928 0.880813 0.954238 0.158372
H57   H     H_    0.380816 0.499963 0.545761 0.158234
H58   H     H_    0.500066 0.380745 0.545728 0.158330
H59   H     H_    0.619184 0.500036 0.545761 0.158234
H60   H     H_    0.499929 0.619255 0.545728 0.158330
H61   H     H_    0.380816 0.500037 0.454239 0.158142
H62   H     H_    0.500029 0.619106 0.454205 0.158200
H63   H     H_    0.619184 0.499963 0.454239 0.158141
H64   H     H_    0.499977 0.380894 0.454205 0.158201
H65   H     H_    0.688167 0.060352 0.998163 0.143301
H66   H     H_    0.939898 0.688124 0.995106 0.142444
H67   H     H_    0.311833 0.939647 0.998163 0.143301
H68   H     H_    0.060102 0.311876 0.995107 0.142444
H69   H     H_    0.688121 0.939511 0.001203 0.140610
H70   H     H_    0.939898 0.311876 0.004892 0.142536
H71   H     H_    0.311879 0.060489 0.001203 0.140610
H72   H     H_    0.060102 0.688124 0.004893 0.142536
H73   H     H_    0.188136 0.560432 0.501258 0.141676
H74   H     H_    0.439652 0.188169 0.498163 0.143304
H75   H     H_    0.811864 0.439568 0.501258 0.141676
H76   H     H_    0.560348 0.811831 0.498163 0.143304
H77   H     H_    0.188136 0.439568 0.498742 0.141764
H78   H     H_    0.439515 0.811877 0.501204 0.140612
H79   H     H_    0.811864 0.560432 0.498742 0.141764
H80   H     H_    0.560485 0.188123 0.501204 0.140613
H81   H     H_    0.619377 0.060607 0.998168 0.165302
H82   H     H_    0.939680 0.619312 0.995058 0.167622
H83   H     H_    0.380623 0.939393 0.998168 0.165302
H84   H     H_    0.060320 0.380688 0.995058 0.167622
H85   H     H_    0.619323 0.939303 0.001212 0.159873
H86   H     H_    0.939680 0.380688 0.004941 0.167667
H87   H     H_    0.380677 0.060697 0.001212 0.159873
H88   H     H_    0.060320 0.619312 0.004942 0.167666
H89   H     H_    0.119341 0.560663 0.501283 0.158406
H90   H     H_    0.439397 0.119375 0.498168 0.165345
H91   H     H_    0.880659 0.439337 0.501283 0.158406
H92   H     H_    0.560603 0.880625 0.498168 0.165345
H93   H     H_    0.119341 0.439337 0.498717 0.158449
H94   H     H_    0.439307 0.880679 0.501212 0.159915
H95   H     H_    0.880659 0.560663 0.498717 0.158448
H96   H     H_    0.560693 0.119321 0.501212 0.159915
N1    N     N_R   0.500000 1.000000 0.675969 -0.459834
N2    N     N_R   0.000000 0.500000 0.676230 -0.459418
N3    N     N_R   0.500000 0.000000 0.323755 -0.459505
N4    N     N_R   0.000000 0.500000 0.323770 -0.459421
N5    N     N_R   1.000000 0.500000 0.175972 -0.459725
N6    N     N_R   0.500000 1.000000 0.175969 -0.459822
N7    N     N_R   0.000000 0.500000 0.824028 -0.459732
N8    N     N_R   0.500000 0.000000 0.823755 -0.459502
O1    O     O_R   0.554380 0.968480 0.000000 -0.597950
O2    O     O_R   0.031520 0.554380 0.000000 -0.574169
O3    O     O_R   0.445620 0.031520 0.000000 -0.597950
O4    O     O_R   0.968480 0.445620 0.000000 -0.574168
O5    O     O_R   0.554380 0.031520 0.000000 -0.558560
O6    O     O_R   0.031520 0.445620 0.000000 -0.574190
O7    O     O_R   0.445620 0.968480 0.000000 -0.558560
O8    O     O_R   0.968480 0.554380 0.000000 -0.574190
O9    O     O_R   0.054380 0.468480 0.500000 -0.582289
O10   O     O_R   0.531520 0.054380 0.500000 -0.597937
O11   O     O_R   0.945620 0.531520 0.500000 -0.582289
O12   O     O_R   0.468480 0.945620 0.500000 -0.597937
O13   O     O_R   0.054380 0.531520 0.500000 -0.582308
O14   O     O_R   0.531520 0.945620 0.500000 -0.558550
O15   O     O_R   0.945620 0.468480 0.500000 -0.582307
O16   O     O_R   0.468480 0.054380 0.500000 -0.558550
O17   O     O_R   0.499980 0.968480 0.958940 -0.569884
O18   O     O_R   0.031520 0.499980 0.958940 -0.554887
O19   O     O_R   0.500020 0.031520 0.958940 -0.569885
O20   O     O_R   0.968480 0.500020 0.958940 -0.554886
O21   O     O_R   0.499980 0.031520 0.041060 -0.554252
O22   O     O_R   0.031520 0.500020 0.041060 -0.554895
O23   O     O_R   0.500020 0.968480 0.041060 -0.554253
O24   O     O_R   0.968480 0.499980 0.041060 -0.554895
O25   O     O_R   0.999980 0.468480 0.458940 -0.569483
O26   O     O_R   0.531520 0.999980 0.458940 -0.569858
O27   O     O_R   0.000020 0.531520 0.458940 -0.569484
O28   O     O_R   0.468480 0.000020 0.458940 -0.569857
O29   O     O_R   0.999980 0.531520 0.541060 -0.569493
O30   O     O_R   0.531520 0.000020 0.541060 -0.554220
O31   O     O_R   0.000020 0.468480 0.541060 -0.569493
O32   O     O_R   0.468480 0.999980 0.541060 -0.554220
O33   O     O_2   0.561886 0.976743 0.675675 -0.526283
O34   O     O_2   0.938924 0.474687 0.675942 -0.528253
O35   O     O_2   0.438113 0.023257 0.675675 -0.526282
O36   O     O_2   0.061076 0.525312 0.675941 -0.528254
O37   O     O_2   0.475163 0.938727 0.324051 -0.528069
O38   O     O_2   0.938930 0.525328 0.324059 -0.528243
O39   O     O_2   0.524837 0.061273 0.324051 -0.528069
O40   O     O_2   0.061070 0.474672 0.324059 -0.528243
O41   O     O_2   0.061733 0.476334 0.175685 -0.526478
O42   O     O_2   0.523266 0.061887 0.175676 -0.526342
O43   O     O_2   0.938266 0.523666 0.175685 -0.526478
O44   O     O_2   0.476733 0.938113 0.175676 -0.526342
O45   O     O_2   0.061740 0.523649 0.824315 -0.526442
O46   O     O_2   0.438727 0.024828 0.824050 -0.528082
O47   O     O_2   0.938260 0.476350 0.824315 -0.526442
O48   O     O_2   0.561273 0.975172 0.824050 -0.528082
O49   O     O_R   0.000020 0.054200 0.976220 -0.583950
O50   O     O_R   0.945800 0.000020 0.976220 -0.584017
O51   O     O_R   0.999980 0.945800 0.976220 -0.583950
O52   O     O_R   0.054200 0.999980 0.976220 -0.584016
O53   O     O_R   0.000020 0.945800 0.023780 -0.583847
O54   O     O_R   0.945800 0.999980 0.023780 -0.583803
O55   O     O_R   0.999980 0.054200 0.023780 -0.583847
O56   O     O_R   0.054200 0.000020 0.023780 -0.583804
O57   O     O_R   0.500020 0.554200 0.476220 -0.584071
O58   O     O_R   0.445800 0.500020 0.476220 -0.584011
O59   O     O_R   0.499980 0.445800 0.476220 -0.584071
O60   O     O_R   0.554200 0.499980 0.476220 -0.584013
O61   O     O_R   0.500020 0.445800 0.523780 -0.583859
O62   O     O_R   0.445800 0.499980 0.523780 -0.583910
O63   O     O_R   0.499980 0.554200 0.523780 -0.583859
O64   O     O_R   0.554200 0.500020 0.523780 -0.583909
C241  C     C_2   0.554651 0.046295 0.912916 0.873578
O65   O     O_2   0.563331 0.076832 0.903051 -0.578960
O66   O     O_R   0.573387 0.032620 0.936757 -0.772682
H97   H     H_    0.593019 0.050777 0.944085 0.332318
C242  C     C_2   0.992684 0.428838 0.913343 0.833780
O67   O     O_2   0.007710 0.400948 0.903355 -0.579015
O68   O     O_R   0.970087 0.425466 0.937347 -0.758016
H98   H     H_    0.968011 0.398568 0.944150 0.331952
C243  C     C_2   0.445349 0.953705 0.912916 0.873580
O69   O     O_2   0.436669 0.923168 0.903051 -0.578961
O70   O     O_R   0.426613 0.967380 0.936757 -0.772682
H99   H     H_    0.406981 0.949223 0.944085 0.332319
C244  C     C_2   0.007316 0.571162 0.913342 0.833782
O71   O     O_2   0.992291 0.599052 0.903354 -0.579016
O72   O     O_R   0.029912 0.574534 0.937347 -0.758018
H100  H     H_    0.031989 0.601432 0.944150 0.331952
C245  C     C_2   0.428850 0.992625 0.086671 0.833920
O73   O     O_2   0.400946 0.007597 0.096681 -0.578961
O74   O     O_R   0.425498 0.970061 0.062649 -0.759474
H101  H     H_    0.398594 0.967932 0.055880 0.330802
C246  C     C_2   0.992695 0.571163 0.086657 0.833780
O75   O     O_2   0.007726 0.599050 0.096645 -0.578964
O76   O     O_R   0.970098 0.574538 0.062654 -0.758054
H102  H     H_    0.968025 0.601437 0.055850 0.331944
C247  C     C_2   0.571150 0.007375 0.086671 0.833919
O77   O     O_2   0.599054 0.992403 0.096681 -0.578962
O78   O     O_R   0.574502 0.029939 0.062649 -0.759474
H103  H     H_    0.601406 0.032068 0.055880 0.330802
C248  C     C_2   0.007304 0.428837 0.086657 0.833779
O79   O     O_2   0.992273 0.400950 0.096645 -0.578963
O80   O     O_R   0.029902 0.425462 0.062654 -0.758052
H104  H     H_    0.031974 0.398563 0.055851 0.331943
C249  C     C_2   0.055238 0.545589 0.412961 0.873468
O81   O     O_2   0.064420 0.575950 0.403046 -0.578919
O82   O     O_R   0.073657 0.531745 0.436889 -0.774106
H105  H     H_    0.093509 0.549641 0.444250 0.332170
C250  C     C_2   0.453711 0.054657 0.412916 0.873597
O83   O     O_2   0.423177 0.063340 0.403051 -0.578912
O84   O     O_R   0.467385 0.073394 0.436758 -0.772690
H106  H     H_    0.449231 0.093028 0.444085 0.332319
C251  C     C_2   0.944762 0.454411 0.412961 0.873467
O85   O     O_2   0.935580 0.424051 0.403046 -0.578919
O86   O     O_R   0.926343 0.468255 0.436890 -0.774106
H107  H     H_    0.906491 0.450359 0.444250 0.332170
C252  C     C_2   0.546289 0.945343 0.412916 0.873597
O87   O     O_2   0.576823 0.936660 0.403051 -0.578912
O88   O     O_R   0.532615 0.926606 0.436758 -0.772690
H108  H     H_    0.550769 0.906972 0.444085 0.332319
C253  C     C_2   0.055235 0.454407 0.587039 0.873494
O89   O     O_2   0.064415 0.424046 0.596954 -0.578878
O90   O     O_R   0.073655 0.468251 0.563111 -0.774100
H109  H     H_    0.093506 0.450353 0.555750 0.332195
C254  C     C_2   0.492621 0.071155 0.586670 0.833935
O91   O     O_2   0.507590 0.099062 0.596680 -0.578987
O92   O     O_R   0.470058 0.074506 0.562649 -0.759443
H110  H     H_    0.467927 0.101412 0.555879 0.330812
C255  C     C_2   0.944765 0.545593 0.587039 0.873494
O93   O     O_2   0.935585 0.575954 0.596954 -0.578878
O94   O     O_R   0.926345 0.531749 0.563111 -0.774100
H111  H     H_    0.906494 0.549647 0.555750 0.332194
C256  C     C_2   0.507379 0.928844 0.586670 0.833935
O95   O     O_2   0.492410 0.900937 0.596680 -0.578987
O96   O     O_R   0.529942 0.925494 0.562649 -0.759442
H112  H     H_    0.532073 0.898588 0.555879 0.330812

loop_
_geom_bond_atom_site_label_1
_geom_bond_atom_site_label_2
_ccdc_geom_bond_type
C106  H82   S    
C35   H43   S    
O84   H106  S    
C231  C247  S    
C37   C69   A    
C242  O67   D    
C167  C179  A    
C45   H53   S    
O68   H98   S    
Cu12  O63   S    
C117  C133  A    
C42   C58   A    
C79   C87   T    
C118  C136  A    
Cu2   O6    S    
C245  O73   D    
C170  C182  A    
C119  H95   S    
Cu10  O54   S    
C45   C57   A    
C102  C144  A    
C3    C131  S    
C99   C143  A    
C18   C210  A    
C186  H2    S    
C1    C129  S    
C98   C114  A    
C230  C246  S    
C15   C239  A    
C106  C130  A    
C250  O83   D    
Cu11  O57   S    
C204  O56   A    
C248  O80   S    
C128  O30   A    
C57   C202  S    
C220  H28   S    
C9    C121  S    
C168  C192  A    
Cu6   O30   S    
C114  H90   S    
C24   C224  A    
C33   C69   A    
C61   C206  S    
C13   C125  S    
C251  O86   S    
C35   C71   A    
C113  C133  A    
C80   C88   T    
C211  H19   S    
Cu7   O11   S    
C73   C81   T    
C89   C105  A    
C152  N4    A    
C37   H45   S    
C216  C232  A    
C76   C84   T    
C174  C198  A    
O86   H107  S    
C5    O9    A    
C158  N8    A    
C40   H48   S    
C171  C195  A    
C100  C144  A    
C217  C233  A    
C169  C193  A    
C164  C188  A    
C253  O89   D    
C28   C44   A    
C153  O41   S    
C221  C237  A    
C118  H94   S    
C31   C67   A    
C244  O71   D    
C155  C169  A    
Cu9   O52   S    
C218  H26   S    
C150  C168  A    
C216  H24   S    
C229  C245  S    
C48   C58   A    
C110  H86   S    
C63   C208  S    
C35   C51   A    
C103  H79   S    
C186  C199  A    
C172  C196  A    
C161  C177  A    
C97   H73   S    
O66   H97   S    
C213  C229  A    
C149  C167  A    
C175  C183  A    
C99   H75   S    
C176  C184  A    
C11   C231  A    
C149  N3    A    
C46   C60   A    
C194  H10   S    
C171  C181  A    
O70   H99   S    
C10   C122  S    
C147  O35   S    
C103  C143  A    
C205  O63   A    
C199  H15   S    
C158  O46   S    
C177  C184  A    
C167  C191  A    
C64   C205  S    
C15   C237  A    
C95   C139  A    
C14   C126  S    
C149  O37   S    
C148  C162  A    
C191  C194  A    
C255  O94   S    
C223  C239  A    
Cu4   O4    S    
C99   C115  A    
C189  C196  A    
C39   H47   S    
C224  H32   S    
Cu1   O17   S    
C214  H22   S    
C156  C170  A    
C19   N6    S    
C19   C215  A    
C247  O77   D    
C47   C59   A    
C195  H11   S    
C36   H44   S    
C82   C138  S    
C239  C255  S    
C39   C71   A    
C47   H55   S    
C3    O7    A    
C250  O84   S    
C150  N4    A    
C93   H69   S    
C56   H64   S    
C232  C248  S    
C241  O65   D    
C190  H6    S    
C69   C77   S    
Cu3   O5    S    
C71   C79   S    
C4    C132  S    
C243  O69   D    
C104  H80   S    
C5    C133  S    
Cu9   Cu10  S    
C40   C70   A    
Cu8   O12   S    
C228  C244  S    
C28   C68   A    
C151  N3    A    
Cu12  O62   S    
C93   C137  A    
C96   C138  A    
C31   H39   S    
C98   H74   S    
C66   C74   S    
C128  O32   A    
C23   C223  A    
C34   H42   S    
C53   C61   A    
C59   C204  S    
C92   C108  A    
C92   H68   S    
Cu7   O27   S    
C123  O23   A    
Cu3   O21   S    
Cu6   O26   S    
C237  C253  S    
C36   C52   A    
C43   C59   A    
C37   C53   A    
Cu5   O9    S    
C11   C229  A    
C21   C217  A    
C98   C142  A    
C207  O59   A    
C210  C226  A    
Cu5   O25   S    
C90   C138  A    
C7    O11   A    
C206  O62   A    
C38   C72   A    
C187  C198  A    
C173  C197  A    
C26   C66   A    
C219  C235  A    
C188  H4    S    
C85   C141  S    
C145  C163  A    
C201  O49   A    
C94   H70   S    
C146  C164  A    
Cu8   O32   S    
C52   H60   S    
C19   C213  A    
C20   C214  A    
C160  O48   S    
C172  C182  A    
C22   N3    S    
C150  O38   S    
Cu2   Cu4   S    
O96   H112  S    
C147  N1    A    
C210  H18   S    
C121  O17   A    
C256  O95   D    
C114  C134  A    
C224  C240  A    
C175  C199  A    
C242  O68   S    
C190  C195  A    
C29   C65   A    
Cu5   O15   S    
C111  C131  A    
Cu9   O49   S    
C38   H46   S    
C109  C129  A    
C165  C179  A    
C166  C180  A    
C164  C178  A    
C26   C42   A    
C13   C233  A    
Cu8   O16   S    
C7    O15   A    
C46   H54   S    
C154  O42   S    
C30   C46   A    
Cu4   O20   S    
C205  O57   A    
Cu12  O64   S    
C152  C166  A    
Cu1   O1    S    
C254  O92   S    
Cu10  O55   S    
Cu1   O23   S    
C8    O14   A    
C116  H92   S    
C221  H29   S    
C236  C252  S    
C72   C80   S    
C152  O40   S    
C125  O25   A    
C6    O10   A    
C115  C135  A    
Cu5   O31   S    
C153  N5    A    
C252  O88   S    
C123  O21   A    
C120  C134  A    
C197  H13   S    
C162  C178  A    
C145  N1    A    
Cu11  O60   S    
C27   H35   S    
O80   H104  S    
C200  H16   S    
C67   C75   S    
C16   C240  A    
C248  O79   D    
C21   C219  A    
C156  N6    A    
C15   C127  S    
C112  C130  A    
C97   C113  A    
C36   C72   A    
C93   C109  A    
C155  O43   S    
Cu8   O28   S    
C105  H81   S    
C156  O44   S    
C8    C136  S    
C94   C140  A    
C107  H83   S    
O94   H111  S    
C100  C116  A    
C222  H30   S    
Cu4   O8    S    
C83   C139  S    
Cu11  Cu12  S    
C81   C137  S    
C215  H23   S    
C20   C216  A    
C74   C82   T    
C17   C209  A    
C185  H1    S    
C246  O76   S    
C212  H20   S    
C33   C49   A    
C1    O1    A    
C121  O19   A    
C54   H62   S    
C3    O3    A    
C249  O82   S    
C89   H65   S    
C161  C185  A    
C91   H67   S    
C39   C55   A    
Cu9   O51   S    
C40   C56   A    
C163  C177  A    
C165  C189  A    
C110  C132  A    
C21   N4    S    
C191  H7    S    
C34   C70   A    
C51   H59   S    
C178  C183  A    
C23   N2    S    
C113  H89   S    
C13   C235  A    
C179  C182  A    
C245  O74   S    
C115  H91   S    
O82   H105  S    
C31   C47   A    
C148  O36   S    
C32   C48   A    
C209  C225  A    
C176  C200  A    
C112  H88   S    
C2    O8    A    
Cu10  O53   S    
C223  H31   S    
C253  O90   S    
C145  O33   S    
C17   N8    S    
C127  O31   A    
C49   C61   A    
O78   H103  S    
C160  N8    A    
C51   C63   A    
C90   C106  A    
C52   C64   A    
Cu1   Cu3   S    
C170  C194  A    
C240  C256  S    
C251  O85   D    
C43   H51   S    
C94   C110  A    
C119  C135  A    
C55   H63   S    
C44   H52   S    
C1    O5    A    
C30   H38   S    
O90   H109  S    
C117  H93   S    
C255  O93   D    
Cu11  O58   S    
C91   C107  A    
Cu7   O13   S    
C32   C66   A    
C38   C54   A    
C196  H12   S    
C9    C227  A    
C27   C67   A    
C234  C250  S    
C97   C141  A    
C91   C139  A    
C207  O61   A    
C58   C203  S    
C89   C137  A    
Cu5   Cu7   S    
C147  C161  A    
C104  C142  A    
C68   C76   S    
C2    O2    A    
C174  C184  A    
C214  C230  A    
C29   H37   S    
C62   C207  S    
C180  C181  A    
C86   C142  S    
C125  O27   A    
Cu1   O7    S    
C22   C220  A    
C202  O50   A    
C160  C174  A    
C11   C123  S    
C20   N5    S    
C17   C211  A    
C12   C230  A    
C116  C136  A    
C24   C222  A    
Cu3   O3    S    
C108  H84   S    
C101  C117  A    
C109  H85   S    
C41   C57   A    
C168  C180  A    
C75   C83   T    
Cu2   O18   S    
C188  C197  A    
C44   C60   A    
C2    C130  S    
C157  O45   S    
C217  H25   S    
C208  O60   A    
C212  C228  A    
C27   C43   A    
C60   C201  S    
C173  C183  A    
C122  O20   A    
C29   C45   A    
C208  O64   A    
C124  O22   A    
Cu4   O24   S    
C226  C242  S    
C206  O58   A    
C30   C68   A    
Cu6   O14   S    
C203  O51   A    
C104  C120  A    
C127  O29   A    
C70   C78   S    
O74   H101  S    
C159  O47   S    
C14   C236  A    
C101  H77   S    
C16   C238  A    
C96   C112  A    
C6    O16   A    
C54   C64   A    
C215  C231  A    
C198  H14   S    
C159  N7    A    
C18   N7    S    
Cu2   O22   S    
C65   C73   S    
C163  C187  A    
C151  O39   S    
C247  O78   S    
C126  O28   A    
C5    O13   A    
C101  C141  A    
Cu6   O10   S    
C203  O53   A    
Cu3   O19   S    
C102  C118  A    
C120  H96   S    
C201  O55   A    
C209  H17   S    
C22   C218  A    
C241  O66   S    
C211  C227  A    
C24   N1    S    
C219  H27   S    
C49   H57   S    
C4    O4    A    
C12   C232  A    
C243  O70   S    
Cu6   Cu8   S    
C34   C50   A    
C108  C132  A    
C48   H56   S    
C25   C65   A    
C218  C234  A    
C107  C131  A    
Cu12  O61   S    
C90   H66   S    
O92   H110  S    
C162  C186  A    
C41   H49   S    
C95   H71   S    
C254  O91   D    
Cu10  O56   S    
C222  C238  A    
C193  H9    S    
C55   C63   A    
C166  C190  A    
C18   C212  A    
C10   C228  A    
C7    C135  S    
O88   H108  S    
C12   C124  S    
C26   H34   S    
C28   H36   S    
C122  O18   A    
C169  C181  A    
C153  C171  A    
C252  O87   D    
C102  H78   S    
C154  C172  A    
C124  O24   A    
C16   C128  S    
C84   C140  S    
C50   H58   S    
Cu11  O59   S    
C157  C175  A    
C225  C241  S    
C32   H40   S    
C158  C176  A    
Cu7   O29   S    
C213  H21   S    
C146  O34   S    
C8    O12   A    
C50   C62   A    
C111  H87   S    
C235  C251  S    
C157  N7    A    
C187  H3    S    
C14   C234  A    
C42   H50   S    
C53   H61   S    
C220  C236  A    
C25   H33   S    
C103  C119  A    
C227  C243  S    
Cu2   O2    S    
C9    C225  A    
C244  O72   S    
C189  H5    S    
C192  C193  A    
O76   H102  S    
C126  O26   A    
C95   C111  A    
C78   C86   T    
C246  O75   D    
C154  N6    A    
C233  C249  S    
C100  H76   S    
C256  O96   S    
C56   C62   A    
C185  C200  A    
C249  O81   D    
C146  N2    A    
C105  C129  A    
C192  H8    S    
C204  O52   A    
C77   C85   T    
O72   H100  S    
C96   H72   S    
C23   C221  A    
C6    C134  S    
C151  C165  A    
Cu9   O50   S    
C202  O54   A    
C25   C41   A    
C159  C173  A    
C10   C226  A    
C238  C254  S    
C148  N2    A    
C155  N5    A    
C87   C143  S    
C4    O6    A    
C88   C144  S    
C33   H41   S    
C92   C140  A    
